data_mof_unit_36886.cif
_audit_creation_date              2012-12-11T15:16:38-0500
_audit_creation_method            fapswitch 2.2
_symmetry_space_group_name_H-M    P1
_symmetry_Int_Tables_number       1
_space_group_crystal_system       triclinic
_cell_length_a                    25.097552
_cell_length_b                    7.23238
_cell_length_c                    21.937103
_cell_angle_alpha                 89.998861
_cell_angle_beta                  110.243865
_cell_angle_gamma                 90.00009
_cell_volume                      3735.94474521

loop_
_atom_site_label
_atom_site_type_symbol
_atom_type_description
_atom_site_fract_x
_atom_site_fract_y
_atom_site_fract_z
_atom_type_partial_charge
O1    O     O_R   0.554350 0.505270 0.581390 -0.529037
O2    O     O_R   0.445650 0.005270 0.418610 -0.529038
O3    O     O_R   0.553380 0.177580 0.454800 -0.541038
O4    O     O_R   0.446620 0.677580 0.545200 -0.541041
C1    C     C_R   0.565763 0.344532 0.438170 0.691894
C2    C     C_R   0.434237 0.844530 0.561829 0.691894
O5    O     O_R   0.560970 0.175640 0.583140 -0.527422
O6    O     O_R   0.439030 0.675640 0.416860 -0.527423
O7    O     O_R   0.453290 0.004120 0.547860 -0.532577
O8    O     O_R   0.546710 0.504120 0.452140 -0.532583
C3    C     C_R   0.575950 0.343926 0.607635 0.738542
C4    C     C_R   0.424050 0.843929 0.392364 0.738541
O9    O     O_3   0.464660 0.338800 0.488280 -0.376636
O10   O     O_3   0.535340 0.838800 0.511720 -0.376635
V1    V     V_3+5 0.506560 0.064420 0.502170 1.479747
V2    V     V_3+5 0.493440 0.564420 0.497830 1.479739
C5    C     C_R   0.148407 0.974712 0.288882 -0.157751
C6    C     C_R   0.851591 0.474749 0.711118 -0.157750
H1    H     H_    0.062961 0.002766 0.222665 0.108852
H2    H     H_    0.937036 0.502811 0.777335 0.108854
H3    H     H_    0.233959 0.967765 0.401072 0.125623
H4    H     H_    0.766039 0.467797 0.598927 0.125622
H5    H     H_    0.135980 0.000589 0.330765 0.118885
H6    H     H_    0.864018 0.500636 0.669235 0.118884
C7    C     C_R   0.120959 0.941882 0.172287 -0.036767
C8    C     C_R   0.879040 0.441895 0.827713 -0.036769
C9    C     C_R   0.397694 0.819533 0.272801 0.257496
C10   C     C_R   0.602307 0.319497 0.727199 0.257496
C11   C     C_R   0.357931 0.819202 0.210125 -0.114978
C12   C     C_R   0.642070 0.319161 0.789875 -0.114979
C13   C     C_R   0.300516 0.848215 0.199265 -0.214240
C14   C     C_R   0.699484 0.348191 0.800735 -0.214237
C15   C     C_R   0.280749 0.879513 0.251374 0.081527
C16   C     C_R   0.719251 0.379507 0.748626 0.081526
C17   C     C_R   0.321736 0.881316 0.315940 0.027616
C18   C     C_R   0.678263 0.381316 0.684060 0.027616
C19   C     C_R   0.221735 0.909269 0.241506 0.087500
C20   C     C_R   0.778264 0.409275 0.758494 0.087499
C21   C     C_R   0.205525 0.942169 0.296550 0.133758
C22   C     C_R   0.794474 0.442192 0.703450 0.133759
C23   C     C_R   0.246297 0.943146 0.359043 -0.194397
C24   C     C_R   0.753701 0.443171 0.640956 -0.194396
C25   C     C_R   0.303317 0.912805 0.368689 -0.174350
C26   C     C_R   0.696683 0.412819 0.631310 -0.174350
C27   C     C_R   0.178026 0.908395 0.179169 -0.210475
C28   C     C_R   0.821974 0.408391 0.820831 -0.210474
C29   C     C_R   0.106669 0.975666 0.227360 -0.163597
C30   C     C_R   0.893329 0.475701 0.772640 -0.163596
C31   C     C_R   0.380371 0.850433 0.326400 -0.145728
C32   C     C_R   0.619630 0.350420 0.673600 -0.145729
H7    H     H_    0.186792 0.884098 0.135102 0.097411
H8    H     H_    0.813209 0.384077 0.864898 0.097412
H9    H     H_    0.272695 0.845602 0.149310 0.129496
H10   H     H_    0.727305 0.345576 0.850691 0.129495
H11   H     H_    0.371643 0.795713 0.169078 0.164783
H12   H     H_    0.628358 0.295660 0.830922 0.164782
H13   H     H_    0.332987 0.914849 0.418137 0.099414
H14   H     H_    0.667013 0.414863 0.581862 0.099415
C33   C     C_R   0.121049 0.765295 0.881990 -0.159558
C34   C     C_R   0.878956 0.265290 0.118018 -0.159559
H15   H     H_    0.105859 0.637270 0.895705 0.123925
H16   H     H_    0.894150 0.137266 0.104310 0.123923
C35   C     C_R   0.156995 0.755436 0.845454 -0.135363
C36   C     C_R   0.843011 0.255432 0.154554 -0.135362
H17   H     H_    0.168260 0.620431 0.832325 0.135182
H18   H     H_    0.831750 0.120427 0.167690 0.135182
C37   C     C_R   0.177867 0.917136 0.825988 0.020643
C38   C     C_R   0.822134 0.417132 0.174013 0.020644
C39   C     C_R   0.161946 0.089147 0.844414 -0.131530
C40   C     C_R   0.838049 0.589143 0.155579 -0.131532
H19   H     H_    0.177137 0.216764 0.830417 0.139675
H20   H     H_    0.822854 0.716759 0.169570 0.139676
C41   C     C_R   0.125987 0.099109 0.881036 -0.158524
C42   C     C_R   0.874009 0.599105 0.118957 -0.158525
H21   H     H_    0.114590 0.234177 0.893960 0.121921
H22   H     H_    0.885401 0.734173 0.106026 0.121923
C43   C     C_R   0.104868 0.937265 0.900272 -0.047407
C44   C     C_R   0.895133 0.437260 0.099729 -0.047406
N1    N     N_R   0.235593 0.061945 0.767090 -0.276583
N2    N     N_R   0.764396 0.561943 0.232894 -0.276582
N3    N     N_R   0.269320 0.051893 0.731696 -0.278012
N4    N     N_R   0.730668 0.551893 0.268288 -0.278006
C45   C     C_R   0.284772 0.885585 0.714110 0.522629
C46   C     C_R   0.715228 0.385587 0.285890 0.522628
N5    N     N_R   0.264933 0.729763 0.733607 -0.275493
N6    N     N_R   0.735078 0.229764 0.266410 -0.275499
N7    N     N_R   0.231200 0.739814 0.768992 -0.280834
N8    N     N_R   0.768811 0.239814 0.231024 -0.280835
C47   C     C_R   0.215743 0.906117 0.786574 0.515772
C48   C     C_R   0.784258 0.406115 0.213427 0.515772
C49   C     C_R   0.338971 0.702427 0.656790 -0.121329
C50   C     C_R   0.661036 0.202432 0.343220 -0.121330
H23   H     H_    0.324283 0.574803 0.671408 0.143007
H24   H     H_    0.675729 0.074807 0.328610 0.143002
C51   C     C_R   0.374802 0.692405 0.620022 -0.133765
C52   C     C_R   0.625205 0.192410 0.379987 -0.133761
H25   H     H_    0.386656 0.557325 0.607635 0.136809
H26   H     H_    0.613356 0.057329 0.392383 0.136801
C53   C     C_R   0.395257 0.854272 0.599997 -0.050290
C54   C     C_R   0.604742 0.354277 0.400002 -0.050294
C55   C     C_R   0.378600 0.026305 0.617639 -0.115710
C56   C     C_R   0.621392 0.526309 0.382350 -0.115713
H27   H     H_    0.393292 0.154278 0.603257 0.143420
H28   H     H_    0.606695 0.654282 0.396723 0.143436
C57   C     C_R   0.342831 0.036240 0.654380 -0.118582
C58   C     C_R   0.657162 0.536244 0.345609 -0.118582
H29   H     H_    0.331184 0.171299 0.667022 0.139198
H30   H     H_    0.668803 0.671303 0.332958 0.139205
C59   C     C_R   0.322567 0.874526 0.674603 0.010092
C60   C     C_R   0.677432 0.374530 0.325396 0.010091
O11   O     O_R   0.953220 0.285790 0.047790 -0.537763
O12   O     O_R   0.046780 0.785790 0.952210 -0.537762
O13   O     O_R   0.939020 0.617570 0.916840 -0.533520
O14   O     O_R   0.060980 0.117570 0.083160 -0.533518
C61   C     C_R   0.923922 0.448678 0.892486 0.683272
C62   C     C_R   0.076077 0.948674 0.107514 0.683272
O15   O     O_R   0.946600 0.615450 0.045180 -0.541023
O16   O     O_R   0.053400 0.115450 0.954820 -0.541024
O17   O     O_R   0.054370 0.786770 0.081410 -0.531382
O18   O     O_R   0.945630 0.286770 0.918590 -0.531380
C63   C     C_R   0.934241 0.446964 0.061657 0.676821
C64   C     C_R   0.065760 0.946966 0.938343 0.676821
O19   O     O_3   0.035300 0.454160 0.011680 -0.373122
O20   O     O_3   0.964700 0.954160 0.988320 -0.373122
V3    V     V_3+5 0.993450 0.728620 0.997830 1.413497
V4    V     V_3+5 0.006550 0.228620 0.002170 1.413496
Br1   Br    Br    0.475970 0.777804 0.283029 -0.549620
Br2   Br    Br    0.524032 0.277746 0.716970 -0.549614

loop_
_geom_bond_atom_site_label_1
_geom_bond_atom_site_label_2
_ccdc_geom_bond_type
C20   C22   A    
C35   H17   S    
C9    C11   A    
C23   C25   A    
O1    C3    A    
C37   C47   S    
O2    C4    A    
C33   C43   A    
C2    O7    A    
C4    C31   S    
O3    V1    S    
C21   C23   A    
O12   C64   A    
C57   H29   S    
C34   C44   A    
C5    H5    S    
C42   H22   S    
C6    H6    S    
C36   C38   A    
C46   N6    A    
C5    C21   A    
O14   V4    S    
O18   V4    S    
O11   C63   A    
C27   H7    S    
C28   H8    S    
C50   C52   A    
C34   H16   S    
O16   C64   A    
C55   H27   S    
C39   H19   S    
C44   C63   S    
O15   C63   A    
C8    C61   S    
C6    C22   A    
C43   C64   S    
C10   C32   A    
C26   H14   S    
C52   H26   S    
C17   C31   A    
C38   C48   S    
C13   C15   A    
C39   C41   A    
C17   C25   A    
C7    C29   A    
C16   C18   A    
C8    C30   A    
C22   C24   A    
C9    Br1   S    
O6    V2    S    
C11   C13   A    
C41   H21   S    
C24   C26   A    
C14   H10   S    
N3    C45   A    
N5    N7    A    
C55   C57   A    
C35   C37   A    
C33   H15   S    
N1    C47   A    
N6    N8    A    
N2    N4    A    
C7    C62   S    
N1    N3    A    
C8    C28   A    
O19   V4    S    
C11   H11   S    
C12   H12   S    
C15   C19   A    
C37   C39   A    
C36   H18   S    
O4    V2    S    
O5    C3    A    
C40   C42   A    
C49   H23   S    
C1    C54   S    
O6    C4    A    
O11   V4    S    
C50   H24   S    
O1    V2    S    
C13   H9    S    
C56   H28   S    
O2    V1    S    
O12   V3    S    
H2    C30   S    
H3    C23   S    
O17   V3    S    
O4    C2    A    
C53   C55   A    
N8    C48   A    
N4    C46   A    
N7    C47   A    
C18   C26   A    
C19   C27   A    
C7    C27   A    
C18   C32   A    
C54   C56   A    
C58   C60   A    
C57   C59   A    
C45   N5    A    
C16   C20   A    
C5    C29   A    
O3    C1    A    
C6    C30   A    
O14   C62   A    
C51   H25   S    
O9    V2    S    
C45   C59   S    
C33   C35   A    
C62   O17   A    
C34   C36   A    
C2    C53   S    
C49   C59   A    
C10   C12   A    
O7    V1    S    
C1    O8    A    
C19   C21   A    
C3    C32   S    
O8    V2    S    
C12   C14   A    
C50   C60   A    
H4    C24   S    
C58   H30   S    
C52   C54   A    
O5    V1    S    
C15   C17   A    
C56   C58   A    
C51   C53   A    
N2    C48   A    
C46   C60   S    
C20   C28   A    
C25   H13   S    
C49   C51   A    
C9    C31   A    
O13   V3    S    
C38   C40   A    
C61   O18   A    
C42   C44   A    
H1    C29   S    
C41   C43   A    
O10   V1    S    
C40   H20   S    
O16   V4    S    
O15   V3    S    
C10   Br2   S    
C14   C16   A    
O20   V3    S    
O13   C61   A    
