data_mof_unit_30747.cif
_audit_creation_date              2012-12-10T20:49:10-0500
_audit_creation_method            fapswitch 2.2
_symmetry_space_group_name_H-M    P1
_symmetry_Int_Tables_number       1
_space_group_crystal_system       triclinic
_cell_length_a                    8.915839
_cell_length_b                    8.12295
_cell_length_c                    10.578598
_cell_angle_alpha                 89.833475
_cell_angle_beta                  90.058925
_cell_angle_gamma                 89.969668
_cell_volume                      766.129147904

loop_
_atom_site_label
_atom_site_type_symbol
_atom_type_description
_atom_site_fract_x
_atom_site_fract_y
_atom_site_fract_z
_atom_type_partial_charge
C1    C     C_R   0.218093 0.500028 0.499858 0.917263
C2    C     C_3   0.620385 0.565146 0.043921 -0.353154
C3    C     C_3   0.491438 0.502281 0.876864 -0.177386
C4    C     C_3   0.487911 0.499013 0.123348 -0.167723
C5    C     C_1   0.065252 0.500038 0.499836 -0.202171
C6    C     C_1   0.934762 0.499954 0.499896 -0.204860
C7    C     C_3   0.111939 0.680114 0.021126 -0.847028
C8    C     C_3   0.826835 0.241895 0.001166 -0.795266
C9    C     C_3   0.399056 0.909553 0.865697 -0.671090
C10   C     C_3   0.306418 0.142366 0.136387 -0.748625
C11   C     C_R   0.781907 0.499970 0.500000 0.934779
C12   C     C_R   0.494203 0.499839 0.257226 0.880362
C13   C     C_R   0.497303 0.500377 0.742933 0.887117
C14   C     C_3   0.373655 0.589997 0.040619 0.241926
C15   C     C_3   0.603910 0.410604 0.960579 0.192150
C16   C     C_3   0.503658 0.655384 0.960957 0.234278
C17   C     C_3   0.472979 0.346110 0.039420 0.252980
C18   C     C_3   0.357544 0.436144 0.955148 -0.293150
H1    H     H_    0.253141 0.384558 0.913954 0.155433
H2    H     H_    0.869243 0.335642 0.068529 0.229468
H3    H     H_    0.623807 0.837070 0.865246 0.235093
H4    H     H_    0.434656 0.032447 0.830553 0.246637
H5    H     H_    0.313439 0.928506 0.939343 0.265081
H6    H     H_    0.347146 0.840766 0.786827 0.237865
H7    H     H_    0.539446 0.140333 0.144161 0.248218
H8    H     H_    0.304629 0.014050 0.172715 0.253315
H9    H     H_    0.220037 0.153953 0.061266 0.225438
H10   H     H_    0.277089 0.226629 0.214901 0.247415
H11   H     H_    0.726094 0.617294 0.082325 0.163410
H12   H     H_    0.235691 0.673227 0.187379 0.228310
H13   H     H_    0.034597 0.776860 0.056224 0.246269
H14   H     H_    0.058048 0.558066 0.034232 0.239297
H15   H     H_    0.132123 0.701735 0.918833 0.252783
H16   H     H_    0.785076 0.380280 0.840166 0.218716
H17   H     H_    0.924105 0.185472 0.952063 0.231116
H18   H     H_    0.768178 0.142819 0.053392 0.250136
N1    N     N_1   0.500000 0.073640 0.500000 -0.038929
N2    N     N_1   0.500000 0.926360 0.500000 -0.040092
N3    N     N_2   0.251005 0.686801 0.091380 -0.301033
N4    N     N_2   0.727620 0.316331 0.909133 -0.280749
N5    N     N_2   0.527201 0.823168 0.917653 -0.285457
N6    N     N_2   0.453769 0.179451 0.086105 -0.278748
O1    O     O_R   0.285350 0.636850 0.500000 -0.624593
O2    O     O_R   0.714650 0.363150 0.500000 -0.612959
O3    O     O_R   0.714650 0.636850 0.500000 -0.613509
O4    O     O_R   0.285350 0.363150 0.500000 -0.620429
O5    O     O_R   0.499970 0.636850 0.313950 -0.619486
O6    O     O_R   0.500030 0.363150 0.686050 -0.613846
O7    O     O_R   0.500030 0.636850 0.686050 -0.631906
O8    O     O_R   0.499970 0.363150 0.313950 -0.628669
Zn1   Zn    Zn3+2 0.500000 0.682780 0.500000 0.965652
Zn2   Zn    Zn3+2 0.500000 0.317220 0.500000 0.970353

loop_
_geom_bond_atom_site_label_1
_geom_bond_atom_site_label_2
_ccdc_geom_bond_type
H7    N6    S    
C10   H9    S    
C13   O6    A    
O8    Zn2   S    
C9    H6    S    
N1    N2    T    
N2    Zn1   S    
C10   N6    S    
C2    C16   S    
C4    C12   S    
C14   C18   S    
C2    C4    S    
C3    C13   S    
O6    Zn2   S    
O2    Zn2   S    
C17   C18   S    
C11   O2    A    
C2    C15   S    
C7    H15   S    
O1    Zn1   S    
C8    H2    S    
C2    H11   S    
H3    N5    S    
C4    C17   S    
H12   N3    S    
C18   H1    S    
C14   C16   S    
C12   O5    A    
C4    C14   S    
C5    C6    T    
C1    O4    A    
C13   O7    A    
C15   N4    S    
C11   O3    A    
C7    H13   S    
O3    Zn1   S    
O4    Zn2   S    
C1    C5    S    
C3    C15   S    
C3    C18   S    
C9    H4    S    
C8    H18   S    
C10   H10   S    
C6    C11   S    
C15   C17   S    
N1    Zn2   S    
C7    N3    S    
C17   N6    S    
H16   N4    S    
O5    Zn1   S    
C7    H14   S    
C8    N4    S    
C14   N3    S    
C9    N5    S    
C16   N5    S    
C1    O1    A    
C10   H8    S    
C9    H5    S    
C3    C16   S    
C12   O8    A    
O7    Zn1   S    
C8    H17   S    
