data_mof_unit_33731.cif
_audit_creation_date              2012-10-26T20:40:18-0400
_audit_creation_method            fapswitch 2.2
_symmetry_space_group_name_H-M    P1
_symmetry_Int_Tables_number       1
_space_group_crystal_system       triclinic
_cell_length_a                    15.037843
_cell_length_b                    10.907954
_cell_length_c                    9.704339
_cell_angle_alpha                 91.048907
_cell_angle_beta                  88.396435
_cell_angle_gamma                 89.980141
_cell_volume                      1590.93248712

loop_
_atom_site_label
_atom_site_type_symbol
_atom_type_description
_atom_site_fract_x
_atom_site_fract_y
_atom_site_fract_z
_atom_type_partial_charge
C1    C     C_R   0.504695 0.262558 0.499137 0.536911
C2    C     C_R   0.187450 0.399609 0.523179 -0.177421
C3    C     C_R   0.232072 0.510786 0.508290 -0.008661
C4    C     C_R   0.329213 0.506845 0.502005 0.557057
C5    C     C_R   0.184052 0.622507 0.503314 0.246384
C6    C     C_R   0.543305 0.117904 0.746503 -0.146581
C7    C     C_R   0.521585 0.069732 0.876799 0.288495
C8    C     C_R   0.468478 0.964000 0.882330 0.286052
C9    C     C_R   0.456412 0.895577 0.758770 -0.154267
C10   C     C_R   0.485795 0.941455 0.629556 -0.031773
C11   C     C_R   0.512250 0.064026 0.625407 -0.031283
C12   C     C_R   0.903610 0.608272 0.490489 -0.035771
C13   C     C_R   0.510054 0.127650 0.499789 -0.012420
C14   C     C_R   0.504512 0.060566 0.376309 -0.167043
C15   C     C_R   0.501242 0.933514 0.378531 -0.173329
C16   C     C_R   0.495878 0.737368 0.501488 0.538312
C17   C     C_R   0.491055 0.871935 0.504316 -0.019632
C18   C     C_R   0.637357 0.617198 0.142167 -0.085869
C19   C     C_R   0.720831 0.626279 0.077258 0.192920
C20   C     C_R   0.727671 0.602727 0.936851 -0.131255
C21   C     C_R   0.648391 0.607976 0.863739 0.269509
C22   C     C_R   0.569951 0.555610 0.925662 0.136831
C23   C     C_R   0.958088 0.279267 0.538530 -0.114871
C24   C     C_R   0.567678 0.557468 0.074120 0.065731
C25   C     C_R   0.434960 0.445156 0.074946 0.012712
C26   C     C_R   0.434508 0.446186 0.927903 -0.017122
C27   C     C_R   0.670566 0.494612 0.498584 0.578981
C28   C     C_R   0.811628 0.602900 0.480032 -0.123610
C29   C     C_R   0.767136 0.492377 0.496898 0.021736
C30   C     C_R   0.814680 0.383963 0.522143 0.234605
C31   C     C_R   0.908142 0.386991 0.523934 0.041550
C32   C     C_R   0.952572 0.500169 0.509583 0.003244
C33   C     C_3   0.621578 0.202395 0.983739 -0.030155
C34   C     C_R   0.050695 0.283566 0.535554 -0.139243
C35   C     C_3   0.657843 0.234349 0.122218 -0.392846
C36   C     C_3   0.356702 0.866959 0.009953 -0.033833
C37   C     C_3   0.317122 0.866367 0.155882 -0.345144
C38   C     C_3   0.786452 0.796592 0.171455 -0.018773
C39   C     C_3   0.877301 0.855637 0.149888 -0.372517
C40   C     C_3   0.674811 0.806468 0.790985 -0.009506
C41   C     C_3   0.709300 0.872622 0.665201 -0.392090
C42   C     C_3   0.752922 0.219620 0.416896 -0.027409
C43   C     C_3   0.748363 0.081634 0.431218 -0.400027
C44   C     C_3   0.262310 0.789297 0.578869 0.023016
C45   C     C_R   0.094945 0.395824 0.524645 0.006757
C46   C     C_3   0.272933 0.924980 0.546817 -0.352067
C47   C     C_3   0.042008 0.855919 0.702801 -0.027295
C48   C     C_3   0.073618 0.978573 0.759805 -0.390939
C49   C     C_R   0.045981 0.505447 0.514759 -0.023859
C50   C     C_R   0.089930 0.620143 0.511207 0.035984
C51   C     C_R   0.037471 0.728522 0.516092 0.288588
C52   C     C_R   0.946437 0.721232 0.491509 -0.128229
Cu1   Cu    Cu3+1 0.499990 0.499990 0.640660 0.972982
Cu2   Cu    Cu3+1 0.500010 0.500010 0.359340 0.924264
H1    H     H_    0.423352 0.808638 0.765599 0.130300
H2    H     H_    0.361677 0.770095 0.972808 0.131793
H3    H     H_    0.310281 0.918669 0.944558 0.111386
H4    H     H_    0.315436 0.961108 0.199789 0.158577
H5    H     H_    0.248223 0.829825 0.154708 0.129326
H6    H     H_    0.357409 0.807050 0.221876 0.187994
H7    H     H_    0.505007 0.883842 0.280980 0.184982
H8    H     H_    0.381662 0.398889 0.130040 0.130933
H9    H     H_    0.629189 0.657755 0.242792 0.186196
H10   H     H_    0.763203 0.813374 0.279610 0.123636
H11   H     H_    0.739113 0.843874 0.103402 0.110730
H12   H     H_    0.790804 0.620357 0.884252 0.139051
H13   H     H_    0.900220 0.842855 0.040741 0.141911
H14   H     H_    0.873159 0.955336 0.174349 0.094338
H15   H     H_    0.926413 0.813165 0.217691 0.175947
H16   H     H_    0.730198 0.810974 0.863800 0.101464
H17   H     H_    0.619710 0.857974 0.840924 0.156941
H18   H     H_    0.714806 0.971580 0.692071 0.111356
H19   H     H_    0.776564 0.838224 0.635341 0.117496
H20   H     H_    0.664602 0.858696 0.577622 0.167202
H21   H     H_    0.804544 0.238978 0.334943 0.126277
H22   H     H_    0.687444 0.253018 0.384688 0.155620
H23   H     H_    0.773626 0.685486 0.464832 0.113834
H24   H     H_    0.686080 0.058091 0.487304 0.158084
H25   H     H_    0.747785 0.035987 0.328413 0.086658
H26   H     H_    0.806709 0.047608 0.486787 0.153867
H27   H     H_    0.380848 0.401051 0.875170 0.122390
H28   H     H_    0.926075 0.191028 0.549370 0.149005
H29   H     H_    0.088072 0.199107 0.541540 0.110089
H30   H     H_    0.225294 0.315259 0.529996 0.110953
H31   H     H_    0.327920 0.749637 0.599457 0.127094
H32   H     H_    0.220167 0.780912 0.674384 0.128767
H33   H     H_    0.298299 0.975688 0.637674 0.085050
H34   H     H_    0.587284 0.195239 0.737024 0.150902
H35   H     H_    0.319516 0.936644 0.457772 0.153903
H36   H     H_    0.208430 0.965776 0.519448 0.201647
H37   H     H_    0.068662 0.782038 0.767928 0.119402
H38   H     H_    0.968025 0.856000 0.713577 0.121609
H39   H     H_    0.045903 0.053898 0.699262 0.150762
H40   H     H_    0.049762 0.990130 0.868615 0.102703
H41   H     H_    0.147217 0.983402 0.757100 0.137072
H42   H     H_    0.908157 0.805218 0.486712 0.103140
H43   H     H_    0.505007 0.105776 0.277992 0.200794
H44   H     H_    0.602059 0.289807 0.935829 0.151787
H45   H     H_    0.676141 0.156025 0.922377 0.126858
H46   H     H_    0.671774 0.147911 0.175302 0.145583
H47   H     H_    0.720016 0.288463 0.109763 0.105713
H48   H     H_    0.608292 0.289450 0.182698 0.199109
N1    N     N_R   0.500860 0.501210 0.147910 -0.250040
N2    N     N_R   0.500890 0.501290 0.852040 -0.249763
O1    O     O_R   0.499990 0.319640 0.618810 -0.509471
O2    O     O_3   0.442253 0.920979 0.011447 -0.542890
O3    O     O_3   0.794147 0.668592 0.146434 -0.548467
O4    O     O_3   0.644768 0.686983 0.753543 -0.505849
O5    O     O_3   0.770624 0.274917 0.545563 -0.583580
O6    O     O_3   0.226670 0.728969 0.463324 -0.543468
O7    O     O_3   0.071159 0.839125 0.563065 -0.548063
O8    O     O_R   0.500000 0.319660 0.381240 -0.522252
O9    O     O_R   0.370250 0.499960 0.618800 -0.529491
O10   O     O_R   0.370260 0.499980 0.381230 -0.487139
O11   O     O_R   0.500000 0.680340 0.618760 -0.461694
O12   O     O_R   0.500010 0.680360 0.381190 -0.530272
O13   O     O_R   0.629740 0.500020 0.618770 -0.438557
O14   O     O_R   0.629750 0.500040 0.381200 -0.541728
O15   O     O_3   0.546860 0.124606 0.000629 -0.545287

loop_
_geom_bond_atom_site_label_1
_geom_bond_atom_site_label_2
_ccdc_geom_bond_type
C23   H28   S    
C27   C29   S    
C39   H14   S    
C2    H30   S    
C19   C20   A    
C35   H48   S    
C22   N2    A    
C7    C8    A    
C46   H35   S    
Cu1   Cu2   S    
C43   H24   S    
C42   H21   S    
C40   H16   S    
C12   C28   A    
C18   C24   A    
C4    O10   A    
C36   C37   S    
C40   H17   S    
C42   O5    S    
C18   C19   A    
C1    O8    A    
C30   C31   A    
Cu1   O13   S    
C18   H9    S    
C5    O6    S    
C10   C17   A    
C43   H25   S    
C6    H34   S    
C33   H44   S    
C47   H38   S    
C38   O3    S    
C19   O3    S    
C26   N2    A    
C41   H20   S    
C31   C32   A    
Cu1   O9    S    
C8    C9    A    
Cu2   O12   S    
C9    H1    S    
C9    C10   A    
C37   H4    S    
C40   O4    S    
C21   C22   A    
C12   C32   A    
C39   H13   S    
C44   H32   S    
C16   O12   A    
C12   C52   A    
C44   C46   S    
C38   H10   S    
C27   O13   A    
C2    C45   A    
C15   H7    S    
C48   H39   S    
C30   O5    S    
C36   O2    S    
C51   C52   A    
C37   H6    S    
C7    O15   S    
Cu2   N1    S    
C36   H3    S    
C48   H41   S    
C6    C11   A    
C16   C17   S    
C35   H47   S    
C43   H26   S    
C3    C4    S    
C33   H45   S    
C23   C31   A    
C29   C30   A    
C36   H2    S    
Cu1   O1    S    
C4    O9    A    
C47   C48   S    
C38   H11   S    
C45   C49   A    
C23   C34   A    
C50   C51   A    
C39   H15   S    
Cu2   O8    S    
C34   C45   A    
C28   H23   S    
C37   H5    S    
C48   H40   S    
C41   H18   S    
C40   C41   S    
C33   O15   S    
C26   H27   S    
Cu2   O14   S    
C22   C24   A    
C5    C50   A    
C1    C13   S    
C42   C43   S    
C44   H31   S    
C16   O11   A    
C14   H43   S    
C46   H33   S    
C27   O14   A    
C20   H12   S    
C15   C17   A    
C28   C29   A    
C51   O7    S    
C47   H37   S    
C25   N1    A    
C3    C5    A    
C8    O2    S    
C6    C7    A    
C46   H36   S    
C42   H22   S    
C24   N1    A    
C2    C3    A    
C25   C26   A    
C11   C13   A    
C38   C39   S    
C47   O7    S    
Cu2   O10   S    
C33   C35   S    
C52   H42   S    
C25   H8    S    
C32   C49   A    
C21   O4    S    
C10   C11   A    
C41   H19   S    
Cu1   O11   S    
C20   C21   A    
C49   C50   A    
C34   H29   S    
C14   C15   A    
Cu1   N2    S    
C13   C14   A    
C35   H46   S    
C1    O1    A    
C44   O6    S    
