data_mof_unit_24966.cif
_audit_creation_date              2012-12-10T20:40:04-0500
_audit_creation_method            fapswitch 2.2
_symmetry_space_group_name_H-M    P1
_symmetry_Int_Tables_number       1
_space_group_crystal_system       triclinic
_cell_length_a                    23.339209
_cell_length_b                    10.684401
_cell_length_c                    9.888286
_cell_angle_alpha                 89.608287
_cell_angle_beta                  89.654055
_cell_angle_gamma                 90.670045
_cell_volume                      2465.52468463

loop_
_atom_site_label
_atom_site_type_symbol
_atom_type_description
_atom_site_fract_x
_atom_site_fract_y
_atom_site_fract_z
_atom_type_partial_charge
C1    C     C_R   0.500427 0.260398 0.500050 0.938149
C2    C     C_R   0.967790 0.366575 0.657690 -0.146157
C3    C     C_R   0.027366 0.365704 0.659794 -0.145872
C4    C     C_R   0.059050 0.456824 0.587756 -0.018576
C5    C     C_R   0.030518 0.550670 0.514538 -0.018938
C6    C     C_R   0.062034 0.642467 0.441907 -0.020730
C7    C     C_R   0.033110 0.735785 0.369683 -0.143792
C8    C     C_R   0.973422 0.737155 0.368283 -0.145394
C9    C     C_R   0.118810 0.455606 0.585275 0.515104
C10   C     C_R   0.121868 0.636806 0.441749 0.520085
C11   C     C_R   0.243864 0.619219 0.573058 -0.079165
C12   C     C_R   0.389539 0.499014 0.500533 0.969426
C13   C     C_R   0.302799 0.604812 0.572258 -0.192254
C14   C     C_R   0.327531 0.505237 0.502224 -0.116940
C15   C     C_R   0.292779 0.417604 0.432725 -0.072711
C16   C     C_R   0.233570 0.434967 0.432780 -0.129411
C17   C     C_R   0.209356 0.534246 0.503578 0.274758
C18   C     C_R   0.764401 0.499501 0.389900 -0.110800
C19   C     C_R   0.705390 0.483099 0.388178 -0.197304
C20   C     C_R   0.672752 0.516872 0.500782 -0.057275
C21   C     C_R   0.699373 0.569294 0.614272 -0.238080
C22   C     C_R   0.758663 0.587760 0.617031 0.004166
C23   C     C_R   0.497900 0.739416 0.499457 0.947121
C24   C     C_R   0.791204 0.550326 0.503579 0.240507
C25   C     C_R   0.536166 0.062124 0.583706 0.102183
C26   C     C_R   0.501382 0.128582 0.496488 -0.109908
C27   C     C_R   0.470596 0.067049 0.395244 -0.211063
C28   C     C_R   0.466462 0.937457 0.396332 -0.058171
C29   C     C_R   0.497160 0.871501 0.496599 -0.163560
C30   C     C_R   0.534418 0.934454 0.582856 0.115219
C31   C     C_3   0.540708 0.925650 0.733024 -0.440885
C32   C     C_3   0.542443 0.067600 0.733687 -0.448423
C33   C     C_R   0.452738 0.460618 0.072121 0.194005
C34   C     C_R   0.610659 0.502433 0.499810 0.885767
C35   C     C_R   0.544240 0.553074 0.068831 -0.014422
C36   C     C_R   0.544276 0.550447 0.925422 -0.153241
C37   C     C_R   0.452571 0.461514 0.929943 0.215561
C38   C     C_3   0.424213 0.336085 0.924917 -0.477712
C39   C     C_3   0.424913 0.334581 0.078543 -0.458952
C40   C     C_R   0.881761 0.643262 0.437548 0.564385
C41   C     C_R   0.879247 0.460417 0.578730 0.547523
C42   C     C_R   0.938944 0.458875 0.583961 -0.012365
C43   C     C_R   0.970326 0.551851 0.512845 -0.014876
C44   C     C_R   0.941669 0.645142 0.438944 -0.017969
H1    H     H_    0.944483 0.294523 0.713444 0.198557
H2    H     H_    0.685430 0.441867 0.300252 0.188817
H3    H     H_    0.673591 0.598085 0.699836 0.199476
H4    H     H_    0.445980 0.119997 0.322546 0.209262
H5    H     H_    0.502101 0.885287 0.784312 0.226188
H6    H     H_    0.582014 0.882865 0.762657 0.209837
H7    H     H_    0.504696 0.108453 0.784802 0.211935
H8    H     H_    0.584661 0.107103 0.764170 0.216383
H9    H     H_    0.048450 0.292857 0.716916 0.198021
H10   H     H_    0.579848 0.590554 0.868515 0.176217
H11   H     H_    0.380322 0.340925 0.882306 0.221806
H12   H     H_    0.451962 0.264227 0.879090 0.212153
H13   H     H_    0.381375 0.338072 0.123894 0.227886
H14   H     H_    0.453405 0.262066 0.121652 0.222197
H15   H     H_    0.056449 0.807402 0.313361 0.197275
H16   H     H_    0.952302 0.809909 0.311111 0.196587
H17   H     H_    0.224890 0.695411 0.628657 0.155898
H18   H     H_    0.329325 0.672121 0.625391 0.169809
H19   H     H_    0.205527 0.368947 0.382160 0.186576
H20   H     H_    0.789733 0.469892 0.304001 0.158213
N1    N     N_R   0.852199 0.552059 0.507109 -0.344979
N2    N     N_R   0.148646 0.543576 0.511509 -0.355819
N3    N     N_R   0.499610 0.499140 0.142800 -0.149110
N4    N     N_R   0.499610 0.499180 0.857150 -0.121382
O1    O     O_R   0.500010 0.316790 0.614690 -0.622331
O2    O     O_2   0.848239 0.371186 0.644308 -0.546543
O3    O     O_2   0.147097 0.367031 0.655369 -0.541707
O4    O     O_2   0.153083 0.722193 0.371047 -0.539607
O5    O     O_R   0.500000 0.316760 0.385350 -0.621196
O6    O     O_R   0.416160 0.499980 0.614700 -0.623465
O7    O     O_R   0.416150 0.499940 0.385360 -0.592760
O8    O     O_R   0.500000 0.683240 0.614650 -0.635996
O9    O     O_R   0.499990 0.683210 0.385310 -0.560310
O10   O     O_R   0.583850 0.500060 0.614640 -0.628672
O11   O     O_R   0.583840 0.500020 0.385300 -0.611470
O12   O     O_2   0.853155 0.731589 0.367966 -0.544157
Zn1   Zn    Zn3+2 0.500000 0.500020 0.653130 0.963568
Zn2   Zn    Zn3+2 0.500000 0.499980 0.346870 1.013467
C45   C     C_2   0.785007 0.645580 0.738825 0.944700
O13   O     O_2   0.833838 0.688195 0.734555 -0.614357
O14   O     O_R   0.753319 0.653188 0.859008 -0.784363
H21   H     H_    0.775584 0.694638 0.934560 0.360355
C46   C     C_2   0.425549 0.876781 0.301775 0.956839
O15   O     O_2   0.419728 0.919071 0.187465 -0.630198
O16   O     O_R   0.392029 0.774591 0.344771 -0.814094
H22   H     H_    0.365598 0.742337 0.271512 0.351406
C47   C     C_2   0.593204 0.617217 0.132436 0.938529
O17   O     O_2   0.585292 0.699881 0.214751 -0.595564
O18   O     O_R   0.648843 0.590283 0.089310 -0.803330
H23   H     H_    0.678938 0.643227 0.136369 0.356533
C48   C     C_2   0.315850 0.303976 0.366862 0.892451
O19   O     O_2   0.361249 0.259701 0.403629 -0.666222
O20   O     O_R   0.284446 0.244581 0.265218 -0.792550
H24   H     H_    0.304243 0.167596 0.229116 0.360225

loop_
_geom_bond_atom_site_label_1
_geom_bond_atom_site_label_2
_ccdc_geom_bond_type
C27   H4    S    
C46   O15   D    
O18   H23   S    
C12   O6    A    
C3    H9    S    
C41   C42   A    
C48   O19   D    
C23   O8    A    
O20   H24   S    
C19   H2    S    
C7    C8    A    
O14   H21   S    
C5    C6    A    
C26   C27   A    
C33   C39   S    
C18   C24   A    
N4    Zn1   S    
C23   C29   S    
C28   C29   A    
C37   C38   S    
C15   C48   S    
C30   C31   S    
C15   C16   A    
C39   H13   S    
C37   N4    A    
C18   C19   A    
C9    N2    A    
C32   H8    S    
C38   H11   S    
C31   C32   S    
C16   C17   A    
C40   O12   S    
C16   H19   S    
C20   C34   S    
C25   C32   S    
C5    C43   A    
C21   C22   A    
C31   H5    S    
C7    H15   S    
C10   N2    A    
C2    H1    S    
C13   H18   S    
C9    O3    S    
O1    Zn1   S    
C47   O17   D    
C41   N1    A    
C25   C26   A    
C39   H14   S    
C1    O1    A    
C35   C36   A    
C43   C44   A    
C32   H7    S    
C29   C30   A    
C34   O11   A    
C47   O18   S    
C45   O13   D    
C35   N3    A    
C28   C46   S    
C48   O20   S    
C17   N2    S    
C23   O9    A    
C24   N1    S    
C45   O14   S    
C12   C14   S    
C40   N1    A    
C46   O16   S    
C1    C26   S    
C22   C24   A    
C42   C43   A    
C31   H6    S    
C3    C4    A    
O5    Zn2   S    
C33   N3    A    
C25   C30   A    
C11   C17   A    
C8    C44   A    
C4    C5    A    
C11   H17   S    
O8    Zn1   S    
C6    C10   A    
O11   Zn2   S    
C36   N4    A    
O7    Zn2   S    
C6    C7    A    
C1    O5    A    
C22   C45   S    
C19   C20   A    
C2    C3    A    
C4    C9    A    
C34   O10   A    
C11   C13   A    
O10   Zn1   S    
C18   H20   S    
C38   C39   S    
O9    Zn2   S    
C2    C42   A    
C33   C37   A    
C36   H10   S    
C40   C44   A    
C38   H12   S    
C20   C21   A    
N3    Zn2   S    
C12   O7    A    
C27   C28   A    
C14   C15   A    
O6    Zn1   S    
O16   H22   S    
C13   C14   A    
C8    H16   S    
C35   C47   S    
C41   O2    S    
C21   H3    S    
C10   O4    S    
