data_mof_unit_47127.cif
_audit_creation_date              2012-12-10T17:52:28-0500
_audit_creation_method            fapswitch 2.2
_symmetry_space_group_name_H-M    P1
_symmetry_Int_Tables_number       1
_space_group_crystal_system       triclinic
_cell_length_a                    18.987136
_cell_length_b                    10.680085
_cell_length_c                    10.016984
_cell_angle_alpha                 92.438514
_cell_angle_beta                  88.831765
_cell_angle_gamma                 93.78505
_cell_volume                      2024.70528682

loop_
_atom_site_label
_atom_site_type_symbol
_atom_type_description
_atom_site_fract_x
_atom_site_fract_y
_atom_site_fract_z
_atom_type_partial_charge
C1    C     C_R   0.498667 0.260822 0.497382 0.975157
C2    C     C_R   0.856454 0.594149 0.495546 -0.061319
C3    C     C_R   0.364998 0.116584 0.545810 0.575310
C4    C     C_R   0.365504 0.505622 0.501362 1.060761
C5    C     C_R   0.305001 0.047101 0.588740 -0.086875
C6    C     C_R   0.311027 0.928518 0.635935 -0.182253
C7    C     C_R   0.376151 0.875015 0.631883 0.039334
C8    C     C_R   0.434209 0.933497 0.559465 -0.025461
C9    C     C_R   0.430635 0.060716 0.531071 -0.069355
C10   C     C_R   0.493408 0.128056 0.491783 -0.133017
C11   C     C_R   0.555849 0.070530 0.465500 -0.192071
C12   C     C_R   0.290576 0.531809 0.504548 -0.452038
C13   C     C_R   0.557451 0.942986 0.474605 0.096767
C14   C     C_R   0.496062 0.873343 0.516274 -0.092247
C15   C     C_R   0.394714 0.336740 0.123618 -0.090057
C16   C     C_R   0.496527 0.739323 0.504108 0.828571
C17   C     C_R   0.342157 0.275245 0.043287 0.517012
C18   C     C_R   0.345599 0.281303 0.907585 0.634007
C19   C     C_R   0.400911 0.349017 0.849208 -0.285969
C20   C     C_R   0.450467 0.424500 0.923972 0.022479
C21   C     C_R   0.449318 0.422026 0.068158 0.111220
C22   C     C_R   0.547099 0.574365 0.070548 0.158568
C23   C     C_R   0.933007 0.618828 0.501460 0.313832
C24   C     C_R   0.546869 0.572621 0.928924 -0.083677
C25   C     C_R   0.634752 0.503078 0.498752 0.885280
C26   C     C_R   0.251390 0.528918 0.625320 0.516212
C27   C     C_R   0.182207 0.564294 0.630155 0.599733
C28   C     C_R   0.150709 0.602352 0.513915 -0.274761
C29   C     C_R   0.190157 0.607020 0.394318 -0.277851
C30   C     C_R   0.259125 0.571898 0.388971 0.594373
C31   C     C_R   0.075241 0.623642 0.511634 0.396521
C32   C     C_R   0.815330 0.615905 0.610635 -0.219941
C33   C     C_R   0.743680 0.582137 0.611408 -0.230851
C34   C     C_R   0.711536 0.525906 0.497032 -0.112054
C35   C     C_R   0.752495 0.502867 0.380602 -0.023791
C36   C     C_R   0.824773 0.537686 0.380198 0.621332
F1    F     F_    0.279484 0.491600 0.739394 -0.577949
F2    F     F_    0.357671 0.237826 0.519365 -0.713889
F3    F     F_    0.289751 0.199954 0.098185 -0.600756
F4    F     F_    0.296407 0.216309 0.831296 -0.587935
F5    F     F_    0.146003 0.557837 0.748229 -0.568658
F6    F     F_    0.294839 0.579488 0.270422 -0.606601
F7    F     F_    0.863858 0.511646 0.268505 -0.645226
H1    H     H_    0.254835 0.089747 0.596955 0.217683
H2    H     H_    0.435771 0.806061 0.776708 0.223845
H3    H     H_    0.617860 0.826102 0.365109 0.185578
H4    H     H_    0.635095 0.835663 0.530852 0.183327
H5    H     H_    0.588086 0.749452 0.113212 0.171370
H6    H     H_    0.594917 0.652451 0.236492 0.247619
H7    H     H_    0.401490 0.201478 0.253631 0.206549
H8    H     H_    0.342182 0.306998 0.295648 0.287837
H9    H     H_    0.729995 0.501357 0.184025 0.232424
H10   H     H_    0.747103 0.359833 0.241362 0.225350
H11   H     H_    0.266261 0.882700 0.687173 0.200016
H12   H     H_    0.403030 0.339182 0.744099 0.283284
H13   H     H_    0.585276 0.632329 0.875892 0.139370
H14   H     H_    0.167391 0.636319 0.303362 0.241113
H15   H     H_    0.838616 0.658922 0.700646 0.195973
H16   H     H_    0.713187 0.602541 0.701403 0.180708
H17   H     H_    0.603837 0.125529 0.438962 0.155897
H18   H     H_    0.377559 0.698667 0.695837 0.241591
N1    N     N_R   0.042586 0.628388 0.392969 -0.140187
N2    N     N_3   0.393164 0.297529 0.256413 -0.296986
N3    N     N_3   0.721308 0.441858 0.263797 -0.412830
N4    N     N_R   0.972756 0.626050 0.387945 -0.061565
N5    N     N_R   0.965687 0.620342 0.620642 -0.153427
N6    N     N_R   0.035552 0.622586 0.625592 -0.056538
N7    N     N_R   0.499340 0.498800 0.142780 -0.096382
N8    N     N_R   0.499320 0.498720 0.857170 -0.108830
N9    N     N_3   0.385957 0.789427 0.734550 -0.401745
N10   N     N_3   0.623250 0.887140 0.448620 -0.446601
N11   N     N_3   0.599243 0.657843 0.134300 -0.466066
O1    O     O_R   0.500000 0.316780 0.614690 -0.626376
O2    O     O_R   0.499990 0.316750 0.385360 -0.602653
O3    O     O_R   0.398140 0.500000 0.614700 -0.596404
O4    O     O_R   0.398130 0.499970 0.385370 -0.540019
O5    O     O_R   0.500010 0.683250 0.614640 -0.653880
O6    O     O_R   0.500000 0.683220 0.385310 -0.624459
O7    O     O_R   0.601870 0.500030 0.614630 -0.624696
O8    O     O_R   0.601860 0.500000 0.385300 -0.616776
Zn1   Zn    Zn3+2 0.500000 0.500020 0.653130 0.958456
Zn2   Zn    Zn3+2 0.500000 0.499980 0.346870 0.996562

loop_
_geom_bond_atom_site_label_1
_geom_bond_atom_site_label_2
_ccdc_geom_bond_type
H18   N9    S    
C25   O8    A    
C35   C36   A    
C32   H15   S    
C7    N9    S    
C7    C8    A    
C31   N6    A    
C26   C27   A    
C1    O2    A    
C23   N5    A    
C28   C29   A    
H5    N11   S    
C34   C35   A    
C5    C6    A    
H10   N3    S    
C19   H12   S    
C2    C32   A    
C18   C19   A    
C17   F3    S    
O1    Zn1   S    
O6    Zn2   S    
C4    O3    A    
C18   F4    S    
C19   C20   A    
C3    F2    S    
C8    C9    A    
H6    N11   S    
C35   N3    S    
C4    C12   S    
C9    C10   A    
C25   C34   S    
C22   C24   A    
N5    N6    A    
C33   H16   S    
C13   C14   A    
H7    N2    S    
C31   N1    A    
O2    Zn2   S    
C22   N11   S    
C24   N8    A    
C33   C34   A    
H8    N2    S    
O8    Zn2   S    
H9    N3    S    
O4    Zn2   S    
O7    Zn1   S    
O3    Zn1   S    
C13   N10   S    
C12   C26   A    
C29   C30   A    
C3    C9    A    
C27   F5    S    
O5    Zn1   S    
C22   N7    A    
C17   C18   A    
H4    N10   S    
H3    N10   S    
C5    H1    S    
C29   H14   S    
C6    H11   S    
C21   N7    A    
C14   C16   S    
C20   N8    A    
C11   H17   S    
C2    C23   S    
C2    C36   A    
C15   C17   A    
C8    C14   A    
N1    N4    A    
C12   C30   A    
H2    N9    S    
C25   O7    A    
C28   C31   S    
C30   F6    S    
C1    C10   S    
C3    C5    A    
C26   F1    S    
C6    C7    A    
C24   H13   S    
C1    O1    A    
C32   C33   A    
C23   N4    A    
N7    Zn2   S    
C11   C13   A    
C16   O6    A    
C4    O4    A    
N8    Zn1   S    
C10   C11   A    
C15   C21   A    
C20   C21   A    
C27   C28   A    
C15   N2    S    
C16   O5    A    
C36   F7    S    
