data_mof_unit_18777.cif
_audit_creation_date              2012-12-10T19:03:05-0500
_audit_creation_method            fapswitch 2.2
_symmetry_space_group_name_H-M    P1
_symmetry_Int_Tables_number       1
_space_group_crystal_system       triclinic
_cell_length_a                    10.730623
_cell_length_b                    10.81477
_cell_length_c                    9.53956
_cell_angle_alpha                 89.804073
_cell_angle_beta                  90.014685
_cell_angle_gamma                 90.190144
_cell_volume                      1107.04589224

loop_
_atom_site_label
_atom_site_type_symbol
_atom_type_description
_atom_site_fract_x
_atom_site_fract_y
_atom_site_fract_z
_atom_type_partial_charge
C1    C     C_R   0.501977 0.262446 0.500227 0.786480
C2    C     C_3   0.878304 0.498733 0.500764 0.041886
C3    C     C_3   0.928749 0.620269 0.433493 0.333353
C4    C     C_3   0.926860 0.386784 0.415434 -0.501451
C5    C     C_R   0.502595 0.063453 0.626231 0.131770
C6    C     C_R   0.511870 0.129464 0.500748 -0.109632
C7    C     C_R   0.533615 0.065177 0.375544 -0.232486
C8    C     C_R   0.531337 0.936571 0.375188 -0.231128
C9    C     C_R   0.507859 0.871154 0.499931 -0.095381
C10   C     C_R   0.500154 0.936147 0.625786 0.112075
C11   C     C_3   0.402254 0.930915 0.737172 -0.471718
C12   C     C_R   0.259845 0.498258 0.500150 0.794987
C13   C     C_3   0.406035 0.071149 0.738612 -0.468854
C14   C     C_R   0.601456 0.541790 0.073420 0.265242
C15   C     C_R   0.405720 0.446461 0.074610 -0.088468
C16   C     C_R   0.405727 0.446431 0.925719 -0.087468
C17   C     C_R   0.601578 0.541534 0.926053 0.252822
C18   C     C_3   0.657855 0.667524 0.919098 -0.486308
C19   C     C_3   0.656920 0.668219 0.078154 -0.530271
C20   C     C_R   0.500054 0.737746 0.499832 0.817109
C21   C     C_R   0.740188 0.499093 0.500210 0.817098
C22   C     C_3   0.071388 0.490169 0.653247 -0.353187
C23   C     C_3   0.928917 0.486893 0.653004 -0.351643
C24   C     C_3   0.073112 0.617442 0.431899 -0.517131
C25   C     C_3   0.071205 0.383533 0.416587 0.343918
C26   C     C_3   0.121824 0.496629 0.500559 0.043811
Cu1   Cu    Cu3+1 0.499990 0.499980 0.640670 0.942025
Cu2   Cu    Cu3+1 0.500010 0.500020 0.359330 0.924522
H1    H     H_    0.103662 0.572286 0.713545 0.171448
H2    H     H_    0.893513 0.392832 0.305094 0.131299
H3    H     H_    0.106325 0.624367 0.321596 0.134678
H4    H     H_    0.894784 0.623220 0.322665 0.044391
H5    H     H_    0.547035 0.113694 0.277159 0.167459
H6    H     H_    0.543490 0.889289 0.276733 0.153844
H7    H     H_    0.312350 0.892588 0.698391 0.196426
H8    H     H_    0.436813 0.889144 0.836259 0.194807
H9    H     H_    0.317942 0.114557 0.702287 0.199505
H10   H     H_    0.444467 0.109647 0.837580 0.197298
H11   H     H_    0.328432 0.404812 0.130282 0.128135
H12   H     H_    0.107300 0.406532 0.708105 0.192725
H13   H     H_    0.328498 0.404683 0.870288 0.136985
H14   H     H_    0.753348 0.666667 0.874413 0.194336
H15   H     H_    0.594476 0.737031 0.871954 0.215536
H16   H     H_    0.751803 0.668485 0.124721 0.178562
H17   H     H_    0.591838 0.737408 0.121868 0.208359
H18   H     H_    0.896185 0.398580 0.701024 0.167153
H19   H     H_    0.893796 0.563548 0.719340 0.196951
H20   H     H_    0.111616 0.698977 0.488528 0.197290
H21   H     H_    0.102635 0.393234 0.305279 0.054744
H22   H     H_    0.888053 0.299356 0.459754 0.198697
N1    N     N_R   0.500800 0.500930 0.147930 -0.182672
N2    N     N_R   0.500800 0.500890 0.852020 -0.185091
O1    O     O_R   0.500000 0.319640 0.618810 -0.574522
O2    O     O_R   0.500010 0.319680 0.381230 -0.595642
O3    O     O_R   0.317690 0.499960 0.618790 -0.589859
O4    O     O_R   0.317700 0.500000 0.381210 -0.606371
O5    O     O_R   0.499990 0.680320 0.618770 -0.574087
O6    O     O_R   0.500000 0.680360 0.381190 -0.585273
O7    O     O_R   0.682300 0.500000 0.618790 -0.581175
O8    O     O_R   0.682310 0.500040 0.381210 -0.597298
O9    O     O_3   0.886841 0.723129 0.512564 -0.578153
C27   C     C_3   0.866870 0.826628 0.424853 0.042904
H23   H     H_    0.782364 0.811415 0.359451 0.148307
H24   H     H_    0.948534 0.844565 0.355450 0.139034
C28   C     C_3   0.846507 0.940300 0.515368 -0.770089
H25   H     H_    0.932721 0.961859 0.575053 0.243906
H26   H     H_    0.822437 0.020825 0.448187 0.199753
H27   H     H_    0.769341 0.923336 0.590490 0.254379
O10   O     O_3   0.110784 0.271489 0.481194 -0.619987
C29   C     C_3   0.188720 0.200959 0.392716 0.046807
H28   H     H_    0.242777 0.137156 0.460538 0.169437
H29   H     H_    0.258097 0.258940 0.335699 0.142387
C30   C     C_3   0.111703 0.123193 0.290285 -0.376296
H30   H     H_    0.042722 0.067228 0.349804 0.230249
H31   H     H_    0.060365 0.184618 0.216890 0.203454
C31   C     C_3   0.194885 0.036710 0.205914 -0.916736
H32   H     H_    0.264378 0.090835 0.144698 0.254950
H33   H     H_    0.136879 0.982071 0.132082 0.251611
H34   H     H_    0.244459 0.971756 0.276972 0.263475

loop_
_geom_bond_atom_site_label_1
_geom_bond_atom_site_label_2
_ccdc_geom_bond_type
C22   H1    S    
C30   H31   S    
C30   H30   S    
C31   H34   S    
C4    C25   S    
Cu2   O4    S    
C7    C8    A    
Cu1   N2    S    
C11   H8    S    
C31   H33   S    
C21   O7    A    
O10   C29   S    
C18   H14   S    
C5    C6    A    
Cu2   N1    S    
Cu1   O3    S    
C15   C16   A    
C18   C19   S    
C1    O1    A    
C27   H24   S    
C8    C9    A    
C28   H26   S    
C29   H28   S    
C15   N1    A    
C9    C10   A    
C5    C13   S    
Cu2   O8    S    
C23   H18   S    
C7    H5    S    
C14   C17   A    
C3    C24   S    
O9    C27   S    
C2    C21   S    
C17   N2    A    
C3    O9    S    
C23   H19   S    
C1    C6    S    
C24   H20   S    
C31   H32   S    
C21   O8    A    
Cu1   O5    S    
Cu2   O2    S    
C25   C26   S    
C12   C26   S    
C2    C4    S    
C1    O2    A    
C27   H23   S    
C9    C20   S    
C14   N1    A    
C28   H27   S    
C22   H12   S    
C29   C30   S    
Cu1   O1    S    
C17   C18   S    
C8    H6    S    
C15   H11   S    
C13   H10   S    
C12   O4    A    
C30   C31   S    
C25   O10   S    
C20   O6    A    
Cu1   Cu2   S    
C19   H16   S    
C27   C28   S    
C13   H9    S    
C14   C19   S    
C16   N2    A    
C24   C26   S    
C19   H17   S    
C6    C7    A    
Cu2   O6    S    
C11   H7    S    
C2    C3    S    
C24   H3    S    
C5    C10   A    
Cu1   O7    S    
C18   H15   S    
C11   C13   S    
C3    H4    S    
C25   H21   S    
C12   O3    A    
C10   C11   S    
C28   H25   S    
C22   C26   S    
C4    H22   S    
C2    C23   S    
C22   C23   S    
C29   H29   S    
C20   O5    A    
C16   H13   S    
C4    H2    S    
