data_mof_unit_28729.cif
_audit_creation_date              2012-12-10T16:57:05-0500
_audit_creation_method            fapswitch 2.2
_symmetry_space_group_name_H-M    P1
_symmetry_Int_Tables_number       1
_space_group_crystal_system       triclinic
_cell_length_a                    7.764518
_cell_length_b                    8.578884
_cell_length_c                    16.662503
_cell_angle_alpha                 91.751557
_cell_angle_beta                  80.945425
_cell_angle_gamma                 93.741318
_cell_volume                      1093.50571885

loop_
_atom_site_label
_atom_site_type_symbol
_atom_type_description
_atom_site_fract_x
_atom_site_fract_y
_atom_site_fract_z
_atom_type_partial_charge
C1    C     C_R   0.546206 0.794817 0.497995 0.977778
C2    C     C_R   0.383446 0.510075 0.222526 -0.233526
C3    C     C_R   0.562850 0.278462 0.834298 0.402483
C4    C     C_R   0.385276 0.483025 0.139919 0.417749
C5    C     C_R   0.414531 0.310124 0.890910 0.066440
C6    C     C_R   0.535925 0.426487 0.092521 0.056354
C7    C     C_R   0.280570 0.391868 0.867876 -0.130619
C8    C     C_R   0.686124 0.408713 0.126847 -0.147963
C9    C     C_R   0.301150 0.454461 0.790785 -0.169814
C10   C     C_R   0.683839 0.436901 0.209298 -0.158058
C11   C     C_2   0.420166 0.301882 0.977310 -0.093104
C12   C     C_R   0.453781 0.205186 0.502121 0.966295
C13   C     C_2   0.544019 0.392155 0.006353 -0.122043
C14   C     C_2   0.570553 0.958285 0.496914 -0.369945
C15   C     C_2   0.429410 0.041747 0.503438 -0.365407
C16   C     C_R   0.476192 0.491811 0.654023 0.896732
C17   C     C_R   0.522052 0.497509 0.345496 0.891344
C18   C     C_R   0.456059 0.435352 0.736610 -0.105441
C19   C     C_R   0.531017 0.484110 0.257802 -0.121001
C20   C     C_R   0.583784 0.342715 0.757832 -0.241258
Cl1   Cl    Cl    0.200037 0.529192 0.098291 -0.673179
Cl2   Cl    Cl    0.729091 0.166856 0.859183 -0.621511
H1    H     H_    0.700054 0.319606 0.715080 0.193853
H2    H     H_    0.296158 0.990626 0.509679 0.182847
H3    H     H_    0.022828 0.380646 0.439469 0.192674
H4    H     H_    0.977177 0.619377 0.560515 0.197828
H5    H     H_    0.266237 0.550655 0.259076 0.189784
H6    H     H_    0.799902 0.417565 0.235263 0.188054
H7    H     H_    0.198573 0.521082 0.774364 0.177149
H8    H     H_    0.652889 0.446767 0.965495 0.182484
H9    H     H_    0.308896 0.249786 0.017508 0.188161
H10   H     H_    0.166519 0.417593 0.911526 0.198451
H11   H     H_    0.803734 0.369278 0.090084 0.198135
H12   H     H_    0.703801 0.009415 0.490702 0.182040
N1    N     N_2   0.953500 0.457650 0.478520 -0.173336
N2    N     N_2   0.046500 0.542350 0.521480 -0.171036
O1    O     O_R   0.388470 0.738640 0.505270 -0.610046
O2    O     O_R   0.611530 0.261360 0.494730 -0.614886
O3    O     O_R   0.679650 0.711510 0.491500 -0.623871
O4    O     O_R   0.320350 0.288490 0.508500 -0.626341
O5    O     O_R   0.337210 0.515200 0.623500 -0.612259
O6    O     O_R   0.662790 0.484800 0.376500 -0.616598
O7    O     O_R   0.628380 0.488060 0.609730 -0.627313
O8    O     O_R   0.371620 0.511940 0.390270 -0.627577
Zn1   Zn    Zn3+2 0.305580 0.518120 0.509190 0.956846
Zn2   Zn    Zn3+2 0.694420 0.481880 0.490810 0.952648

loop_
_geom_bond_atom_site_label_1
_geom_bond_atom_site_label_2
_ccdc_geom_bond_type
C12   O4    A    
C2    C4    A    
C20   H1    S    
C14   H12   S    
C2    H5    S    
C1    C14   S    
C9    H7    S    
C9    C18   A    
N1    N2    D    
C12   C15   S    
C1    O1    A    
C10   C19   A    
C17   O8    A    
C11   H9    S    
N2    Zn1   S    
C6    C13   S    
C4    Cl1   S    
C11   C13   D    
C16   O7    A    
H3    N1    S    
O3    Zn2   S    
H4    N2    S    
C15   H2    S    
C17   C19   S    
C5    C11   S    
C18   C20   A    
C8    H11   S    
C12   O2    A    
O4    Zn1   S    
O7    Zn2   S    
O2    Zn2   S    
C4    C6    A    
C1    O3    A    
O1    Zn1   S    
C7    C9    A    
C13   H8    S    
C3    C20   A    
O8    Zn1   S    
C16   C18   S    
O6    Zn2   S    
C10   H6    S    
C5    C7    A    
O5    Zn1   S    
C14   C15   D    
C3    Cl2   S    
C6    C8    A    
C7    H10   S    
C2    C19   A    
C17   O6    A    
N1    Zn2   S    
C16   O5    A    
C8    C10   A    
C3    C5    A    
