data_mof_unit_19138.cif
_audit_creation_date              2012-12-10T17:44:32-0500
_audit_creation_method            fapswitch 2.2
_symmetry_space_group_name_H-M    P1
_symmetry_Int_Tables_number       1
_space_group_crystal_system       triclinic
_cell_length_a                    9.932591
_cell_length_b                    10.739334
_cell_length_c                    15.56664
_cell_angle_alpha                 93.67458
_cell_angle_beta                  67.239667
_cell_angle_gamma                 88.808136
_cell_volume                      1526.15978424

loop_
_atom_site_label
_atom_site_type_symbol
_atom_type_description
_atom_site_fract_x
_atom_site_fract_y
_atom_site_fract_z
_atom_type_partial_charge
C1    C     C_R   0.504249 0.738052 0.489935 0.881746
C2    C     C_R   0.411448 0.512153 0.913563 0.021942
C3    C     C_R   0.280560 0.584257 0.967074 0.093522
C4    C     C_R   0.521288 0.499012 0.950291 0.030075
C5    C     C_R   0.485025 0.530766 0.046224 0.077137
C6    C     C_R   0.348614 0.593569 0.099775 -0.233724
C7    C     C_R   0.250018 0.621715 0.060360 -0.191108
C8    C     C_R   0.669464 0.468808 0.892488 -0.362249
C9    C     C_R   0.775892 0.450757 0.929717 0.436870
C10   C     C_R   0.735834 0.469060 0.026690 0.058949
C11   C     C_R   0.589214 0.505617 0.084901 0.024878
C12   C     C_R   0.407704 0.500290 0.676043 0.936897
C13   C     C_R   0.839142 0.451803 0.067240 -0.181109
C14   C     C_R   0.796254 0.465833 0.164344 -0.211116
C15   C     C_R   0.548250 0.512214 0.181282 -0.234066
C16   C     C_R   0.274354 0.888316 0.454072 -0.144410
C17   C     C_R   0.140712 0.953491 0.476689 -0.126391
C18   C     C_R   0.112259 0.067309 0.529674 -0.164582
C19   C     C_R   0.223277 0.122168 0.550276 -0.165343
C20   C     C_R   0.366020 0.064335 0.516266 0.076630
C21   C     C_R   0.383113 0.939196 0.481851 0.096337
C22   C     C_R   0.507530 0.869963 0.478390 -0.191816
C23   C     C_R   0.496690 0.260433 0.507101 0.874722
C24   C     C_R   0.627822 0.929622 0.483027 -0.222086
C25   C     C_R   0.622919 0.056283 0.500121 0.081029
C26   C     C_R   0.492807 0.126428 0.513838 -0.171456
C27   C     C_R   0.798938 0.699965 0.611668 0.523593
C28   C     C_R   0.860089 0.799496 0.646753 -0.316134
C29   C     C_R   0.996088 0.785763 0.648602 -0.266349
C30   C     C_R   0.080156 0.679132 0.607722 -0.133732
C31   C     C_R   0.040418 0.591072 0.553420 0.085891
C32   C     C_R   0.895121 0.595412 0.554167 0.067523
C33   C     C_R   0.961879 0.412495 0.448348 -0.147731
C34   C     C_R   0.592055 0.497895 0.323808 0.856981
C35   C     C_R   0.104608 0.412581 0.448379 -0.107830
C36   C     C_R   0.347555 0.513680 0.778426 -0.095148
C37   C     C_R   0.649127 0.493682 0.221618 -0.056281
C38   C     C_R   0.186212 0.623929 0.925207 0.059470
C39   C     C_R   0.225252 0.595197 0.829057 0.055656
C40   C     C_R   0.429580 0.460879 0.823774 0.006847
H1    H     H_    0.150534 0.675474 0.103480 0.174134
H2    H     H_    0.952614 0.426304 0.024295 0.180519
H3    H     H_    0.726053 0.877317 0.477093 0.179877
H4    H     H_    0.292064 0.799504 0.413533 0.160592
H5    H     H_    0.056992 0.912948 0.456883 0.143828
H6    H     H_    0.005286 0.114362 0.553303 0.144005
H7    H     H_    0.195300 0.208970 0.593806 0.156133
H8    H     H_    0.936165 0.341623 0.405366 0.132415
H9    H     H_    0.799988 0.884850 0.682485 0.155052
H10   H     H_    0.434661 0.525721 0.226677 0.160495
H11   H     H_    0.035251 0.856917 0.684461 0.183565
H12   H     H_    0.177799 0.667743 0.618990 0.238175
H13   H     H_    0.185346 0.340952 0.405966 0.155015
H14   H     H_    0.876417 0.450662 0.194429 0.156661
H15   H     H_    0.319098 0.631734 0.170809 0.141074
H16   H     H_    0.706750 0.467038 0.817554 0.175073
N1    N     N_R   0.856800 0.501200 0.500850 -0.105683
N2    N     N_R   0.142390 0.501280 0.500880 -0.116337
O1    O     O_R   0.385310 0.683220 0.500000 -0.653916
O2    O     O_R   0.614640 0.683250 0.500010 -0.578901
O3    O     O_R   0.319840 0.499980 0.632240 -0.629826
O4    O     O_R   0.549160 0.500000 0.632250 -0.552296
O5    O     O_R   0.385360 0.316750 0.499990 -0.622219
O6    O     O_R   0.614690 0.316780 0.500000 -0.631648
O7    O     O_R   0.450840 0.500000 0.367750 -0.621258
O8    O     O_R   0.680160 0.500020 0.367760 -0.615679
Zn1   Zn    Zn3+2 0.346880 0.499980 0.499990 0.921401
Zn2   Zn    Zn3+2 0.653120 0.500020 0.500010 0.960082
N3    N     N_3   0.750441 0.108298 0.507133 -0.483563
H17   H     H_    0.804052 0.158088 0.449004 0.207406
H18   H     H_    0.720877 0.164672 0.569560 0.199856
O9    O     O_3   0.648247 0.691861 0.646540 -0.598316
C41   C     C_3   0.559997 0.801752 0.690975 0.090763
H19   H     H_    0.454620 0.792133 0.682454 0.155608
H20   H     H_    0.604545 0.887802 0.656841 0.129254
C42   C     C_3   0.524503 0.813933 0.796383 -0.381792
H21   H     H_    0.471997 0.729066 0.827284 0.238017
H22   H     H_    0.624683 0.821942 0.811127 0.221825
C43   C     C_3   0.421027 0.927075 0.844281 -0.951416
H23   H     H_    0.472638 0.014277 0.815724 0.265664
H24   H     H_    0.395653 0.932479 0.920476 0.271677
H25   H     H_    0.317157 0.918767 0.833641 0.259049
O10   O     O_3   0.921816 0.428450 0.871136 -0.668084
C44   C     C_3   0.945075 0.310064 0.820682 0.084504
H26   H     H_    0.037845 0.316853 0.752631 0.171082
H27   H     H_    0.850559 0.280151 0.803954 0.117413
C45   C     C_3   0.986785 0.210896 0.873698 -0.342816
H28   H     H_    0.082660 0.240653 0.888571 0.232409
H29   H     H_    0.893884 0.201377 0.941267 0.216039
C46   C     C_3   0.024641 0.084173 0.817488 -0.990025
H30   H     H_    0.930901 0.053161 0.800800 0.262933
H31   H     H_    0.050006 0.013723 0.858952 0.259824
H32   H     H_    0.121874 0.089828 0.751582 0.268005
N4    N     N_3   0.059252 0.703700 0.978456 -0.476223
H33   H     H_    0.071654 0.790636 0.950468 0.180051
H34   H     H_    0.967356 0.664142 0.973169 0.211371
N5    N     N_3   0.146700 0.654730 0.781755 -0.463737
H35   H     H_    0.036322 0.635490 0.812382 0.239367
H36   H     H_    0.156438 0.751231 0.788497 0.154704
N6    N     N_3   0.512589 0.344949 0.783285 -0.481714
H37   H     H_    0.614302 0.362021 0.732386 0.195995
H38   H     H_    0.527430 0.294438 0.834431 0.190503

loop_
_geom_bond_atom_site_label_1
_geom_bond_atom_site_label_2
_ccdc_geom_bond_type
O8    Zn2   S    
C45   H28   S    
C16   C21   A    
C35   H13   S    
C34   C37   S    
C41   H19   S    
C19   C20   A    
C44   C45   S    
C6    H15   S    
C4    C8    A    
C34   O8    A    
N5    H35   S    
C35   N2    A    
O6    Zn2   S    
C31   N2    A    
C28   C29   A    
C44   H27   S    
C5    C11   A    
C3    C7    A    
C1    O1    A    
C30   C31   A    
C19   H7    S    
C23   C26   S    
C18   C19   A    
C15   H10   S    
N3    H18   S    
C15   C37   A    
O1    Zn1   S    
C11   C15   A    
C44   H26   S    
O10   C44   S    
C3    C38   A    
C8    C9    A    
O7    Zn1   S    
C42   C43   S    
C12   C36   S    
C9    C10   A    
C16   H4    S    
C23   O5    A    
C1    C22   S    
C21   C22   A    
C41   H20   S    
C8    H16   S    
N4    H33   S    
C32   N1    A    
C18   H6    S    
C34   O7    A    
C13   H2    S    
N5    H36   S    
C38   C39   A    
O5    Zn1   S    
C42   H22   S    
C36   C40   A    
C42   H21   S    
C1    O2    A    
C43   H24   S    
C16   C17   A    
C25   C26   A    
C2    C4    A    
C29   C30   A    
C12   O4    A    
C28   H9    S    
O3    Zn1   S    
C46   H31   S    
C31   C32   A    
C38   N4    S    
N6    H38   S    
C17   C18   A    
C24   C25   A    
N4    H34   S    
C9    O10   S    
C23   O6    A    
C14   H14   S    
C45   H29   S    
C41   C42   S    
C22   C24   A    
C25   N3    S    
N1    Zn2   S    
C46   H32   S    
C29   H11   S    
C33   H8    S    
C30   H12   S    
C33   N1    A    
C27   C32   A    
C36   C39   A    
C17   H5    S    
O9    C41   S    
C10   C13   A    
C40   N6    S    
C43   H25   S    
C6    C7    A    
O4    Zn2   S    
C2    C3    A    
C14   C37   A    
C12   O3    A    
C46   H30   S    
C5    C6    A    
C20   C26   A    
N6    H37   S    
C33   C35   A    
C7    H1    S    
N3    H17   S    
C39   N5    S    
C10   C11   A    
C43   H23   S    
C2    C40   A    
N2    Zn1   S    
C4    C5    A    
C20   C21   A    
O2    Zn2   S    
C45   C46   S    
C27   C28   A    
C24   H3    S    
C13   C14   A    
C27   O9    S    
