data_mof_unit_17318.cif
_audit_creation_date              2012-12-11T15:50:47-0500
_audit_creation_method            fapswitch 2.2
_symmetry_space_group_name_H-M    P1
_symmetry_Int_Tables_number       1
_space_group_crystal_system       triclinic
_cell_length_a                    19.22177
_cell_length_b                    11.231056
_cell_length_c                    18.635103
_cell_angle_alpha                 90.024091
_cell_angle_beta                  91.313368
_cell_angle_gamma                 89.123184
_cell_volume                      4021.43265747

loop_
_atom_site_label
_atom_site_type_symbol
_atom_type_description
_atom_site_fract_x
_atom_site_fract_y
_atom_site_fract_z
_atom_type_partial_charge
C1    C     C_R   0.274263 0.037623 0.854601 0.551016
C2    C     C_R   0.726187 0.039749 0.145641 0.552619
C3    C     C_R   0.774263 0.537623 0.854602 0.551017
C4    C     C_R   0.226187 0.539749 0.145641 0.552619
C5    C     C_3   0.544132 0.749628 0.968892 -0.130934
C6    C     C_3   0.488654 0.719896 0.024452 -0.111531
C7    C     C_3   0.044137 0.249637 0.968890 -0.130935
C8    C     C_3   0.988662 0.219893 0.024451 -0.111528
C9    C     C_R   0.240587 0.576135 0.072715 0.019142
C10   C     C_R   0.762105 0.564029 0.929051 0.019822
C11   C     C_R   0.740587 0.076133 0.072714 0.019141
C12   C     C_R   0.262105 0.064028 0.929051 0.019820
C13   C     C_R   0.304390 0.554808 0.040253 0.004389
C14   C     C_R   0.707102 0.517201 0.966667 0.014988
C15   C     C_R   0.804387 0.054796 0.040251 0.004392
C16   C     C_R   0.207102 0.017199 0.966668 0.014989
C17   C     C_R   0.310188 0.564177 0.966331 0.021964
C18   C     C_R   0.702638 0.528101 0.038819 0.022471
C19   C     C_R   0.810185 0.064165 0.966329 0.021963
C20   C     C_R   0.202640 0.028098 0.038819 0.022472
C21   C     C_R   0.187965 0.613883 0.955206 -0.171820
C22   C     C_R   0.812462 0.624577 0.044039 -0.180151
C23   C     C_R   0.687965 0.113881 0.955206 -0.171821
C24   C     C_R   0.312462 0.124578 0.044039 -0.180150
C25   C     C_R   0.183270 0.612386 0.029051 -0.170169
C26   C     C_R   0.815959 0.617328 0.969915 -0.168145
C27   C     C_R   0.683272 0.112387 0.029052 -0.170169
C28   C     C_R   0.315959 0.117329 0.969915 -0.168146
C29   C     C_3   0.351445 0.448404 0.044511 -0.272216
C30   C     C_3   0.641790 0.448014 0.959728 -0.275642
C31   C     C_3   0.851446 0.948399 0.044510 -0.272218
C32   C     C_3   0.141790 0.948015 0.959728 -0.275642
C33   C     C_3   0.357977 0.458132 0.963831 -0.279996
C34   C     C_3   0.635263 0.464813 0.041434 -0.274584
C35   C     C_3   0.857977 0.958125 0.963830 -0.279998
C36   C     C_3   0.135263 0.964812 0.041434 -0.274583
C37   C     C_R   0.251529 0.589359 0.922583 0.020564
C38   C     C_R   0.753001 0.586223 0.079851 0.021671
C39   C     C_R   0.751528 0.089354 0.922582 0.020563
C40   C     C_R   0.253001 0.086223 0.079852 0.021672
C41   C     C_R   0.545714 0.824074 0.436335 0.011855
C42   C     C_R   0.503783 0.831277 0.580043 -0.001451
C43   C     C_R   0.045719 0.324070 0.436338 0.011851
C44   C     C_R   0.003790 0.331274 0.580047 -0.001442
C45   C     C_R   0.470114 0.821400 0.854848 0.541863
C46   C     C_R   0.531066 0.821563 0.144362 0.554705
C47   C     C_R   0.970113 0.321400 0.854849 0.541865
C48   C     C_R   0.031067 0.321563 0.144362 0.554706
C49   C     C_R   0.564795 0.731430 0.484459 0.008504
C50   C     C_R   0.540362 0.734477 0.554845 0.026303
C51   C     C_R   0.064799 0.231424 0.484462 0.008504
C52   C     C_R   0.040368 0.234470 0.554849 0.026314
C53   C     C_R   0.482281 0.918211 0.531427 -0.182094
C54   C     C_R   0.499719 0.912532 0.459861 -0.169559
C55   C     C_R   0.982292 0.418209 0.531432 -0.182102
C56   C     C_R   0.999728 0.412529 0.459866 -0.169559
C57   C     C_3   0.544929 0.601950 0.480725 -0.119427
C58   C     C_3   0.509780 0.614222 0.551886 -0.089863
C59   C     C_3   0.044931 0.101945 0.480725 -0.119436
C60   C     C_3   0.009781 0.114217 0.551885 -0.089852
C61   C     C_R   0.224257 0.517257 0.439801 0.000160
C62   C     C_R   0.785653 0.497358 0.559587 -0.003498
C63   C     C_R   0.724262 0.017265 0.439798 0.000169
C64   C     C_R   0.285655 0.997358 0.559587 -0.003495
C65   C     C_R   0.168467 0.529795 0.485685 -0.007705
C66   C     C_R   0.836579 0.554292 0.523020 -0.011375
C67   C     C_R   0.668471 0.029797 0.485682 -0.007709
C68   C     C_R   0.336580 0.054295 0.523021 -0.011378
C69   C     C_R   0.177669 0.529701 0.559500 0.002922
C70   C     C_R   0.829521 0.576101 0.450120 0.001378
C71   C     C_R   0.677673 0.029702 0.559498 0.002922
C72   C     C_R   0.329523 0.076105 0.450120 0.001377
C73   C     C_R   0.300609 0.509849 0.546042 -0.175888
C74   C     C_R   0.722665 0.472403 0.444018 -0.169173
C75   C     C_R   0.800612 0.009855 0.546040 -0.175894
C76   C     C_R   0.222670 0.972399 0.444017 -0.169172
C77   C     C_R   0.290116 0.491436 0.472439 -0.057107
C78   C     C_R   0.731998 0.445350 0.517278 -0.045441
C79   C     C_R   0.790120 0.991440 0.472437 -0.057109
C80   C     C_R   0.232001 0.945347 0.517277 -0.045429
C81   C     C_3   0.109502 0.617333 0.489333 -0.235912
C82   C     C_3   0.867251 0.671589 0.540841 -0.278574
C83   C     C_3   0.609499 0.117324 0.489333 -0.235910
C84   C     C_3   0.367248 0.171596 0.540842 -0.278573
C85   C     C_3   0.110616 0.592462 0.570115 -0.249775
C86   C     C_3   0.858980 0.694276 0.463006 -0.248335
C87   C     C_3   0.610614 0.092447 0.570115 -0.249768
C88   C     C_3   0.358978 0.194282 0.463007 -0.248336
C89   C     C_R   0.260892 0.635782 0.850900 0.542213
C90   C     C_R   0.739972 0.635306 0.149990 0.543690
C91   C     C_R   0.760891 0.135781 0.850899 0.542212
C92   C     C_R   0.239973 0.135306 0.149990 0.543690
C93   C     C_R   0.244395 0.549305 0.587511 0.015203
C94   C     C_R   0.766976 0.552698 0.412708 0.005334
C95   C     C_R   0.744398 0.049311 0.587508 0.015206
C96   C     C_R   0.266979 0.052697 0.412707 0.005332
C97   C     C_R   0.290971 0.995813 0.638867 0.565727
C98   C     C_R   0.711114 0.001148 0.362484 0.541647
C99   C     C_R   0.790971 0.495812 0.638867 0.565723
C100  C     C_R   0.211112 0.501145 0.362484 0.541645
C101  C     C_R   0.469371 0.822904 0.647829 0.535329
C102  C     C_R   0.561909 0.818250 0.360226 0.540478
C103  C     C_R   0.969368 0.322902 0.647828 0.535342
C104  C     C_R   0.061910 0.318249 0.360226 0.540477
C105  C     C_R   0.258511 0.629772 0.647542 0.549057
C106  C     C_R   0.742951 0.631096 0.353054 0.525864
C107  C     C_R   0.758512 0.129774 0.647541 0.549059
C108  C     C_R   0.242952 0.131096 0.353054 0.525863
C109  C     C_3   0.458114 0.909687 0.030204 -0.130356
C110  C     C_3   0.513286 0.939350 0.973827 -0.120609
C111  C     C_3   0.958110 0.409677 0.030205 -0.130359
C112  C     C_3   0.013279 0.439354 0.973828 -0.120607
C113  C     C_3   0.435111 0.801223 0.985058 -0.098928
C114  C     C_3   0.567016 0.858198 0.013893 -0.115345
C115  C     C_3   0.935113 0.301211 0.985059 -0.098932
C116  C     C_3   0.067014 0.358210 0.013893 -0.115349
C117  C     C_3   0.491029 0.830115 0.930066 0.058629
C118  C     C_3   0.511147 0.828300 0.068692 0.053434
C119  C     C_3   0.991028 0.330116 0.930066 0.058630
C120  C     C_3   0.011148 0.328299 0.068691 0.053434
Cr1   Cr    Cr6+3 0.229640 0.835880 0.747370 0.999933
Cr2   Cr    Cr6+3 0.770360 0.835880 0.252630 1.028518
Cr3   Cr    Cr6+3 0.729640 0.335880 0.747370 0.999946
Cr4   Cr    Cr6+3 0.270360 0.335880 0.252630 1.028518
Cr5   Cr    Cr6+3 0.387390 0.989720 0.750850 0.995458
Cr6   Cr    Cr6+3 0.612610 0.989720 0.249150 1.005988
Cr7   Cr    Cr6+3 0.887390 0.489720 0.750850 0.995456
Cr8   Cr    Cr6+3 0.112610 0.489720 0.249150 1.005988
Cr9   Cr    Cr6+3 0.385770 0.677220 0.749340 0.982655
Cr10  Cr    Cr6+3 0.614230 0.677220 0.250660 0.990713
Cr11  Cr    Cr6+3 0.885770 0.177220 0.749340 0.982652
Cr12  Cr    Cr6+3 0.114230 0.177220 0.250660 0.990712
H1    H     H_    0.380280 0.779503 0.971352 0.127069
H2    H     H_    0.621758 0.880460 0.027771 0.123371
H3    H     H_    0.880283 0.279483 0.971352 0.127070
H4    H     H_    0.121756 0.380481 0.027771 0.123371
H5    H     H_    0.453822 0.991852 0.550623 0.145850
H6    H     H_    0.477316 0.978067 0.423096 0.140163
H7    H     H_    0.953831 0.491845 0.550628 0.145844
H8    H     H_    0.977325 0.478065 0.423103 0.140162
H9    H     H_    0.091766 0.043851 0.483823 0.134685
H10   H     H_    0.952321 0.121927 0.546682 0.148376
H11   H     H_    0.591765 0.543859 0.483821 0.134672
H12   H     H_    0.452318 0.621922 0.546686 0.148382
H13   H     H_    0.353029 0.504907 0.568518 0.120185
H14   H     H_    0.676107 0.444546 0.415019 0.119814
H15   H     H_    0.853030 0.004909 0.568517 0.120184
H16   H     H_    0.176112 0.944541 0.415017 0.119816
H17   H     H_    0.061961 0.595712 0.459526 0.135579
H18   H     H_    0.922429 0.671479 0.559462 0.130713
H19   H     H_    0.561957 0.095697 0.459527 0.135581
H20   H     H_    0.422427 0.171494 0.559463 0.130712
H21   H     H_    0.127398 0.706755 0.474051 0.164014
H22   H     H_    0.832630 0.730354 0.572943 0.162884
H23   H     H_    0.627388 0.206756 0.474054 0.164002
H24   H     H_    0.332626 0.230358 0.572944 0.162885
H25   H     H_    0.109345 0.662093 0.610238 0.200982
H26   H     H_    0.814347 0.755057 0.455410 0.181107
H27   H     H_    0.609330 0.162082 0.610241 0.200962
H28   H     H_    0.314343 0.255058 0.455410 0.181107
H29   H     H_    0.073676 0.527304 0.588462 0.129543
H30   H     H_    0.908964 0.704786 0.434992 0.167374
H31   H     H_    0.573684 0.027267 0.588463 0.129544
H32   H     H_    0.408962 0.204796 0.434994 0.167374
H33   H     H_    0.423526 0.973128 0.058230 0.118172
H34   H     H_    0.523840 0.028607 0.951363 0.107025
H35   H     H_    0.923518 0.473109 0.058233 0.118174
H36   H     H_    0.023828 0.528613 0.951365 0.107026
H37   H     H_    0.580638 0.688955 0.941408 0.113624
H38   H     H_    0.477483 0.630500 0.046175 0.115064
H39   H     H_    0.080646 0.188971 0.941405 0.113623
H40   H     H_    0.977494 0.130495 0.046173 0.115062
H41   H     H_    0.141900 0.638493 0.923686 0.127595
H42   H     H_    0.855430 0.666116 0.072515 0.134514
H43   H     H_    0.641900 0.138492 0.923686 0.127595
H44   H     H_    0.355429 0.166119 0.072514 0.134514
H45   H     H_    0.132477 0.630534 0.050967 0.142531
H46   H     H_    0.862399 0.650757 0.945532 0.144129
H47   H     H_    0.632480 0.130540 0.050968 0.142534
H48   H     H_    0.362399 0.150759 0.945532 0.144130
H49   H     H_    0.823724 0.867739 0.061395 0.169491
H50   H     H_    0.152237 0.854509 0.943753 0.162046
H51   H     H_    0.323721 0.367746 0.061395 0.169491
H52   H     H_    0.652240 0.354509 0.943754 0.162048
H53   H     H_    0.400647 0.466413 0.074723 0.129636
H54   H     H_    0.600401 0.493774 0.927283 0.124074
H55   H     H_    0.900646 0.966413 0.074722 0.129637
H56   H     H_    0.100401 0.993780 0.927285 0.124075
H57   H     H_    0.411114 0.482415 0.947239 0.143152
H58   H     H_    0.591660 0.524899 0.056679 0.152481
H59   H     H_    0.911113 0.982411 0.947237 0.143152
H60   H     H_    0.091661 0.024900 0.056680 0.152480
H61   H     H_    0.334800 0.382178 0.933922 0.138556
H62   H     H_    0.639809 0.380111 0.072119 0.141015
H63   H     H_    0.834802 0.882168 0.933921 0.138557
H64   H     H_    0.139808 0.880109 0.072119 0.141016
O1    O     O_R   0.214300 0.709080 0.827500 -0.534574
O2    O     O_R   0.785700 0.709080 0.172500 -0.533545
O3    O     O_R   0.714300 0.209080 0.827500 -0.534572
O4    O     O_R   0.285700 0.209080 0.172500 -0.533546
O5    O     O_R   0.445900 0.919370 0.676500 -0.525486
O6    O     O_R   0.554100 0.919370 0.323500 -0.520545
O7    O     O_R   0.945900 0.419370 0.676500 -0.525490
O8    O     O_R   0.054100 0.419370 0.323500 -0.520543
O9    O     O_R   0.456660 0.717710 0.669820 -0.537581
O10   O     O_R   0.543340 0.717710 0.330180 -0.524705
O11   O     O_R   0.956660 0.217710 0.669820 -0.537579
O12   O     O_R   0.043340 0.217710 0.330180 -0.524705
O13   O     O_R   0.320590 0.625770 0.672930 -0.520853
O14   O     O_R   0.679410 0.625770 0.327070 -0.525421
O15   O     O_R   0.820590 0.125770 0.672930 -0.520859
O16   O     O_R   0.179410 0.125770 0.327070 -0.525421
O17   O     O_3   0.334270 0.834280 0.749190 -0.276386
O18   O     O_3   0.665730 0.834280 0.250810 -0.299167
O19   O     O_3   0.834270 0.334280 0.749190 -0.276389
O20   O     O_3   0.165730 0.334280 0.250810 -0.299169
O21   O     O_R   0.236190 0.958390 0.823150 -0.503868
O22   O     O_R   0.763810 0.958390 0.176850 -0.497385
O23   O     O_R   0.736190 0.458390 0.823150 -0.503869
O24   O     O_R   0.263810 0.458390 0.176850 -0.497386
O25   O     O_R   0.332090 0.075280 0.831290 -0.525472
O26   O     O_R   0.667910 0.075280 0.168710 -0.526453
O27   O     O_R   0.832090 0.575280 0.831290 -0.525473
O28   O     O_R   0.167910 0.575280 0.168710 -0.526453
O29   O     O_R   0.446280 0.918040 0.826620 -0.504953
O30   O     O_R   0.553720 0.918040 0.173380 -0.502539
O31   O     O_R   0.946280 0.418040 0.826620 -0.504953
O32   O     O_R   0.053720 0.418040 0.173380 -0.502540
O33   O     O_R   0.457080 0.716270 0.831760 -0.526208
O34   O     O_R   0.542920 0.716270 0.168240 -0.521464
O35   O     O_R   0.957080 0.216270 0.831760 -0.526212
O36   O     O_R   0.042920 0.216270 0.168240 -0.521464
O37   O     O_R   0.320980 0.624440 0.823040 -0.499929
O38   O     O_R   0.679020 0.624440 0.176960 -0.498998
O39   O     O_R   0.820980 0.124440 0.823040 -0.499929
O40   O     O_R   0.179020 0.124440 0.176960 -0.498999
O41   O     O_R   0.213880 0.710510 0.665560 -0.508814
O42   O     O_R   0.786120 0.710510 0.334440 -0.509498
O43   O     O_R   0.713880 0.210510 0.665560 -0.508793
O44   O     O_R   0.286120 0.210510 0.334440 -0.509498
O45   O     O_R   0.235800 0.959720 0.673040 -0.509395
O46   O     O_R   0.764200 0.959720 0.326960 -0.475004
O47   O     O_R   0.735800 0.459720 0.673040 -0.509391
O48   O     O_R   0.264200 0.459720 0.326960 -0.474998
O49   O     O_R   0.331670 0.076720 0.669350 -0.523714
O50   O     O_R   0.668330 0.076720 0.330650 -0.518656
O51   O     O_R   0.831670 0.576720 0.669350 -0.523714
O52   O     O_R   0.168330 0.576720 0.330650 -0.518656
C121  C     C_3   0.493916 0.560913 0.422686 -0.227402
C122  C     C_3   0.429683 0.644753 0.404604 -0.333116
H65   H     H_    0.393182 0.651831 0.449347 0.121500
H66   H     H_    0.439230 0.737144 0.390574 0.172193
H67   H     H_    0.402224 0.612306 0.355626 0.174754
H68   H     H_    0.521468 0.533010 0.373732 0.181183
H69   H     H_    0.478312 0.475797 0.445816 0.150000
C123  C     C_3   0.527033 0.525506 0.612589 -0.263939
C124  C     C_3   0.590578 0.557587 0.659235 -0.349112
H70   H     H_    0.634843 0.580924 0.625173 0.176932
H71   H     H_    0.578911 0.635540 0.693705 0.154515
H72   H     H_    0.604703 0.481670 0.695043 0.168356
H73   H     H_    0.482280 0.518648 0.648802 0.160428
H74   H     H_    0.527146 0.435673 0.589556 0.157923
C125  C     C_3   0.993920 0.060913 0.422685 -0.227408
C126  C     C_3   0.929686 0.144753 0.404605 -0.333115
H75   H     H_    0.893184 0.151829 0.449346 0.121495
H76   H     H_    0.939233 0.237147 0.390580 0.172190
H77   H     H_    0.902229 0.112310 0.355625 0.174754
H78   H     H_    0.021472 0.033015 0.373732 0.181189
H79   H     H_    0.978317 0.975794 0.445811 0.150003
C127  C     C_3   0.027023 0.025486 0.612585 -0.263906
C128  C     C_3   0.090562 0.057539 0.659250 -0.349075
H80   H     H_    0.134834 0.080925 0.625206 0.176935
H81   H     H_    0.078889 0.135467 0.693752 0.154504
H82   H     H_    0.104683 0.981583 0.695031 0.168350
H83   H     H_    0.982261 0.018623 0.648787 0.160396
H84   H     H_    0.027134 0.935656 0.589546 0.157915
C129  C     C_1   0.345527 0.445410 0.429872 0.171515
N1    N     N_1   0.383880 0.403626 0.389473 -0.330939
C130  C     C_1   0.677233 0.387855 0.549658 0.203630
N2    N     N_1   0.631475 0.345405 0.577188 -0.363233
C131  C     C_1   0.845530 0.945409 0.429871 0.171521
N3    N     N_1   0.883884 0.903622 0.389473 -0.330941
C132  C     C_1   0.177234 0.887860 0.549654 0.203642
N4    N     N_1   0.131470 0.845412 0.577174 -0.363271

loop_
_geom_bond_atom_site_label_1
_geom_bond_atom_site_label_2
_ccdc_geom_bond_type
C59   C125  S    
Cr4   O24   S    
C123  H74   S    
Cr6   O50   S    
C73   C93   A    
Cr8   O28   S    
C75   C95   A    
C48   C120  S    
Cr6   O6    S    
C53   H5    S    
C104  O8    A    
C16   C20   A    
C63   C98   S    
C69   C93   A    
C7    H39   S    
C97   O49   A    
C5    C6    S    
C20   C40   A    
C71   C95   A    
C122  H66   S    
C128  H80   S    
C22   C38   A    
C29   C33   S    
C55   H7    S    
C33   H57   S    
C9    C13   A    
C109  H33   S    
C72   C88   S    
C11   C15   A    
C12   C16   A    
C58   C123  S    
Cr12  O20   S    
Cr4   O48   S    
C34   H62   S    
C122  H67   S    
C96   C108  S    
C59   C60   S    
C113  H1    S    
C31   H49   S    
Cr6   O30   S    
C41   C49   A    
C109  C118  S    
Cr11  O19   S    
C51   C52   A    
C7    C119  S    
C30   C34   S    
Cr11  O39   S    
C92   O40   A    
Cr1   O17   S    
C66   C82   S    
C11   C27   A    
C68   C72   A    
C45   O29   A    
C28   H48   S    
C64   C97   S    
C121  H69   S    
C21   H41   S    
C111  H35   S    
C57   C121  S    
C24   H44   S    
C84   C88   S    
C79   C131  S    
C38   C90   S    
C18   C38   A    
C101  O5    A    
C76   C96   A    
C84   H24   S    
C44   C55   A    
Cr7   O19   S    
C66   C70   A    
C56   H8    S    
C87   H27   S    
Cr10  O18   S    
C88   H28   S    
C98   O46   A    
C22   C26   A    
C62   C99   S    
C72   C96   A    
C61   C65   A    
C107  O15   A    
C76   H16   S    
C80   C132  S    
Cr9   O37   S    
C2    O22   A    
C73   C77   A    
C19   C35   S    
C75   C79   A    
C106  O14   A    
C67   C83   S    
C111  C112  S    
Cr11  O11   S    
Cr3   O47   S    
C7    C8    S    
C53   C54   A    
Cr1   O45   S    
C121  C122  S    
C64   C68   A    
C1    O25   A    
C103  O11   A    
C42   C53   A    
C48   O32   A    
C81   H17   S    
C83   H23   S    
C91   O39   A    
C49   C57   S    
C41   C102  S    
C124  H70   S    
C89   O37   A    
C43   C104  S    
C52   C60   S    
C61   C77   A    
C126  H75   S    
C110  C114  S    
C100  O48   A    
C44   C52   A    
C129  N1    T    
C1    C12   S    
Cr5   O17   S    
C2    C11   S    
C108  O16   A    
C44   C103  S    
Cr3   O43   S    
C62   C66   A    
C34   H58   S    
C10   C14   A    
C88   H32   S    
C116  C120  S    
C73   H13   S    
C7    C116  S    
C36   H64   S    
Cr10  O10   S    
C86   H26   S    
Cr8   O32   S    
C114  H2    S    
C114  C118  S    
Cr2   O2    S    
C102  O10   A    
C19   C39   A    
C42   C50   A    
C113  C117  S    
C126  H76   S    
Cr8   O20   S    
C115  C119  S    
Cr11  O15   S    
C61   C100  S    
C99   O51   A    
C42   C101  S    
C112  C116  S    
C69   C85   S    
C6    H38   S    
Cr11  O35   S    
C21   C25   A    
C35   H59   S    
C36   H60   S    
Cr1   O21   S    
C127  H83   S    
C62   C78   A    
C24   C28   A    
C15   C31   S    
Cr5   O25   S    
C16   C32   S    
C89   O1    A    
C13   C17   A    
C124  H72   S    
C57   C58   S    
Cr2   O42   S    
C115  H3    S    
C126  H77   S    
C29   H53   S    
Cr9   O17   S    
C58   H12   S    
C125  H79   S    
C47   O31   A    
C59   H9    S    
C49   C50   A    
C132  N4    T    
C4    C9    S    
C92   O4    A    
C81   C85   S    
C57   H11   S    
C128  H82   S    
C83   C87   S    
C55   C56   A    
Cr3   O19   S    
C85   H29   S    
C74   C94   A    
Cr5   O49   S    
C9    C25   A    
C125  C126  S    
C15   C19   A    
Cr5   O5    S    
C85   H25   S    
C12   C28   A    
C13   C29   S    
C70   C94   A    
C27   H47   S    
C78   C130  S    
C98   O50   A    
Cr4   O44   S    
C25   H45   S    
C23   H43   S    
Cr10  O34   S    
C45   C117  S    
C2    O26   A    
C105  O13   A    
C46   C118  S    
Cr8   O8    S    
C39   C91   S    
Cr3   O23   S    
Cr6   O18   S    
C60   H10   S    
C64   C80   A    
C4    O24   A    
C3    O27   A    
C130  N2    T    
C29   H51   S    
C35   H63   S    
C33   H61   S    
C121  H68   S    
C123  H73   S    
Cr7   O31   S    
C46   O34   A    
C17   C33   S    
Cr5   O29   S    
C110  C117  S    
C83   H19   S    
C125  H78   S    
C68   C84   S    
C76   C80   A    
C75   H15   S    
C122  H65   S    
C82   C86   S    
C107  O43   A    
Cr10  O38   S    
Cr2   O18   S    
C50   C58   S    
C100  O52   A    
Cr9   O9    S    
C65   C81   S    
C95   C107  S    
C71   C87   S    
C31   C35   S    
Cr7   O51   S    
C32   C36   S    
Cr3   O3    S    
C74   H14   S    
C112  C119  S    
C116  H4    S    
Cr4   O4    S    
C37   C89   S    
C102  O6    A    
C109  C110  S    
C43   C51   A    
C65   C69   A    
C67   C71   A    
C104  O12   A    
C99   O47   A    
C97   O45   A    
C20   C36   S    
C21   C37   A    
C3    O23   A    
C106  O42   A    
C5    H37   S    
C127  C128  S    
C1    O21   A    
C60   C127  S    
Cr7   O7    S    
C8    H40   S    
C87   H31   S    
C5    C114  S    
C14   C18   A    
Cr12  O16   S    
C81   H21   S    
Cr2   O46   S    
C63   C79   A    
C30   H54   S    
C32   H50   S    
C23   C39   A    
C47   O35   A    
C112  H36   S    
Cr9   O33   S    
C90   O38   A    
C77   C129  S    
C8    C115  S    
C93   C105  S    
C108  O44   A    
C86   H30   S    
C23   C27   A    
C74   C78   A    
C105  O41   A    
Cr7   O27   S    
C91   O3    A    
C10   C26   A    
C47   C119  S    
C45   O33   A    
C14   C30   S    
Cr12  O36   S    
C22   H42   S    
C26   H46   S    
C63   C67   A    
C32   H56   S    
Cr8   O52   S    
C127  H84   S    
C131  N3    T    
C4    O28   A    
C5    C117  S    
C111  C120  S    
C124  H71   S    
C48   O36   A    
C6    C113  S    
Cr12  O40   S    
C123  C124  S    
C46   O30   A    
C17   C37   A    
C40   C92   S    
C18   C34   S    
Cr1   O1    S    
C82   H18   S    
C101  O9    A    
C84   H20   S    
Cr12  O12   S    
Cr10  O14   S    
C51   C59   S    
C70   C86   S    
C8    C120  S    
Cr4   O20   S    
C128  H81   S    
C94   C106  S    
Cr2   O22   S    
C30   H52   S    
Cr6   O26   S    
C90   O2    A    
C109  C113  S    
C3    C10   S    
C110  H34   S    
C54   H6    S    
Cr1   O41   S    
C24   C40   A    
C103  O7    A    
C41   C54   A    
C82   H22   S    
C43   C56   A    
C111  C115  S    
C31   H55   S    
Cr9   O13   S    
C6    C118  S    
