data_mof_unit_18108.cif
_audit_creation_date              2013-03-05T15:41:59-0500
_audit_creation_method            fapswitch 2.2
_symmetry_space_group_name_H-M    P1
_symmetry_Int_Tables_number       1
_space_group_crystal_system       triclinic
_cell_length_a                    11.232503
_cell_length_b                    10.978412
_cell_length_c                    18.823193
_cell_angle_alpha                 90.693845
_cell_angle_beta                  89.823495
_cell_angle_gamma                 118.859432
_cell_volume                      2032.74787396

loop_
_atom_site_label
_atom_site_type_symbol
_atom_site_description
_atom_site_fract_x
_atom_site_fract_y
_atom_site_fract_z
_atom_type_partial_charge
O1    O     O_R   0.910960 0.572410 0.171010 -0.511049
O2    O     O_R   0.427590 0.338550 0.171010 -0.508290
O3    O     O_R   0.661450 0.089040 0.171010 -0.513758
O4    O     O_R   0.572410 0.910960 0.828990 -0.536415
O5    O     O_R   0.338550 0.427590 0.828990 -0.539182
O6    O     O_R   0.089040 0.661450 0.828990 -0.539474
O7    O     O_R   0.639750 0.528530 0.175600 -0.514481
O8    O     O_R   0.471470 0.111220 0.175600 -0.504818
O9    O     O_R   0.888780 0.360250 0.175600 -0.507441
O10   O     O_R   0.528530 0.639750 0.824400 -0.520421
O11   O     O_R   0.111220 0.471470 0.824400 -0.521923
O12   O     O_R   0.360250 0.888780 0.824400 -0.522724
C1    C     C_R   0.520870 0.458707 0.147524 0.559365
C2    C     C_R   0.541544 0.059983 0.148024 0.567327
C3    C     C_R   0.939268 0.479156 0.147557 0.572401
C4    C     C_R   0.453170 0.520655 0.853904 0.524287
C5    C     C_R   0.066598 0.546079 0.854141 0.527443
C6    C     C_R   0.478231 0.933006 0.854180 0.524127
O13   O     O_R   0.909330 0.572400 0.331540 -0.515555
O14   O     O_R   0.427600 0.336930 0.331540 -0.541474
O15   O     O_R   0.663070 0.090670 0.331540 -0.508049
O16   O     O_R   0.572400 0.909330 0.668460 -0.502888
O17   O     O_R   0.336930 0.427600 0.668460 -0.474986
O18   O     O_R   0.090670 0.663070 0.668460 -0.488475
O19   O     O_R   0.638240 0.528520 0.324410 -0.493359
O20   O     O_R   0.471480 0.109720 0.324410 -0.458598
O21   O     O_R   0.890280 0.361760 0.324410 -0.462574
O22   O     O_R   0.528520 0.638240 0.675590 -0.477004
O23   O     O_R   0.109720 0.471480 0.675590 -0.455869
O24   O     O_R   0.361760 0.890280 0.675590 -0.461404
C7    C     C_R   0.519860 0.448935 0.357402 0.594853
C8    C     C_R   0.577024 0.120128 0.361481 0.563037
C9    C     C_R   0.890255 0.464349 0.361901 0.572550
C10   C     C_R   0.455850 0.512586 0.647922 0.591647
C11   C     C_R   0.060021 0.542695 0.647119 0.580070
C12   C     C_R   0.479443 0.938330 0.646936 0.569284
Cr1   Cr    Cr6+3 0.768550 0.541320 0.250660 1.043057
Cr2   Cr    Cr6+3 0.458680 0.227230 0.250660 1.054420
Cr3   Cr    Cr6+3 0.772770 0.231450 0.250660 1.062957
Cr4   Cr    Cr6+3 0.541320 0.768550 0.749340 1.023014
Cr5   Cr    Cr6+3 0.227230 0.458680 0.749340 1.043753
Cr6   Cr    Cr6+3 0.231450 0.772770 0.749340 1.043592
O25   O     O_3   0.666667 0.333333 0.250630 -0.314348
O26   O     O_3   0.333333 0.666667 0.749370 -0.257368
H1    H     H_    0.646266 0.925724 0.073207 0.138019
H2    H     H_    0.077171 0.717502 0.077280 0.137897
H3    H     H_    0.287849 0.360161 0.074586 0.142946
H4    H     H_    0.112161 0.741486 0.951291 0.151726
H5    H     H_    0.633071 0.892273 0.947265 0.155671
H6    H     H_    0.264011 0.372030 0.949078 0.153383
C13   C     C_R   0.492032 0.972746 0.929407 0.007113
C14   C     C_R   0.026126 0.519996 0.928801 0.008032
C15   C     C_R   0.479857 0.504668 0.928368 0.007247
C16   C     C_R   0.002961 0.495638 0.077200 0.000921
C17   C     C_R   0.494568 0.992771 0.078028 0.000930
C18   C     C_R   0.503459 0.504975 0.076911 0.001511
C19   C     C_R   0.405355 0.015159 0.963060 0.017889
C20   C     C_R   0.979620 0.387955 0.959515 0.020144
C21   C     C_R   0.608369 0.586302 0.960191 0.018962
C22   C     C_R   0.981587 0.378358 0.034515 0.023100
C23   C     C_R   0.395531 0.009742 0.038069 0.026191
C24   C     C_R   0.617345 0.598517 0.035282 0.025040
C25   C     C_R   0.575473 0.946602 0.043769 -0.145298
C26   C     C_R   0.053476 0.625408 0.045682 -0.142124
C27   C     C_R   0.377390 0.427229 0.044119 -0.142020
C28   C     C_R   0.067639 0.637771 0.972943 -0.137836
C29   C     C_R   0.572041 0.933869 0.970926 -0.134138
C30   C     C_R   0.365292 0.429563 0.971433 -0.137019
C31   C     C_R   0.327197 0.061270 0.924281 -0.095626
C32   C     C_R   0.933088 0.265548 0.917586 -0.095640
C33   C     C_R   0.727815 0.657524 0.919267 -0.096372
C34   C     C_R   0.961196 0.251627 0.063677 -0.089559
C35   C     C_R   0.288496 0.023735 0.070078 -0.084579
C36   C     C_R   0.740286 0.702982 0.065385 -0.086583
C37   C     C_R   0.229773 0.084980 0.958040 -0.132962
C38   C     C_R   0.904943 0.139979 0.948343 -0.130808
C39   C     C_R   0.849888 0.751900 0.951055 -0.130619
C40   C     C_R   0.921349 0.133964 0.021018 -0.139149
C41   C     C_R   0.209135 0.063988 0.030593 -0.139044
C42   C     C_R   0.855334 0.775795 0.023791 -0.137506
H7    H     H_    0.341770 0.081580 0.868006 0.130323
H8    H     H_    0.916635 0.265055 0.861009 0.126731
H9    H     H_    0.728768 0.639882 0.862701 0.130273
H10   H     H_    0.980686 0.242159 0.118867 0.144907
H11   H     H_    0.261533 0.999851 0.125226 0.144322
H12   H     H_    0.748870 0.734594 0.120445 0.143920
H13   H     H_    0.168988 0.118008 0.927656 0.117216
H14   H     H_    0.872161 0.047574 0.915550 0.116138
H15   H     H_    0.939974 0.808095 0.919000 0.118292
H16   H     H_    0.901797 0.037503 0.044973 0.103679
H17   H     H_    0.132340 0.080268 0.056867 0.103092
H18   H     H_    0.949298 0.850559 0.048518 0.103486
C43   C     C_R   0.500163 0.010587 0.578983 -0.032022
C44   C     C_R   0.002694 0.511042 0.575624 0.013093
C45   C     C_R   0.491744 0.459821 0.583085 0.056864
C46   C     C_R   0.953596 0.505919 0.431124 0.031436
C47   C     C_R   0.553951 0.072592 0.434773 0.001430
C48   C     C_R   0.491849 0.456306 0.434988 0.072116
C49   C     C_R   0.633285 0.097181 0.557075 0.064947
C50   C     C_R   0.945695 0.592778 0.549364 0.108479
C51   C     C_R   0.397614 0.335102 0.549042 0.086371
C52   C     C_R   0.936396 0.603656 0.475549 0.077072
C53   C     C_R   0.661926 0.106250 0.483895 0.044238
C54   C     C_R   0.389145 0.334971 0.473288 0.044421
C55   C     C_R   0.421399 0.985187 0.455893 0.197738
C56   C     C_R   0.029432 0.446464 0.454824 0.198729
C57   C     C_R   0.586898 0.566010 0.477541 0.183564
C58   C     C_R   0.056314 0.451500 0.526585 0.199359
C59   C     C_R   0.395742 0.952569 0.527430 0.197641
C60   C     C_R   0.609576 0.526535 0.545540 0.153609
C61   C     C_R   0.740497 0.146633 0.606614 -0.023919
C62   C     C_R   0.902921 0.669529 0.595085 0.012486
C63   C     C_R   0.314323 0.215169 0.587989 -0.030404
C64   C     C_R   0.909816 0.710680 0.450564 -0.021961
C65   C     C_R   0.791562 0.126885 0.464187 -0.063824
C66   C     C_R   0.275174 0.218698 0.442258 -0.019916
C67   C     C_R   0.859769 0.149172 0.587230 -0.097273
C68   C     C_R   0.882232 0.775509 0.569360 -0.099948
C69   C     C_R   0.202086 0.107638 0.555653 -0.053590
C70   C     C_R   0.889686 0.798154 0.497212 -0.107828
C71   C     C_R   0.883426 0.135232 0.515946 -0.105237
C72   C     C_R   0.184280 0.108652 0.483028 -0.078330
H19   H     H_    0.724134 0.158311 0.662488 0.124812
H20   H     H_    0.883796 0.647411 0.651103 0.134348
H21   H     H_    0.328435 0.209715 0.644513 0.124588
H22   H     H_    0.910186 0.737766 0.395995 0.178788
H23   H     H_    0.820602 0.121393 0.410551 0.198648
H24   H     H_    0.242540 0.211209 0.388166 0.208326
H25   H     H_    0.930716 0.157606 0.628112 0.149477
H26   H     H_    0.856147 0.836932 0.605123 0.125646
H27   H     H_    0.124119 0.028996 0.588011 0.153499
H28   H     H_    0.871217 0.878969 0.476556 0.144705
H29   H     H_    0.975275 0.136243 0.500166 0.170027
H30   H     H_    0.095915 0.026946 0.457553 0.143808
N1    N     N_R   0.320441 0.902211 0.403278 0.135582
O27   O     O_R   0.346221 0.828552 0.357275 -0.217473
O28   O     O_R   0.199282 0.889025 0.405147 -0.356328
N2    N     N_R   0.105605 0.411537 0.404913 0.111446
O29   O     O_R   0.203700 0.509793 0.369302 -0.218705
O30   O     O_R   0.064293 0.282791 0.386872 -0.419403
N3    N     N_R   0.600451 0.701814 0.467570 0.065407
O31   O     O_R   0.614105 0.781500 0.522148 -0.342863
O32   O     O_R   0.585506 0.741052 0.404793 -0.288888
N4    N     N_R   0.165980 0.430059 0.546013 0.098274
O33   O     O_R   0.142445 0.320904 0.581331 -0.401883
O34   O     O_R   0.288840 0.519003 0.527382 -0.275109
N5    N     N_R   0.271572 0.835159 0.543881 0.106648
O35   O     O_R   0.237687 0.721669 0.508427 -0.272221
O36   O     O_R   0.180177 0.852257 0.577207 -0.379702
N6    N     N_R   0.670668 0.436924 0.545972 0.000470
O37   O     O_R   0.677040 0.375322 0.487736 -0.471593
O38   O     O_R   0.685609 0.388509 0.606298 -0.427145

loop_
_geom_bond_atom_site_label_1
_geom_bond_atom_site_label_2
_geom_bond_distance
_ccdc_geom_bond_type
O19   C7    1.343027 A    
O7    C1    1.287017 A    
C49   C53   1.407315 A    
O20   C8    1.333354 A    
C65   C71   1.391073 A    
C46   C52   1.437113 A    
O18   Cr6   2.097799 S    
N5    O35   1.290839 A    
C33   C39   1.389350 A    
C15   C21   1.410404 A    
N1    O27   1.301968 A    
C16   C22   1.427834 A    
O21   C9    1.321946 A    
C39   H15   1.082232 S    
O8    Cr2   1.941831 S    
C68   H26   1.082706 S    
N5    O36   1.289120 A    
C38   C40   1.387511 A    
C62   H20   1.082321 S    
C43   C59   1.412078 A    
N3    O32   1.301318 A    
C64   H22   1.072238 S    
C56   N2    1.436935 S    
C63   H21   1.082797 S    
O22   Cr4   1.936228 S    
C20   C22   1.417968 A    
C18   C27   1.393070 A    
O9    Cr3   1.987972 S    
C65   H23   1.069964 S    
C8    C47   1.458574 S    
O10   Cr4   1.966552 S    
C7    C48   1.502412 S    
O2    C1    1.307824 A    
C15   C30   1.406567 A    
C67   C71   1.387998 A    
C4    C15   1.464447 S    
C72   H30   1.073680 S    
O5    C4    1.282068 A    
O12   Cr6   1.975265 S    
O13   Cr1   2.101460 S    
O19   Cr1   1.970524 S    
C54   C66   1.420745 A    
C12   C43   1.471050 S    
O4    Cr4   2.057547 S    
O21   Cr3   1.963754 S    
C17   C25   1.389871 A    
C69   H27   1.078384 S    
O5    Cr5   2.088957 S    
C31   C37   1.391325 A    
O1    C3    1.283176 A    
C57   N3    1.438308 S    
C67   H25   1.080100 S    
C43   C49   1.393980 A    
C24   C36   1.415491 A    
C41   H17   1.079195 S    
O1    Cr1   2.096105 S    
C55   N1    1.443788 S    
C1    C18   1.475392 S    
O4    C6    1.282104 A    
C27   C30   1.377109 A    
C2    C17   1.470962 S    
C49   C61   1.406428 A    
C36   C42   1.390570 A    
C59   N5    1.405072 S    
Cr6   O26   1.988311 S    
C44   C58   1.415674 A    
C5    C14   1.464162 S    
C6    C13   1.463054 S    
C33   H9    1.080857 S    
C35   C41   1.390912 A    
O15   C8    1.284658 A    
C25   C29   1.375319 A    
O18   C11   1.255039 A    
C61   H19   1.083804 S    
C3    C16   1.474275 S    
C10   C45   1.480837 S    
N4    O34   1.298244 A    
O13   C9    1.244977 A    
O3    Cr3   2.079252 S    
C20   C32   1.414488 A    
Cr3   O25   1.989556 S    
C23   C35   1.415509 A    
H1    C25   1.083343 S    
C40   H16   1.076776 S    
C38   H14   1.082311 S    
H2    C26   1.083251 S    
C26   C28   1.378672 A    
C42   H18   1.077874 S    
C53   C65   1.410509 A    
C52   C64   1.429591 A    
C47   C53   1.424240 A    
O14   Cr2   2.061124 S    
O2    Cr2   2.079163 S    
O15   Cr3   2.105191 S    
C44   C50   1.423631 A    
O17   C10   1.267566 A    
O16   Cr4   2.088348 S    
C50   C52   1.404505 A    
O7    Cr1   1.980073 S    
C63   C69   1.379901 A    
C36   H12   1.078658 S    
C35   H11   1.079832 S    
C34   H10   1.078858 S    
O3    C2    1.299405 A    
C14   C20   1.412772 A    
C13   C19   1.411619 A    
C37   H13   1.082191 S    
C50   C62   1.432534 A    
C51   C54   1.429335 A    
C46   C56   1.377232 A    
C32   C38   1.390327 A    
Cr5   O26   2.001789 S    
C18   C24   1.431865 A    
Cr1   O25   2.000224 S    
C37   C41   1.387815 A    
C66   H24   1.071912 S    
O12   C6    1.297318 A    
C9    C46   1.445737 S    
C58   N4    1.411119 S    
C14   C28   1.404985 A    
C19   C31   1.414826 A    
C66   C72   1.384854 A    
C11   C44   1.457557 S    
N1    O28   1.297670 A    
O6    C5    1.263915 A    
C55   C59   1.390751 A    
O11   C5    1.272402 A    
C21   C24   1.417464 A    
O8    C2    1.274036 A    
H5    C29   1.082693 S    
O23   Cr5   1.970825 S    
C70   H28   1.080704 S    
C69   C72   1.383155 A    
O20   Cr2   1.958503 S    
N4    O33   1.288530 A    
C60   N6    1.445922 S    
C45   C60   1.363331 A    
C19   C23   1.415607 A    
N2    O30   1.297933 A    
O16   C12   1.297063 A    
O23   C11   1.281955 A    
O17   Cr5   2.081883 S    
O24   C12   1.282932 A    
C61   C67   1.374761 A    
H4    C28   1.083037 S    
O9    C3    1.266696 A    
C47   C55   1.386377 A    
Cr2   O25   2.046411 S    
O10   C4    1.296446 A    
N3    O31   1.301516 A    
C62   C68   1.384740 A    
C39   C42   1.386858 A    
C13   C29   1.408287 A    
C56   C58   1.379654 A    
C48   C54   1.469596 A    
C17   C23   1.430593 A    
C57   C60   1.418804 A    
O11   Cr5   1.968356 S    
N6    O38   1.304603 A    
C51   C63   1.405838 A    
C32   H8    1.080944 S    
C68   C70   1.378584 A    
C31   H7    1.080734 S    
N2    O29   1.300991 A    
C48   C57   1.404483 A    
O22   C10   1.318613 A    
Cr4   O26   2.046091 S    
C16   C26   1.393436 A    
O6    Cr6   2.107754 S    
C34   C40   1.390211 A    
C22   C34   1.414083 A    
N6    O37   1.300921 A    
O24   Cr6   1.985421 S    
C71   H29   1.067649 S    
H6    C30   1.083091 S    
H3    C27   1.083692 S    
C64   C70   1.390077 A    
C45   C51   1.410217 A    
C21   C33   1.414358 A    
O14   C7    1.257557 A    
