data_mof_unit_39596.cif
_audit_creation_date              2012-10-26T20:18:16-0400
_audit_creation_method            fapswitch 2.2
_symmetry_space_group_name_H-M    P1
_symmetry_Int_Tables_number       1
_space_group_crystal_system       triclinic
_cell_length_a                    23.500942
_cell_length_b                    8.72241
_cell_length_c                    7.467111
_cell_angle_alpha                 103.392214
_cell_angle_beta                  94.373798
_cell_angle_gamma                 92.637081
_cell_volume                      1481.48360968

loop_
_atom_site_label
_atom_site_type_symbol
_atom_type_description
_atom_site_fract_x
_atom_site_fract_y
_atom_site_fract_z
_atom_type_partial_charge
C1    C     C_R   0.498243 0.199972 0.453256 0.555641
C2    C     C_R   0.706031 0.565459 0.666652 0.357575
C3    C     C_R   0.244016 0.452801 0.658969 -0.034336
C4    C     C_R   0.764884 0.564063 0.670520 -0.032552
C5    C     C_R   0.209886 0.500924 0.523240 0.204822
C6    C     C_R   0.791726 0.505324 0.510490 0.195419
C7    C     C_2   0.497174 0.032500 0.426984 0.352874
C8    C     C_2   0.502822 0.967498 0.573016 0.355902
C9    C     C_R   0.391052 0.498796 0.502190 0.539421
C10   C     C_R   0.609071 0.502810 0.498727 0.538000
C11   C     C_R   0.885695 0.640416 0.595088 0.372542
C12   C     C_R   0.501756 0.800028 0.546744 0.554204
C13   C     C_R   0.117207 0.362614 0.479866 0.378531
C14   C     C_R   0.877846 0.361312 0.478221 0.384096
C15   C     C_R   0.126055 0.640533 0.610633 0.376297
C16   C     C_R   0.937464 0.358353 0.465266 0.029745
C17   C     C_R   0.066173 0.645027 0.623167 0.031714
C18   C     C_R   0.971624 0.500215 0.542367 -0.046703
C19   C     C_R   0.031901 0.502324 0.548172 -0.048480
C20   C     C_R   0.945424 0.640664 0.611711 0.003921
C21   C     C_R   0.057758 0.360971 0.477730 0.002332
C22   C     C_R   0.964326 0.220701 0.379906 0.000975
C23   C     C_R   0.234908 0.546893 0.375719 0.046972
C24   C     C_R   0.038770 0.784605 0.703001 0.000213
C25   C     C_R   0.023993 0.222432 0.396211 -0.124785
C26   C     C_R   0.978929 0.779294 0.694165 -0.134584
C27   C     C_3   0.932775 0.077835 0.248460 -0.249456
C28   C     C_3   0.926017 0.940183 0.340275 -0.380711
C29   C     C_3   0.070051 0.940690 0.804186 -0.243796
C30   C     C_3   0.096814 0.931569 0.994235 -0.387839
C31   C     C_3   0.199796 0.604207 0.227973 -0.244283
C32   C     C_3   0.162807 0.470788 0.095148 -0.418139
C33   C     C_3   0.784777 0.398035 0.156859 -0.229701
C34   C     C_R   0.758331 0.455192 0.338014 0.045510
C35   C     C_3   0.826349 0.522196 0.114664 -0.415106
C36   C     C_R   0.294435 0.543589 0.369630 -0.165184
C37   C     C_R   0.698323 0.457080 0.335295 -0.150567
C38   C     C_R   0.328663 0.497634 0.508288 0.008291
C39   C     C_R   0.671867 0.508718 0.499340 0.007327
C40   C     C_R   0.302866 0.451920 0.653088 0.370362
Cu1   Cu    Cu3+1 0.506340 0.517380 0.684380 1.331148
Cu2   Cu    Cu3+1 0.493660 0.482620 0.315620 1.281843
F1    F     F_    0.334197 0.403244 0.787364 -0.562990
F2    F     F_    0.682943 0.624675 0.827706 -0.583741
F3    F     F_    0.490157 0.944615 0.249268 -0.565426
F4    F     F_    0.509848 0.055378 0.750731 -0.564003
F5    F     F_    0.445528 0.355385 0.924966 -0.441803
F6    F     F_    0.555265 0.642350 0.074612 -0.471403
H1    H     H_    0.044091 0.115961 0.334767 0.151581
H2    H     H_    0.890721 0.105483 0.190559 0.196609
H3    H     H_    0.957211 0.039736 0.125614 0.122193
H4    H     H_    0.062925 0.903185 0.079498 0.130235
H5    H     H_    0.128199 0.839551 0.983876 0.196571
H6    H     H_    0.118992 0.047307 0.064771 0.185404
H7    H     H_    0.101829 0.981187 0.720066 0.218469
H8    H     H_    0.040013 0.036832 0.827699 0.115735
H9    H     H_    0.187808 0.365674 0.051106 0.185653
H10   H     H_    0.124802 0.437211 0.159716 0.167066
H11   H     H_    0.147097 0.511382 0.970953 0.133266
H12   H     H_    0.958145 0.885389 0.753243 0.152046
H13   H     H_    0.172358 0.698041 0.292680 0.184642
H14   H     H_    0.228442 0.658766 0.144793 0.156944
H15   H     H_    0.805323 0.634479 0.120579 0.191166
H16   H     H_    0.865405 0.545471 0.211556 0.155940
H17   H     H_    0.840695 0.477158 0.975041 0.137640
H18   H     H_    0.807001 0.288919 0.157347 0.186816
H19   H     H_    0.750896 0.365842 0.039779 0.168356
H20   H     H_    0.314296 0.579402 0.258146 0.176151
H21   H     H_    0.672111 0.415860 0.205592 0.181058
H22   H     H_    0.224628 0.415712 0.769929 0.138365
H23   H     H_    0.790124 0.611569 0.799614 0.152811
H24   H     H_    0.904433 0.976743 0.468961 0.237188
H25   H     H_    0.899965 0.841003 0.244649 0.151642
H26   H     H_    0.968615 0.898663 0.373602 0.133722
N1    N     N_R   0.853092 0.502231 0.526285 -0.392327
N2    N     N_R   0.149469 0.501695 0.537512 -0.393606
N3    N     N_2   0.484110 0.456420 0.038520 0.208792
N4    N     N_2   0.515890 0.543580 0.961480 0.205575
O1    O     O_R   0.504120 0.286130 0.619770 -0.462628
O2    O     O_2   0.142755 0.227061 0.418963 -0.517034
O3    O     O_2   0.844970 0.225772 0.450969 -0.505749
O4    O     O_2   0.161076 0.772305 0.667318 -0.512099
O5    O     O_R   0.495880 0.713870 0.380230 -0.463049
O6    O     O_R   0.493410 0.256770 0.308360 -0.451991
O7    O     O_R   0.506590 0.743230 0.691640 -0.449072
O8    O     O_R   0.423230 0.514630 0.655730 -0.433733
O9    O     O_R   0.576770 0.485370 0.344270 -0.500991
O10   O     O_R   0.412530 0.485280 0.344320 -0.511115
O11   O     O_R   0.587470 0.514720 0.655680 -0.442516
O12   O     O_2   0.860273 0.777524 0.646400 -0.515814

loop_
_geom_bond_atom_site_label_1
_geom_bond_atom_site_label_2
_ccdc_geom_bond_type
Cu1   O11   S    
C37   H21   S    
C34   C37   A    
Cu1   Cu2   S    
C31   H13   S    
C32   H10   S    
C28   H26   S    
C7    C8    D    
N3    N4    D    
C1    O6    A    
Cu1   O8    S    
C30   H6    S    
C12   O7    A    
C7    F3    S    
C19   C21   A    
C24   C26   A    
C9    O10   A    
C35   H17   S    
C18   C19   A    
F6    N4    S    
C24   C29   S    
C30   H4    S    
C33   C35   S    
C2    C39   A    
C40   F1    S    
C10   O11   A    
C2    F2    S    
C22   C25   A    
C35   H16   S    
C27   H2    S    
C15   N2    A    
C13   O2    S    
C31   H14   S    
C28   H24   S    
C32   H9    S    
C28   H25   S    
C27   H3    S    
C33   H18   S    
C15   O4    S    
C8    F4    S    
C11   C20   A    
C30   H5    S    
C10   O9    A    
C17   C24   A    
C6    N1    S    
C3    H22   S    
Cu2   O6    S    
C4    C6    A    
Cu1   N4    S    
C29   H7    S    
C6    C34   A    
C12   O5    A    
C10   C39   S    
C23   C31   S    
C2    C4    A    
C29   C30   S    
C9    O8    A    
C31   C32   S    
C5    C23   A    
C13   N2    A    
C8    C12   S    
C33   C34   S    
C13   C21   A    
C3    C40   A    
C22   C27   S    
C1    O1    A    
C14   C16   A    
Cu2   O10   S    
F5    N3    S    
C33   H19   S    
C15   C17   A    
C21   C25   A    
C16   C22   A    
C1    C7    S    
Cu2   O5    S    
C3    C5    A    
Cu1   O1    S    
C36   H20   S    
C29   H8    S    
Cu1   O7    S    
C14   O3    S    
C14   N1    A    
C5    N2    S    
C36   C38   A    
C37   C39   A    
C11   N1    A    
C38   C40   A    
C11   O12   S    
C20   C26   A    
C9    C38   S    
C17   C19   A    
C18   C20   A    
C25   H1    S    
Cu2   N3    S    
C16   C18   A    
C23   C36   A    
C27   C28   S    
C35   H15   S    
Cu2   O9    S    
C32   H11   S    
C26   H12   S    
C4    H23   S    
