data_mof_unit_50760.cif
_audit_creation_date              2012-12-10T21:26:03-0500
_audit_creation_method            fapswitch 2.2
_symmetry_space_group_name_H-M    P1
_symmetry_Int_Tables_number       1
_space_group_crystal_system       triclinic
_cell_length_a                    8.643635
_cell_length_b                    16.187397
_cell_length_c                    16.886872
_cell_angle_alpha                 88.497798
_cell_angle_beta                  91.937797
_cell_angle_gamma                 101.482361
_cell_volume                      2313.70588694

loop_
_atom_site_label
_atom_site_type_symbol
_atom_type_description
_atom_site_fract_x
_atom_site_fract_y
_atom_site_fract_z
_atom_type_partial_charge
C1    C     C_R   0.495973 0.489124 0.652722 0.892753
C2    C     C_R   0.497307 0.510322 0.347179 0.902656
C3    C     C_R   0.414445 0.754385 0.465314 -0.043347
C4    C     C_R   0.585607 0.245604 0.534635 -0.042761
C5    C     C_R   0.419475 0.842052 0.466485 -0.325267
C6    C     C_R   0.580621 0.157944 0.533403 -0.325254
C7    C     C_R   0.532650 0.894158 0.515075 0.187705
C8    C     C_R   0.467487 0.105861 0.484772 0.187847
C9    C     C_R   0.636462 0.855989 0.561684 0.401803
C10   C     C_R   0.363662 0.144046 0.438192 0.401780
C11   C     C_R   0.632125 0.768128 0.556935 -0.020001
C12   C     C_R   0.367869 0.231888 0.443046 -0.017271
C13   C     C_R   0.800592 0.521688 0.501752 0.945643
C14   C     C_R   0.199414 0.478308 0.498273 0.942675
C15   C     C_2   0.964274 0.528970 0.516326 -0.231066
C16   C     C_2   0.035743 0.471005 0.483737 -0.232245
C17   C     C_R   0.473472 0.481517 0.737500 -0.021931
C18   C     C_R   0.475060 0.514211 0.261740 -0.021652
C19   C     C_R   0.447375 0.551342 0.778462 -0.179882
C20   C     C_R   0.439962 0.439060 0.219685 -0.205987
C21   C     C_R   0.418008 0.544064 0.858435 -0.156904
C22   C     C_R   0.410785 0.441339 0.138891 -0.149545
C23   C     C_R   0.416190 0.466607 0.898880 0.325578
C24   C     C_R   0.418380 0.519397 0.098681 0.327806
C25   C     C_R   0.438752 0.396619 0.857589 -0.187513
C26   C     C_R   0.449649 0.594084 0.140957 -0.186892
C27   C     C_R   0.467487 0.403798 0.777114 -0.212505
C28   C     C_R   0.478101 0.591786 0.222278 -0.210352
H1    H     H_    0.434370 0.378270 0.249041 0.155364
H2    H     H_    0.448715 0.611637 0.748797 0.169997
H3    H     H_    0.385516 0.382138 0.108047 0.150312
H4    H     H_    0.399780 0.599455 0.888523 0.151211
H5    H     H_    0.438024 0.337009 0.888412 0.142502
H6    H     H_    0.456039 0.654278 0.110363 0.141740
H7    H     H_    0.485679 0.348890 0.746170 0.165265
H8    H     H_    0.503055 0.650470 0.254004 0.165492
H9    H     H_    0.673107 0.284833 0.571969 0.155494
H10   H     H_    0.326960 0.715140 0.427983 0.156137
H11   H     H_    0.664431 0.131601 0.570215 0.193996
H12   H     H_    0.335686 0.868384 0.429648 0.194108
N1    N     N_2   0.406095 0.458290 0.981816 -0.202758
N2    N     N_2   0.409457 0.526130 0.015443 -0.203128
N3    N     N_R   0.519180 0.718290 0.509780 -0.146904
N4    N     N_R   0.480820 0.281710 0.490220 -0.146371
N5    N     N_2   0.549008 0.984183 0.520077 -0.134699
N6    N     N_2   0.451149 0.015840 0.479732 -0.134632
O1    O     O_R   0.493140 0.422050 0.612640 -0.623854
O2    O     O_R   0.506860 0.577950 0.387360 -0.625449
O3    O     O_R   0.505450 0.562230 0.618920 -0.641269
O4    O     O_R   0.494550 0.437770 0.381080 -0.634850
O5    O     O_R   0.723530 0.446300 0.497600 -0.583875
O6    O     O_R   0.276470 0.553700 0.502400 -0.585196
O7    O     O_R   0.735850 0.586490 0.503880 -0.663895
O8    O     O_R   0.264150 0.413510 0.496120 -0.665806
Zn1   Zn    Zn3+2 0.491780 0.406400 0.495810 0.959972
Zn2   Zn    Zn3+2 0.508220 0.593600 0.504190 0.957124
C29   C     C_2   0.033402 0.586332 0.581824 0.385249
H13   H     H_    0.006197 0.648578 0.584200 0.116660
O9    O     O_2   0.114981 0.563049 0.635062 -0.560424
C30   C     C_2   0.966634 0.413611 0.418266 0.388399
H14   H     H_    0.993751 0.351340 0.415951 0.116503
O10   O     O_2   0.885161 0.436892 0.364983 -0.553338
O11   O     O_3   0.747407 0.906080 0.610046 -0.547549
C31   C     C_3   0.680931 0.910957 0.684630 0.128721
H15   H     H_    0.648540 0.847301 0.713257 0.129714
H16   H     H_    0.574114 0.939741 0.678947 0.132865
C32   C     C_3   0.801654 0.966029 0.738256 -0.763175
H17   H     H_    0.834631 0.030445 0.711801 0.250497
H18   H     H_    0.750888 0.970288 0.797196 0.192225
H19   H     H_    0.909131 0.938427 0.746013 0.272360
O12   O     O_3   0.252862 0.093983 0.389740 -0.547885
C33   C     C_3   0.319371 0.089428 0.315110 0.130065
H20   H     H_    0.426204 0.060649 0.320673 0.133488
H21   H     H_    0.351743 0.153193 0.286690 0.129953
C34   C     C_3   0.198694 0.034558 0.261310 -0.764081
H22   H     H_    0.091210 0.062172 0.253677 0.272640
H23   H     H_    0.249499 0.030544 0.202337 0.192264
H24   H     H_    0.165722 0.970040 0.287542 0.250650
C35   C     C_2   0.751218 0.731382 0.603606 0.400796
H25   H     H_    0.729092 0.666270 0.621797 0.103239
O13   O     O_2   0.878913 0.774432 0.622914 -0.550061
C36   C     C_2   0.248620 0.268631 0.396480 0.397314
H26   H     H_    0.270341 0.333838 0.378667 0.099993
O14   O     O_2   0.121213 0.225490 0.376858 -0.548976

loop_
_geom_bond_atom_site_label_1
_geom_bond_atom_site_label_2
_ccdc_geom_bond_type
C2    C18   S    
C24   N2    S    
N1    N2    D    
N5    N6    D    
C3    N3    A    
C7    N5    S    
C19   C21   A    
C24   C26   A    
C29   O9    D    
C15   C16   D    
C30   O10   D    
C16   C30   S    
C2    O4    A    
C13   O5    A    
C26   H6    S    
C14   O6    A    
C3    H10   S    
C5    C7    A    
C11   N3    A    
C14   C16   S    
O5    Zn1   S    
C10   O12   S    
C15   C29   S    
C33   C34   S    
C10   C12   A    
C13   O7    A    
C20   H1    S    
C21   H4    S    
C22   H3    S    
C32   H17   S    
C17   C27   A    
C31   C32   S    
C18   C28   A    
C33   H21   S    
C35   O13   D    
C1    O1    A    
C6    C8    A    
C4    N4    A    
C27   H7    S    
O11   C31   S    
C30   H14   S    
C32   H18   S    
C31   H16   S    
C34   H22   S    
C34   H23   S    
C12   C36   S    
C9    C11   A    
C11   C35   S    
C4    C6    A    
C14   O8    A    
C20   C22   A    
C36   O14   D    
C13   C15   S    
C22   C24   A    
O1    Zn1   S    
O7    Zn2   S    
O2    Zn2   S    
O8    Zn1   S    
C9    O11   S    
C26   C28   A    
C33   H20   S    
C3    C5    A    
C25   C27   A    
O3    Zn2   S    
C1    C17   S    
O4    Zn1   S    
C23   N1    S    
C32   H19   S    
C2    O2    A    
C31   H15   S    
C21   C23   A    
O12   C33   S    
C12   N4    A    
N4    Zn1   S    
C29   H13   S    
C17   C19   A    
C18   C20   A    
C23   C25   A    
C34   H24   S    
C8    N6    S    
C35   H25   S    
C7    C9    A    
N3    Zn2   S    
C4    H9    S    
C28   H8    S    
C8    C10   A    
C36   H26   S    
C5    H12   S    
C6    H11   S    
C19   H2    S    
C1    O3    A    
O6    Zn2   S    
C25   H5    S    
