data_mof_unit_33831.cif
_audit_creation_date              2012-12-10T17:58:19-0500
_audit_creation_method            fapswitch 2.2
_symmetry_space_group_name_H-M    P1
_symmetry_Int_Tables_number       1
_space_group_crystal_system       triclinic
_cell_length_a                    9.586779
_cell_length_b                    10.836225
_cell_length_c                    15.430834
_cell_angle_alpha                 86.254665
_cell_angle_beta                  75.013256
_cell_angle_gamma                 89.04391
_cell_volume                      1545.19135464

loop_
_atom_site_label
_atom_site_type_symbol
_atom_type_description
_atom_site_fract_x
_atom_site_fract_y
_atom_site_fract_z
_atom_type_partial_charge
C1    C     C_R   0.001913 0.262712 0.496672 0.816626
C2    C     C_R   0.998087 0.737288 0.503328 0.816625
C3    C     C_R   0.581521 0.456511 0.095177 -0.168933
C4    C     C_R   0.418479 0.543488 0.904823 -0.168934
C5    C     C_R   0.725646 0.441779 0.051010 -0.211281
C6    C     C_R   0.274354 0.558221 0.948990 -0.211281
C7    C     C_R   0.899233 0.066255 0.462504 -0.006367
C8    C     C_R   0.100767 0.933745 0.537497 -0.006368
C9    C     C_R   0.895373 0.938021 0.471223 -0.221010
C10   C     C_R   0.104627 0.061979 0.528778 -0.221005
C11   C     C_R   0.996507 0.871192 0.506386 -0.089952
C12   C     C_R   0.003493 0.128808 0.493614 -0.089953
C13   C     C_R   0.554361 0.424388 0.558810 -0.141125
C14   C     C_R   0.445639 0.575612 0.441190 -0.141125
C15   C     C_R   0.406450 0.422449 0.560137 0.490696
C16   C     C_R   0.593549 0.577551 0.439863 0.490696
C17   C     C_R   0.918514 0.500649 0.672165 0.816447
C18   C     C_R   0.081486 0.499352 0.327835 0.816449
C19   C     C_R   0.872475 0.495337 0.770962 -0.068583
C20   C     C_R   0.127525 0.504664 0.229037 -0.068584
C21   C     C_R   0.919017 0.444679 0.915474 -0.215452
C22   C     C_R   0.080982 0.555322 0.084526 -0.215453
C23   C     C_R   0.968943 0.463672 0.822719 -0.185668
C24   C     C_R   0.031057 0.536328 0.177280 -0.185661
C25   C     C_R   0.726297 0.513792 0.813517 -0.229777
C26   C     C_R   0.273703 0.486209 0.186483 -0.229779
C27   C     C_R   0.672549 0.495982 0.907477 0.098458
C28   C     C_R   0.327451 0.504018 0.092523 0.098458
C29   C     C_R   0.772405 0.460836 0.958169 0.158803
C30   C     C_R   0.227594 0.539165 0.041831 0.158803
C31   C     C_R   0.523162 0.510161 0.952240 0.059183
C32   C     C_R   0.476838 0.489840 0.047760 0.059183
Cu1   Cu    Cu3+1 0.140660 0.500020 0.500000 1.012342
Cu2   Cu    Cu3+1 0.859340 0.499980 0.500000 1.012343
H1    H     H_    0.801586 0.415308 0.090071 0.139402
H2    H     H_    0.198413 0.584691 0.909929 0.139403
H3    H     H_    0.343238 0.459170 0.228894 0.148084
H4    H     H_    0.656762 0.540832 0.771106 0.148083
H5    H     H_    0.917966 0.549499 0.208489 0.221702
H6    H     H_    0.082034 0.450502 0.791511 0.221700
H7    H     H_    0.995047 0.415328 0.953772 0.152937
H8    H     H_    0.004953 0.584673 0.046228 0.152938
H9    H     H_    0.556882 0.440850 0.166969 0.148201
H10   H     H_    0.443117 0.559148 0.833030 0.148203
H11   H     H_    0.815760 0.890432 0.447277 0.215384
H12   H     H_    0.184239 0.109568 0.552723 0.215387
H13   H     H_    0.595587 0.364485 0.605434 0.209687
H14   H     H_    0.404413 0.635515 0.394566 0.209687
N1    N     N_R   0.352080 0.500030 0.499980 -0.259861
N2    N     N_R   0.647920 0.499970 0.500020 -0.259861
O1    O     O_R   0.118740 0.319660 0.500000 -0.534582
O2    O     O_R   0.881260 0.680340 0.500000 -0.534583
O3    O     O_R   0.881170 0.319630 0.500010 -0.580785
O4    O     O_R   0.118830 0.680370 0.499990 -0.580785
O5    O     O_R   0.055570 0.500030 0.629830 -0.518197
O6    O     O_R   0.944430 0.499970 0.370170 -0.518196
O7    O     O_R   0.818000 0.500000 0.629840 -0.602913
O8    O     O_R   0.182000 0.500000 0.370160 -0.602913
C33   C     C_R   0.796305 0.131085 0.417923 0.116236
C34   C     C_R   0.646864 0.118055 0.454961 -0.088487
C35   C     C_R   0.549749 0.182779 0.415051 -0.110440
C36   C     C_R   0.601038 0.261120 0.338191 -0.121876
C37   C     C_R   0.749551 0.273633 0.300345 -0.090535
C38   C     C_R   0.847065 0.208231 0.339502 -0.098027
H15   H     H_    0.606026 0.059848 0.515684 0.150151
H16   H     H_    0.434691 0.173504 0.444274 0.151402
H17   H     H_    0.525572 0.312252 0.308240 0.123510
H18   H     H_    0.789216 0.334481 0.240995 0.123630
H19   H     H_    0.961933 0.219274 0.309769 0.098529
C39   C     C_R   0.203696 0.868914 0.582077 0.116236
C40   C     C_R   0.152937 0.791768 0.660498 -0.098025
C41   C     C_R   0.250452 0.726367 0.699654 -0.090535
C42   C     C_R   0.398964 0.738881 0.661808 -0.121877
C43   C     C_R   0.450253 0.817223 0.584948 -0.110438
C44   C     C_R   0.353136 0.881946 0.545038 -0.088487
H20   H     H_    0.038069 0.780725 0.690231 0.098530
H21   H     H_    0.210788 0.665519 0.759004 0.123631
H22   H     H_    0.474432 0.687749 0.691758 0.123510
H23   H     H_    0.565310 0.826498 0.555724 0.151402
H24   H     H_    0.393973 0.940153 0.484315 0.150151
S1    S     S_3+6 0.310068 0.314243 0.646699 -0.031108
O9    O     O_2   0.386931 0.192303 0.632168 -0.355809
O10   O     O_2   0.327014 0.357415 0.734041 -0.350468
O11   O     O_3   0.134538 0.286681 0.659047 -0.530675
H25   H     H_    0.106725 0.225072 0.710833 0.360495
S2    S     S_3+6 0.689931 0.685757 0.353301 -0.031108
O12   O     O_2   0.672985 0.642586 0.265959 -0.350463
O13   O     O_2   0.613070 0.807697 0.367833 -0.355813
O14   O     O_3   0.865462 0.713318 0.340953 -0.530674
H26   H     H_    0.893272 0.774936 0.289172 0.360493

loop_
_geom_bond_atom_site_label_1
_geom_bond_atom_site_label_2
_ccdc_geom_bond_type
Cu1   O5    S    
Cu2   O6    S    
Cu1   O8    S    
C27   C29   A    
C42   C43   A    
S1    O9    D    
C15   S1    S    
C9    H11   S    
C3    H9    S    
C33   C38   A    
C41   H21   S    
C36   H17   S    
C22   C24   A    
C16   N2    A    
C40   H20   S    
S2    O13   D    
C14   N1    A    
Cu1   N1    S    
C23   H6    S    
C24   H5    S    
C1    O3    A    
C35   H16   S    
C18   O8    A    
C20   C24   A    
C10   H12   S    
Cu2   O7    S    
C42   H22   S    
C39   C40   A    
C44   H24   S    
C17   O5    A    
C18   O6    A    
C33   C34   A    
C16   S2    S    
C3    C32   A    
C1    C12   S    
C2    C11   S    
C10   C12   A    
C7    C33   S    
C26   C28   A    
S1    O10   D    
C5    C29   A    
C7    C12   A    
Cu2   N2    S    
C43   C44   A    
C27   C31   A    
C28   C32   A    
O11   H25   S    
C4    C6    A    
C2    O4    A    
C13   H13   S    
S2    O12   D    
C14   H14   S    
C4    H10   S    
C21   C29   A    
C13   N2    A    
C34   C35   A    
C19   C23   A    
C36   C37   A    
C25   H4    S    
C9    C11   A    
C31   C32   A    
Cu1   Cu2   S    
C38   H19   S    
C1    O1    A    
C2    O2    A    
C21   H7    S    
C6    C30   A    
C34   H15   S    
C43   H23   S    
C13   C15   A    
C14   C16   A    
C25   C27   A    
S1    O11   S    
Cu1   O4    S    
C7    C9    A    
C37   H18   S    
C22   C30   A    
C8    C39   S    
C41   C42   A    
C3    C5    A    
S2    O14   S    
C26   H3    S    
Cu1   O1    S    
Cu2   O2    S    
C21   C23   A    
C40   C41   A    
C22   H8    S    
C20   C26   A    
C8    C11   A    
C5    H1    S    
C28   C30   A    
C17   C19   S    
C6    H2    S    
C18   C20   S    
C15   N1    A    
C35   C36   A    
C19   C25   A    
C4    C31   A    
C37   C38   A    
Cu2   O3    S    
C8    C10   A    
C39   C44   A    
O14   H26   S    
C17   O7    A    
