data_mof_unit_8884.cif
_audit_creation_date              2012-12-11T14:35:58-0500
_audit_creation_method            fapswitch 2.2
_symmetry_space_group_name_H-M    P1
_symmetry_Int_Tables_number       1
_space_group_crystal_system       triclinic
_cell_length_a                    13.477656
_cell_length_b                    13.485299
_cell_length_c                    27.511476
_cell_angle_alpha                 90.78962
_cell_angle_beta                  90.137749
_cell_angle_gamma                 60.064928
_cell_volume                      4332.67595886

loop_
_atom_site_label
_atom_site_type_symbol
_atom_type_description
_atom_site_fract_x
_atom_site_fract_y
_atom_site_fract_z
_atom_type_partial_charge
C1    C     C_R   0.620197 0.101399 0.570242 0.545496
C2    C     C_1   0.630193 0.733801 0.616660 -0.004898
C3    C     C_3   0.709308 0.560796 0.768041 -0.091524
C4    C     C_3   0.677567 0.657436 0.806099 0.012390
C5    C     C_3   0.596606 0.639593 0.740610 -0.133145
C6    C     C_3   0.660074 0.687432 0.711183 0.087816
C7    C     C_3   0.564961 0.735458 0.779468 -0.120180
C8    C     C_3   0.628418 0.783639 0.749401 -0.137665
C9    C     C_1   0.686919 0.635927 0.858382 -0.051799
C10   C     C_1   0.647467 0.707796 0.658807 -0.012936
C11   C     C_3   0.089421 0.136664 0.738159 -0.087625
C12   C     C_R   0.599536 0.779785 0.568825 0.543640
C13   C     C_3   0.180167 0.062915 0.775832 0.271167
C14   C     C_1   0.097881 0.200628 0.902064 -0.006272
C15   C     C_1   0.230751 0.137603 0.617771 -0.005738
C16   C     C_3   0.058648 0.244142 0.770175 -0.129774
C17   C     C_3   0.149683 0.167884 0.807532 0.085459
C18   C     C_3   0.150801 0.260378 0.743558 -0.111815
C19   C     C_3   0.181600 0.153017 0.712414 0.017202
C20   C     C_3   0.241475 0.184157 0.781483 -0.140246
C21   C     C_3   0.273285 0.076345 0.749529 -0.101814
C22   C     C_1   0.126400 0.181091 0.859945 -0.014833
C23   C     C_R   0.277930 0.121801 0.569752 0.546145
C24   C     C_1   0.203610 0.145941 0.659983 -0.045395
C25   C     C_3   0.629354 0.277054 0.740055 -0.100933
C26   C     C_3   0.555045 0.258995 0.777983 -0.101390
C27   C     C_1   0.691412 0.207775 0.902928 -0.010361
C28   C     C_1   0.635307 0.133564 0.618412 -0.011493
C29   C     C_3   0.737337 0.204262 0.771066 -0.097010
C30   C     C_3   0.662871 0.185935 0.808164 0.051189
C31   C     C_3   0.758491 0.094490 0.743499 -0.093406
C32   C     C_3   0.650752 0.167435 0.713256 0.049794
C33   C     C_3   0.684266 0.076377 0.781314 -0.098435
C34   C     C_R   0.622538 0.099707 0.431333 0.545502
C35   C     C_3   0.576256 0.149105 0.750329 -0.104458
C36   C     C_1   0.674544 0.196684 0.860679 -0.052244
C37   C     C_1   0.643656 0.152505 0.660725 -0.053664
C38   C     C_R   0.736265 0.701494 0.359876 -0.129806
C39   C     C_R   0.748628 0.683095 0.309590 0.018001
C40   C     C_R   0.764106 0.660929 0.207864 0.014331
C41   C     C_R   0.854636 0.656684 0.234789 -0.128741
C42   C     C_R   0.846623 0.668419 0.285395 -0.108052
C43   C     C_R   0.774139 0.640509 0.157718 -0.135440
C44   C     C_R   0.684735 0.638649 0.132145 -0.004831
C45   C     C_R   0.602024 0.775456 0.430444 0.547314
C46   C     C_R   0.553504 0.706269 0.356525 -0.128387
C47   C     C_R   0.561112 0.695391 0.306464 0.013067
C48   C     C_R   0.658240 0.685293 0.282684 0.061716
C49   C     C_R   0.469895 0.701039 0.279788 -0.130215
C50   C     C_R   0.474083 0.698177 0.229370 -0.130502
C51   C     C_R   0.571284 0.685549 0.205386 0.014389
C52   C     C_R   0.664302 0.678137 0.231953 0.063449
C53   C     C_R   0.580136 0.671728 0.155392 -0.129192
C54   C     C_R   0.635902 0.718829 0.382917 -0.005993
C55   C     C_R   0.214299 0.055935 0.358163 -0.131056
C56   C     C_R   0.277402 0.120792 0.431198 0.548762
C57   C     C_R   0.186626 0.070357 0.308762 0.015092
C58   C     C_R   0.146425 0.096207 0.208166 0.014366
C59   C     C_R   0.167449 0.994934 0.230802 -0.124966
C60   C     C_R   0.188480 0.981686 0.280748 -0.118340
C61   C     C_R   0.122677 0.111954 0.158433 -0.133325
C62   C     C_R   0.100036 0.214848 0.136742 -0.002929
C63   C     C_R   0.180759 0.250538 0.363507 -0.127862
C64   C     C_R   0.157731 0.264546 0.314190 0.013408
C65   C     C_R   0.162409 0.173614 0.286423 0.062214
C66   C     C_R   0.136788 0.365783 0.291816 -0.127727
C67   C     C_3   0.770065 0.611016 0.738521 0.274610
C68   C     C_R   0.122807 0.376209 0.241766 -0.126261
C69   C     C_R   0.126623 0.286736 0.213873 0.013106
C70   C     C_R   0.145249 0.185368 0.236127 0.062517
C71   C     C_R   0.107675 0.299174 0.164259 -0.128024
C72   C     C_R   0.216632 0.144239 0.384946 -0.004602
C73   C     C_R   0.565811 0.238125 0.363284 -0.133668
C74   C     C_R   0.573367 0.256236 0.313800 0.016384
C75   C     C_R   0.583993 0.286718 0.213390 0.023847
C76   C     C_R   0.501399 0.375873 0.242504 -0.123444
C77   C     C_R   0.495021 0.360114 0.292288 -0.121688
C78   C     C_3   0.741345 0.705551 0.776977 -0.095911
C79   C     C_R   0.594966 0.302604 0.163875 -0.133003
C80   C     C_R   0.680478 0.212772 0.135900 -0.002254
C81   C     C_R   0.735226 0.049765 0.355901 -0.098754
C82   C     C_R   0.740949 0.063523 0.306219 0.051368
C83   C     C_R   0.658593 0.167029 0.284926 0.017143
C84   C     C_R   0.824833 0.973813 0.277361 0.244641
C85   C     C_R   0.823196 0.986994 0.226950 -0.119163
C86   C     C_R   0.742792 0.089819 0.205833 -0.020779
C87   C     C_R   0.661291 0.181057 0.234692 0.048307
C88   C     C_R   0.747807 0.104707 0.156412 -0.123781
C89   C     C_1   0.696458 0.609127 0.900440 -0.009360
C90   C     C_R   0.644495 0.133287 0.383967 -0.026103
C91   C     C_R   0.049445 0.236053 0.949822 0.543912
C92   C     C_R   0.711458 0.563147 0.948258 0.545204
C93   C     C_R   0.722174 0.225428 0.950888 0.544792
C94   C     C_R   0.047188 0.245934 0.088772 0.547714
C95   C     C_R   0.707513 0.575876 0.086127 0.546901
C96   C     C_R   0.718510 0.234152 0.089438 0.546327
Cr1   Cr    Cr6+3 0.417550 0.169090 0.500530 1.027499
Cr2   Cr    Cr6+3 0.669180 0.913420 0.499920 1.034637
Cr3   Cr    Cr6+3 0.413260 0.917540 0.499520 1.024051
Cr4   Cr    Cr6+3 0.909170 0.177380 0.020380 1.029468
Cr5   Cr    Cr6+3 0.912710 0.429210 0.018220 1.020986
Cr6   Cr    Cr6+3 0.657170 0.432570 0.019030 1.024641
H1    H     H_    0.801629 0.731514 0.792018 0.107676
H2    H     H_    0.303537 0.203843 0.799532 0.108215
H3    H     H_    0.138619 0.342465 0.729505 0.133422
H4    H     H_    0.970548 0.313469 0.779204 0.105692
H5    H     H_    0.471293 0.326281 0.792744 0.109365
H6    H     H_    0.607270 0.359302 0.722646 0.108139
H7    H     H_    0.509708 0.126334 0.741197 0.103019
H8    H     H_    0.706406 0.994065 0.798681 0.108548
H9    H     H_    0.842315 0.027171 0.728800 0.116220
H10   H     H_    0.803975 0.226941 0.780154 0.107657
H11   H     H_    0.854478 0.616730 0.139586 0.120340
H12   H     H_    0.800718 0.709644 0.380366 0.130791
H13   H     H_    0.931554 0.643934 0.216738 0.090085
H14   H     H_    0.917104 0.665401 0.305622 0.133676
H15   H     H_    0.509708 0.673462 0.135490 0.128681
H16   H     H_    0.402780 0.702713 0.209196 0.096593
H17   H     H_    0.394680 0.709501 0.297902 0.096254
H18   H     H_    0.476708 0.717184 0.374156 0.131339
H19   H     H_    0.116900 0.046703 0.137200 0.119865
H20   H     H_    0.241204 0.973929 0.374754 0.125724
H21   H     H_    0.168337 0.925844 0.209862 0.100534
H22   H     H_    0.594707 0.875367 0.741233 0.102826
H23   H     H_    0.206507 0.902132 0.297428 0.108444
H24   H     H_    0.090143 0.379020 0.147909 0.129431
H25   H     H_    0.108356 0.454408 0.224901 0.096697
H26   H     H_    0.133866 0.435755 0.312855 0.102211
H27   H     H_    0.180427 0.319728 0.384227 0.131260
H28   H     H_    0.542296 0.386106 0.148059 0.122412
H29   H     H_    0.496205 0.303176 0.385062 0.123445
H30   H     H_    0.441759 0.457558 0.226782 0.102259
H31   H     H_    0.429420 0.429358 0.314016 0.103350
H32   H     H_    0.812446 0.034242 0.134770 0.131212
H33   H     H_    0.479771 0.787537 0.797002 0.143420
H34   H     H_    0.886710 0.918067 0.204344 0.086313
H35   H     H_    0.796537 0.969324 0.372039 0.193781
H36   H     H_    0.537217 0.612743 0.725309 0.109637
H37   H     H_    0.744046 0.468764 0.775900 0.098730
H38   H     H_    0.027816 0.115959 0.720365 0.107931
H39   H     H_    0.361063 0.006006 0.740737 0.099055
O1    O     O_R   0.301710 0.195650 0.554160 -0.503670
O2    O     O_R   0.658900 0.818120 0.449760 -0.499060
O3    O     O_R   0.503220 0.801620 0.445520 -0.523189
O4    O     O_R   0.319370 0.022040 0.450020 -0.501166
O5    O     O_3   0.499990 0.000010 0.499990 -0.247495
O6    O     O_R   0.818720 0.150820 0.967160 -0.503408
O7    O     O_R   0.006410 0.181720 0.970200 -0.488641
O8    O     O_R   0.027890 0.334070 0.964920 -0.510035
O9    O     O_R   0.809600 0.521790 0.967960 -0.496882
O10   O     O_R   0.635520 0.542770 0.964420 -0.504402
O11   O     O_R   0.665950 0.325030 0.970100 -0.495473
O12   O     O_R   0.522390 0.158990 0.550460 -0.495680
O13   O     O_R   0.816620 0.158530 0.074540 -0.522013
O14   O     O_R   0.004460 0.188870 0.069750 -0.499740
O15   O     O_R   0.025800 0.341780 0.072300 -0.522841
O16   O     O_R   0.807650 0.528950 0.067500 -0.502666
O17   O     O_R   0.633420 0.550490 0.071810 -0.521964
O18   O     O_R   0.664000 0.332180 0.069640 -0.500626
O19   O     O_3   0.826350 0.346390 0.019210 -0.245595
O20   O     O_R   0.694390 0.003530 0.554040 -0.503441
O21   O     O_R   0.657700 0.819660 0.549320 -0.490459
O22   O     O_R   0.501930 0.803280 0.552920 -0.510090
O23   O     O_R   0.318170 0.023580 0.549580 -0.496641
O24   O     O_R   0.303010 0.193990 0.446760 -0.519784
O25   O     O_R   0.523600 0.157450 0.450900 -0.498011
O26   O     O_R   0.695690 0.001860 0.446640 -0.521447
O27   O     O_3   0.876776 0.545987 0.715972 -0.695789
H40   H     H_    0.931998 0.510603 0.742872 0.309205
O28   O     O_3   0.906803 0.874437 0.298967 -0.737313
H41   H     H_    0.959846 0.821768 0.273622 0.310948
O29   O     O_3   0.195707 0.959779 0.793907 -0.697855
H42   H     H_    0.217644 0.907260 0.765362 0.314227

loop_
_geom_bond_atom_site_label_1
_geom_bond_atom_site_label_2
_ccdc_geom_bond_type
C67   O27   S    
C66   C68   A    
C73   H29   S    
Cr2   O2    S    
C95   O17   A    
C76   H30   S    
C41   C42   A    
C29   H10   S    
C83   C87   A    
C74   C83   A    
C11   H38   S    
C2    C12   S    
Cr6   O17   S    
C81   C82   A    
C5    H36   S    
C47   C49   A    
C49   H17   S    
C85   C86   A    
C81   H35   S    
C11   C19   S    
C20   C21   S    
C60   H23   S    
C19   C21   S    
Cr4   O7    S    
C73   C90   A    
C84   O28   S    
C5    C6    S    
C38   H12   S    
C86   C88   A    
O28   H41   S    
Cr4   O6    S    
C65   C70   A    
Cr5   O9    S    
C17   C20   S    
C58   C70   A    
C61   H19   S    
C18   C19   S    
C73   C74   A    
C56   O4    A    
C69   C71   A    
C44   C53   A    
C40   C43   A    
C96   O13   A    
C31   C32   S    
Cr5   O19   S    
C16   C17   S    
C56   C72   S    
C74   C77   A    
C56   O24   A    
C1    C28   S    
C31   C33   S    
C71   H24   S    
Cr1   O12   S    
C80   C96   S    
C18   C20   S    
Cr2   O26   S    
C35   H7    S    
C16   H4    S    
Cr6   O10   S    
C58   C61   A    
C15   C23   S    
Cr3   O4    S    
C55   H20   S    
Cr5   O16   S    
C59   C60   A    
C95   O16   A    
C25   C29   S    
Cr1   O25   S    
C61   C62   A    
C67   C78   S    
C77   H31   S    
C41   H13   S    
C4    C7    S    
C91   O7    A    
Cr2   O21   S    
C39   C42   A    
C13   O29   S    
C59   H21   S    
Cr1   O1    S    
C21   H39   S    
C46   H18   S    
C51   C52   A    
C32   C35   S    
O27   H40   S    
Cr3   O3    S    
C8    C78   S    
C76   C77   A    
C9    C89   T    
C5    C7    S    
C86   C87   A    
C68   C69   A    
C57   C60   A    
C6    C8    S    
Cr2   O5    S    
Cr5   O15   S    
C58   C59   A    
C40   C52   A    
C79   H28   S    
C79   C80   A    
C51   C53   A    
C64   C66   A    
Cr6   O18   S    
C75   C76   A    
C34   C90   S    
C7    H33   S    
C29   C30   S    
C45   O3    A    
C11   C16   S    
Cr4   O19   S    
C47   C48   A    
C38   C54   A    
C29   C31   S    
C46   C54   A    
C92   O10   A    
C50   C51   A    
C94   O14   A    
C13   C21   S    
C23   O1    A    
C16   C18   S    
C32   C37   S    
C84   C85   A    
C89   C92   S    
C1    O12   A    
C68   H25   S    
Cr3   O22   S    
C81   C90   A    
Cr4   O14   S    
C8    H22   S    
C15   C24   T    
Cr3   O5    S    
C45   C54   S    
C26   C30   S    
C82   C84   A    
C62   C94   S    
C43   C44   A    
C92   O9    A    
C49   C50   A    
C27   C93   S    
C3    H37   S    
Cr6   O19   S    
C3    C4    S    
C2    C10   T    
Cr2   O20   S    
O29   H42   S    
C91   O8    A    
C23   O23   A    
Cr4   O13   S    
C46   C47   A    
C40   C41   A    
C30   C33   S    
C78   H1    S    
C50   H16   S    
C1    O20   A    
C3    C67   S    
C55   C72   A    
C57   C65   A    
C3    C5    S    
C26   H5    S    
C6    C10   S    
C20   H2    S    
C30   C36   S    
C27   C36   T    
C4    C78   S    
C17   C22   S    
C13   C17   S    
C64   C65   A    
C14   C22   T    
C55   C57   A    
C19   C24   S    
C25   C26   S    
C18   H3    S    
C88   H32   S    
C80   C88   A    
C44   C95   S    
C6    C67   S    
C43   H11   S    
C12   O22   A    
C11   C13   S    
C38   C39   A    
C28   C37   T    
C25   C32   S    
Cr1   O24   S    
C42   H14   S    
Cr5   O8    S    
Cr3   O23   S    
C33   C35   S    
C66   H26   S    
C62   C71   A    
C93   O6    A    
C53   H15   S    
C63   H27   S    
C69   C70   A    
C14   C91   S    
C7    C8    S    
C85   H34   S    
C12   O21   A    
C63   C64   A    
Cr1   O5    S    
C26   C35   S    
C48   C52   A    
C96   O18   A    
C63   C72   A    
C94   O15   A    
C82   C83   A    
C45   O2    A    
C31   H9    S    
C93   O11   A    
C33   H8    S    
C4    C9    S    
C34   O25   A    
C75   C79   A    
C75   C87   A    
C34   O26   A    
C25   H6    S    
Cr6   O11   S    
C39   C48   A    
