data_mof_unit_57703.cif
_audit_creation_date              2012-12-10T19:04:14-0500
_audit_creation_method            fapswitch 2.2
_symmetry_space_group_name_H-M    P1
_symmetry_Int_Tables_number       1
_space_group_crystal_system       triclinic
_cell_length_a                    10.687467
_cell_length_b                    10.887531
_cell_length_c                    9.609871
_cell_angle_alpha                 91.09872
_cell_angle_beta                  89.561631
_cell_angle_gamma                 90.772915
_cell_volume                      1117.86794459

loop_
_atom_site_label
_atom_site_type_symbol
_atom_type_description
_atom_site_fract_x
_atom_site_fract_y
_atom_site_fract_z
_atom_type_partial_charge
C1    C     C_R   0.500313 0.262572 0.498432 0.789056
C2    C     C_3   0.962988 0.496663 0.364512 -0.245904
C3    C     C_3   0.043541 0.394847 0.429927 -0.266899
C4    C     C_3   0.124058 0.495576 0.501775 -0.093034
C5    C     C_R   0.530465 0.067009 0.616817 -0.147920
C6    C     C_R   0.505736 0.129157 0.494309 -0.095272
C7    C     C_R   0.485610 0.059933 0.369993 0.150231
C8    C     C_R   0.479876 0.931918 0.375046 -0.280817
C9    C     C_R   0.495882 0.870833 0.500877 -0.059217
C10   C     C_R   0.522827 0.940151 0.620781 -0.020347
C11   C     C_3   0.458689 0.942830 0.760790 0.568663
C12   C     C_R   0.260000 0.498042 0.500516 0.840649
C13   C     C_3   0.470175 0.083435 0.758231 0.260450
C14   C     C_R   0.607634 0.521290 0.073025 0.134391
C15   C     C_R   0.394790 0.471483 0.074205 -0.066481
C16   C     C_R   0.394324 0.473282 0.926130 -0.028894
C17   C     C_R   0.609274 0.511238 0.925891 0.049017
C18   C     C_3   0.704124 0.612323 0.913218 0.274864
C19   C     C_3   0.686925 0.637636 0.069472 0.468548
C20   C     C_R   0.496396 0.737363 0.501034 0.847879
C21   C     C_R   0.740692 0.498554 0.499153 0.846780
C22   C     C_3   0.040664 0.494729 0.634069 -0.227616
C23   C     C_3   0.958317 0.396838 0.559591 0.153479
C24   C     C_3   0.878069 0.496513 0.496335 -0.065809
C25   C     C_3   0.961452 0.595340 0.566807 0.542918
C26   C     C_3   0.045251 0.595192 0.437592 0.112461
Cu1   Cu    Cu3+1 0.499990 0.499980 0.640670 0.977925
Cu2   Cu    Cu3+1 0.500010 0.500020 0.359330 0.968856
H1    H     H_    0.378203 0.129566 0.751923 0.112173
H2    H     H_    0.308902 0.448954 0.128499 0.138765
H3    H     H_    0.307927 0.453125 0.872227 0.125471
H4    H     H_    0.672032 0.687071 0.846153 0.141618
H5    H     H_    0.081411 0.493423 0.739480 0.133825
H6    H     H_    0.935680 0.491533 0.254008 0.208965
H7    H     H_    0.079856 0.311284 0.376294 0.148132
H8    H     H_    0.457574 0.881151 0.280441 0.156703
N1    N     N_R   0.500800 0.500930 0.147930 -0.196694
N2    N     N_R   0.500800 0.500890 0.852020 -0.191322
O1    O     O_R   0.500000 0.319640 0.618810 -0.590474
O2    O     O_R   0.500010 0.319680 0.381230 -0.542806
O3    O     O_R   0.316850 0.499950 0.618770 -0.602507
O4    O     O_R   0.316860 0.499990 0.381190 -0.592414
O5    O     O_R   0.499990 0.680320 0.618770 -0.553203
O6    O     O_R   0.500000 0.680360 0.381190 -0.606338
O7    O     O_R   0.683140 0.500010 0.618810 -0.558904
O8    O     O_R   0.683150 0.500050 0.381230 -0.564298
N3    N     N_3   0.908241 0.286272 0.623434 -0.636066
H9    H     H_    0.984224 0.232820 0.651260 0.215644
H10   H     H_    0.858978 0.236660 0.546956 0.209272
N4    N     N_3   0.533054 0.882854 0.866920 -0.574707
H11   H     H_    0.628450 0.899844 0.850354 0.201226
H12   H     H_    0.511055 0.922354 0.963857 0.231992
O9    O     O_3   0.542787 0.132993 0.870864 -0.594606
C27   C     C_3   0.667322 0.164959 0.835327 -0.281312
H13   H     H_    0.670361 0.241072 0.760625 0.213816
H14   H     H_    0.719824 0.084972 0.793285 0.146998
H15   H     H_    0.715660 0.197273 0.931209 0.163842
O10   O     O_3   0.827864 0.574917 0.875249 -0.538110
C28   C     C_3   0.860797 0.455997 0.919593 -0.242717
H16   H     H_    0.822892 0.385862 0.846391 0.185444
H17   H     H_    0.829764 0.434543 0.026685 0.152994
H18   H     H_    0.963802 0.449001 0.921119 0.150375
O11   O     O_3   0.798520 0.632296 0.146973 -0.568963
C29   C     C_3   0.876091 0.736424 0.122246 -0.269479
H19   H     H_    0.864029 0.804610 0.208404 0.158057
H20   H     H_    0.858531 0.782742 0.021969 0.170789
H21   H     H_    0.974739 0.706758 0.118752 0.160379
N5    N     N_3   0.615579 0.749348 0.100345 -0.653075
H22   H     H_    0.519370 0.732932 0.090386 0.204083
H23   H     H_    0.632412 0.776880 0.203092 0.260008
O12   O     O_3   0.909012 0.700805 0.630209 -0.572036
C30   C     C_3   0.001606 0.764899 0.706614 -0.276077
H24   H     H_    0.960192 0.850461 0.749938 0.160479
H25   H     H_    0.082419 0.791735 0.639741 0.197861
H26   H     H_    0.033750 0.710277 0.795794 0.179210
N6    N     N_3   0.100917 0.704512 0.376298 -0.604486
H27   H     H_    0.029507 0.766947 0.360475 0.223092
H28   H     H_    0.138102 0.679109 0.279281 0.215293
N7    N     N_3   0.464705 0.117976 0.239686 -0.544341
H29   H     H_    0.532640 0.087131 0.168838 0.242146
H30   H     H_    0.377134 0.089316 0.202538 0.204562
O13   O     O_3   0.333805 0.897419 0.752353 -0.576137
C31   C     C_3   0.271852 0.909428 0.882342 -0.372992
H31   H     H_    0.291884 0.998852 0.936247 0.151643
H32   H     H_    0.296668 0.832207 0.950399 0.186129
H33   H     H_    0.169623 0.904774 0.865288 0.165123

loop_
_geom_bond_atom_site_label_1
_geom_bond_atom_site_label_2
_ccdc_geom_bond_type
C3    C23   S    
C7    C8    A    
N3    H10   S    
O9    C27   S    
C16   H3    S    
Cu2   O8    S    
C13   H1    S    
N6    H28   S    
C5    C6    A    
Cu2   O2    S    
Cu1   N2    S    
C15   C16   A    
C18   C19   S    
C8    H8    S    
C15   N1    A    
C12   O4    A    
C1    O2    A    
C18   O10   S    
C31   H31   S    
C19   O11   S    
C8    C9    A    
C22   C25   S    
C26   N6    S    
C23   C24   S    
C25   O12   S    
C4    C12   S    
C9    C10   A    
C5    C13   S    
Cu1   O7    S    
C28   H16   S    
C14   C17   A    
C30   H26   S    
C20   O6    A    
C17   C18   S    
C13   O9    S    
C11   O13   S    
C27   H14   S    
C28   H17   S    
C23   N3    S    
C1    C6    S    
C29   H21   S    
N6    H27   S    
C30   H25   S    
Cu1   O1    S    
N7    H30   S    
N5    H22   S    
C25   C26   S    
Cu2   O6    S    
O11   C29   S    
C21   O7    A    
C29   H20   S    
C12   O3    A    
C4    C22   S    
Cu1   O3    S    
C9    C20   S    
N4    H12   S    
N3    H9    S    
C3    H7    S    
N4    H11   S    
C19   N5    S    
C2    C26   S    
C24   C25   S    
C31   H32   S    
C2    C24   S    
C18   H4    S    
C3    C4    S    
C20   O5    A    
C15   H2    S    
C7    N7    S    
C21   O8    A    
C22   H5    S    
C27   H13   S    
C28   H18   S    
C14   C19   S    
C30   H24   S    
C4    C26   S    
C6    C7    A    
C29   H19   S    
C2    C3    S    
O10   C28   S    
O12   C30   S    
C11   N4    S    
C14   N1    A    
C11   C13   S    
C2    H6    S    
Cu2   N1    S    
Cu2   O4    S    
C17   N2    A    
C10   C11   S    
C1    O1    A    
N7    H29   S    
Cu1   O5    S    
C5    C10   A    
C31   H33   S    
N5    H23   S    
O13   C31   S    
C21   C24   S    
Cu1   Cu2   S    
C22   C23   S    
C16   N2    A    
C27   H15   S    
