data_mof_unit_36521.cif
_audit_creation_date              2012-12-10T19:45:57-0500
_audit_creation_method            fapswitch 2.2
_symmetry_space_group_name_H-M    P1
_symmetry_Int_Tables_number       1
_space_group_crystal_system       triclinic
_cell_length_a                    10.79247
_cell_length_b                    14.990473
_cell_length_c                    14.15068
_cell_angle_alpha                 89.674556
_cell_angle_beta                  103.912434
_cell_angle_gamma                 89.962259
_cell_volume                      2222.15636202

loop_
_atom_site_label
_atom_site_type_symbol
_atom_type_description
_atom_site_fract_x
_atom_site_fract_y
_atom_site_fract_z
_atom_type_partial_charge
C1    C     C_R   0.499991 0.327798 0.500305 0.913466
C2    C     C_R   0.402932 0.461280 0.779048 -0.002014
C3    C     C_R   0.603329 0.468932 0.123160 -0.289868
C4    C     C_R   0.401416 0.462528 0.878059 -0.290651
C5    C     C_R   0.499013 0.503642 0.053028 0.114102
C6    C     C_R   0.500737 0.503608 0.946773 0.113037
C7    C     C_R   0.258822 0.497265 0.459599 0.946204
C8    C     C_R   0.741197 0.497260 0.540449 0.943241
C9    C     C_2   0.122490 0.486288 0.436692 -0.374369
C10   C     C_2   0.877613 0.486375 0.563576 -0.375817
C11   C     C_2   0.068100 0.466667 0.509158 -0.152596
C12   C     C_R   0.499803 0.672182 0.499741 0.921990
C13   C     C_2   0.932204 0.466586 0.491473 -0.154717
C14   C     C_R   0.436123 0.094720 0.565356 0.229410
C15   C     C_R   0.436586 0.906340 0.414765 0.222495
C16   C     C_R   0.440296 0.187189 0.565236 -0.299405
C17   C     C_R   0.441886 0.813952 0.414409 -0.306547
C18   C     C_R   0.499306 0.232147 0.501223 -0.124026
C19   C     C_R   0.499548 0.767816 0.499462 -0.121893
C20   C     C_R   0.558613 0.185814 0.438991 -0.300515
C21   C     C_R   0.556625 0.812841 0.584715 -0.313602
C22   C     C_R   0.560529 0.093584 0.441242 0.476776
C23   C     C_R   0.495835 0.048137 0.502128 0.012726
C24   C     C_R   0.559913 0.905481 0.585114 0.481121
C25   C     C_3   0.250606 0.014965 0.589042 -0.819749
C26   C     C_3   0.250938 0.987085 0.324047 -0.808350
C27   C     C_3   0.750783 0.034908 0.430378 0.055234
C28   C     C_3   0.807619 0.961373 0.379397 -0.298141
C29   C     C_3   0.948286 0.945803 0.427926 -1.000151
C30   C     C_3   0.748840 0.928632 0.701907 0.051953
C31   C     C_3   0.772011 0.888737 0.804512 -0.313579
C32   C     C_3   0.911247 0.861233 0.843230 -0.980757
C33   C     C_3   0.299841 0.661890 0.985458 -0.788592
C34   C     C_R   0.495080 0.951745 0.501061 0.016422
C35   C     C_3   0.677182 0.674714 0.006410 -0.789669
C36   C     C_R   0.393692 0.536722 0.085877 0.126456
C37   C     C_R   0.601076 0.543230 0.912526 0.125470
C38   C     C_R   0.397153 0.533833 0.186397 -0.069813
C39   C     C_R   0.597964 0.540123 0.812141 -0.066327
C40   C     C_R   0.601814 0.467429 0.222187 0.001933
H1    H     H_    0.877066 0.457667 0.416956 0.177387
H2    H     H_    0.600895 0.775984 0.650129 0.165352
H3    H     H_    0.317521 0.559787 0.211889 0.129389
H4    H     H_    0.673687 0.570961 0.785464 0.128552
H5    H     H_    0.682490 0.439892 0.274865 0.124072
H6    H     H_    0.326143 0.429042 0.727303 0.123023
H7    H     H_    0.379443 0.084316 0.694677 0.231793
H8    H     H_    0.254459 0.963563 0.533816 0.260935
H9    H     H_    0.211479 0.982945 0.646595 0.243213
H10   H     H_    0.185644 0.070053 0.555295 0.230358
H11   H     H_    0.380628 0.919183 0.264771 0.230906
H12   H     H_    0.123345 0.458000 0.583838 0.178592
H13   H     H_    0.211939 0.020160 0.252662 0.244003
H14   H     H_    0.254247 0.037527 0.381552 0.253035
H15   H     H_    0.186230 0.931682 0.332853 0.235055
H16   H     H_    0.761569 0.014191 0.507864 0.120942
H17   H     H_    0.804449 0.097985 0.428182 0.146568
H18   H     H_    0.754063 0.898395 0.381906 0.224842
H19   H     H_    0.798054 0.980151 0.301860 0.229580
H20   H     H_    0.004268 0.006885 0.422262 0.269659
H21   H     H_    0.985542 0.890355 0.390930 0.268291
H22   H     H_    0.960452 0.927656 0.505866 0.266550
H23   H     H_    0.685235 0.442028 0.101267 0.159577
H24   H     H_    0.806002 0.990676 0.705446 0.154452
H25   H     H_    0.785198 0.882295 0.653107 0.120435
H26   H     H_    0.746370 0.938801 0.854299 0.230500
H27   H     H_    0.710481 0.829306 0.803888 0.212217
H28   H     H_    0.974862 0.919901 0.846171 0.266367
H29   H     H_    0.937986 0.809466 0.795823 0.264103
H30   H     H_    0.924836 0.833209 0.917848 0.266220
H31   H     H_    0.200999 0.565664 0.042475 0.216263
H32   H     H_    0.210048 0.683824 0.934116 0.240301
H33   H     H_    0.377178 0.664231 0.946158 0.258506
H34   H     H_    0.323472 0.430630 0.901060 0.160144
H35   H     H_    0.321992 0.708715 0.047881 0.231108
H36   H     H_    0.789026 0.583985 0.954922 0.217145
H37   H     H_    0.763250 0.702573 0.056944 0.238455
H38   H     H_    0.599093 0.673016 0.045012 0.257215
H39   H     H_    0.649809 0.719149 0.941540 0.231742
H40   H     H_    0.933190 0.495590 0.637887 0.148474
H41   H     H_    0.066810 0.495273 0.362239 0.147319
H42   H     H_    0.394851 0.223984 0.613475 0.161564
H43   H     H_    0.397746 0.778140 0.348576 0.163000
H44   H     H_    0.606000 0.220970 0.390502 0.171333
N1    N     N_R   0.500000 0.499980 0.252470 -0.096205
N2    N     N_R   0.500000 0.500020 0.747530 -0.096137
N3    N     N_2   0.376703 0.049354 0.631600 -0.257261
N4    N     N_2   0.377321 0.953005 0.327437 -0.259861
N5    N     N_2   0.284151 0.572301 0.019261 -0.316442
N6    N     N_2   0.705056 0.585936 0.977579 -0.315827
O1    O     O_R   0.500010 0.369070 0.579480 -0.621922
O2    O     O_3   0.618307 0.952243 0.668425 -0.639151
O3    O     O_R   0.499990 0.630930 0.420520 -0.617946
O4    O     O_R   0.500010 0.369060 0.420520 -0.618634
O5    O     O_R   0.499990 0.630940 0.579480 -0.617249
O6    O     O_R   0.317810 0.500010 0.549800 -0.621584
O7    O     O_R   0.682190 0.499990 0.450200 -0.623675
O8    O     O_R   0.317810 0.500000 0.390840 -0.626529
O9    O     O_R   0.682190 0.500000 0.609160 -0.625880
O10   O     O_3   0.621617 0.047441 0.381184 -0.634455
Zn1   Zn    Zn3+2 0.500000 0.500010 0.606140 0.939395
Zn2   Zn    Zn3+2 0.500000 0.499990 0.393860 0.939932

loop_
_geom_bond_atom_site_label_1
_geom_bond_atom_site_label_2
_ccdc_geom_bond_type
C36   N5    S    
C40   N1    A    
C31   H26   S    
C7    O8    A    
C30   H24   S    
C26   H15   S    
C13   H1    S    
C2    H6    S    
C31   H27   S    
C7    O6    A    
C1    C18   S    
C37   N6    S    
C28   C29   S    
C19   C21   A    
C8    O9    A    
C14   N3    S    
C30   C31   S    
C5    C36   A    
C26   H14   S    
C25   N3    S    
C7    C9    S    
C25   H10   S    
C11   H12   S    
C33   H32   S    
C33   H35   S    
C1    O4    A    
C12   O5    A    
C15   C34   A    
C4    H34   S    
O7    Zn2   S    
C32   H28   S    
C1    O1    A    
O6    Zn1   S    
O1    Zn1   S    
C24   O2    S    
C40   H5    S    
C29   H21   S    
C27   O10   S    
C22   O10   S    
C38   N1    A    
C26   N4    S    
C4    C6    A    
C27   H17   S    
C10   H40   S    
C27   H16   S    
C32   H30   S    
O8    Zn2   S    
C35   H37   S    
C24   C34   A    
C17   H43   S    
H7    N3    S    
C14   C23   A    
H11   N4    S    
C2    C4    A    
C8    O7    A    
C33   N5    S    
C31   C32   S    
H31   N5    S    
C29   H20   S    
C23   C34   S    
C16   H42   S    
C6    C37   A    
C16   C18   A    
C9    C11   D    
C25   H8    S    
C39   H4    S    
C33   H33   S    
O9    Zn1   S    
C20   C22   A    
C3    C40   A    
C3    H23   S    
C20   H44   S    
C14   C16   A    
C12   O3    A    
C26   H13   S    
C28   H19   S    
C15   C17   A    
C29   H22   S    
C3    C5    A    
C10   C13   D    
O3    Zn2   S    
C32   H29   S    
C28   H18   S    
C35   H38   S    
C36   C38   A    
C38   H3    S    
C37   C39   A    
C11   C13   S    
C5    C6    S    
C12   C19   S    
C35   H39   S    
C17   C19   A    
C2    N2    A    
C18   C20   A    
C25   H9    S    
C30   H25   S    
C21   H2    S    
C35   N6    S    
O4    Zn2   S    
C8    C10   S    
C21   C24   A    
C9    H41   S    
C27   C28   S    
C22   C23   A    
C39   N2    A    
N2    Zn1   S    
N1    Zn2   S    
O5    Zn1   S    
H36   N6    S    
C15   N4    S    
C30   O2    S    
