data_mof_unit_60441.cif
_audit_creation_date              2012-12-10T18:40:10-0500
_audit_creation_method            fapswitch 2.2
_symmetry_space_group_name_H-M    P1
_symmetry_Int_Tables_number       1
_space_group_crystal_system       triclinic
_cell_length_a                    25.555712
_cell_length_b                    25.556491
_cell_length_c                    51.412556
_cell_angle_alpha                 89.999107
_cell_angle_beta                  89.99918
_cell_angle_gamma                 90.002544
_cell_volume                      33578.2767024

loop_
_atom_site_label
_atom_site_type_symbol
_atom_type_description
_atom_site_fract_x
_atom_site_fract_y
_atom_site_fract_z
_atom_type_partial_charge
C1    C     C_R   0.000000 0.500000 0.679366 0.818593
C2    C     C_R   0.044088 0.519144 0.472481 -0.166870
C3    C     C_R   0.599621 0.900360 0.249956 0.835082
C4    C     C_R   0.099641 0.400379 0.249955 0.835465
C5    C     C_R   0.599621 0.099639 0.750043 0.835594
C6    C     C_R   0.900359 0.599621 0.249955 0.835433
C7    C     C_R   0.400379 0.900360 0.750044 0.835328
C8    C     C_R   0.400359 0.900380 0.250045 0.835946
C9    C     C_R   0.900378 0.599640 0.749956 0.835267
C10   C     C_R   0.599640 0.099621 0.250044 0.835971
C11   C     C_R   0.099621 0.400360 0.749955 0.835050
C12   C     C_R   0.599640 0.900379 0.749955 0.835540
C13   C     C_R   0.480186 0.956223 0.527520 -0.167284
C14   C     C_R   0.099621 0.599639 0.250043 0.835503
C15   C     C_R   0.400359 0.099620 0.749955 0.835503
C16   C     C_R   0.900379 0.400361 0.250044 0.835482
C17   C     C_3   0.812891 0.769477 0.743943 0.242410
C18   C     C_3   0.769375 0.187350 0.256574 0.245887
C19   C     C_3   0.188360 0.231782 0.740790 0.242244
C20   C     C_3   0.230711 0.812558 0.256837 0.245944
C21   C     C_3   0.187171 0.769404 0.256267 0.241872
C22   C     C_3   0.231984 0.188715 0.740236 0.246318
C23   C     C_3   0.812905 0.230515 0.256017 0.241910
C24   C     C_R   0.955926 0.480843 0.472482 -0.166824
C25   C     C_3   0.769382 0.812664 0.743452 0.245897
C26   C     C_3   0.311963 0.268541 0.241482 0.242192
C27   C     C_3   0.268299 0.688430 0.759195 0.246077
C28   C     C_3   0.688142 0.731560 0.241254 0.242312
C29   C     C_3   0.730701 0.312567 0.756808 0.245934
C30   C     C_3   0.687160 0.269414 0.756234 0.241840
C31   C     C_3   0.731740 0.688467 0.240724 0.246178
C32   C     C_3   0.311911 0.731510 0.758630 0.241944
C33   C     C_3   0.268358 0.311627 0.240922 0.246271
C34   C     C_3   0.760735 0.717453 0.778232 0.244920
C35   C     C_R   0.516660 0.045115 0.472475 -0.167578
C36   C     C_3   0.718129 0.238459 0.221616 0.241381
C37   C     C_3   0.234736 0.278006 0.778961 0.245411
C38   C     C_3   0.281504 0.761917 0.221549 0.241350
C39   C     C_3   0.238964 0.717769 0.221701 0.245211
C40   C     C_3   0.277254 0.233839 0.779055 0.241554
C41   C     C_3   0.760691 0.282585 0.221772 0.245158
C42   C     C_3   0.718080 0.761487 0.778368 0.241676
C43   C     C_3   0.264247 0.220977 0.278831 0.245370
C44   C     C_3   0.221917 0.734669 0.721033 0.241502
C45   C     C_3   0.735411 0.778685 0.278876 0.245292
C46   C     C_R   0.954650 0.484011 0.527526 -0.168128
C47   C     C_3   0.781546 0.261875 0.721556 0.241354
C48   C     C_3   0.739012 0.217722 0.721711 0.245204
C49   C     C_3   0.777973 0.734560 0.278975 0.241672
C50   C     C_3   0.264429 0.778845 0.721141 0.245448
C51   C     C_3   0.221728 0.265143 0.278940 0.241537
C52   C     C_1   0.639717 0.861253 0.750168 -0.070349
C53   C     C_1   0.861250 0.360287 0.249826 -0.070140
C54   C     C_1   0.360273 0.138738 0.750159 -0.070890
C55   C     C_1   0.138749 0.639713 0.249825 -0.070187
C56   C     C_1   0.360279 0.861258 0.249831 -0.069672
C57   C     C_R   0.483336 0.954893 0.472477 -0.167638
C58   C     C_1   0.138743 0.360279 0.750164 -0.070765
C59   C     C_1   0.639719 0.138744 0.249829 -0.069735
C60   C     C_1   0.861247 0.639712 0.750172 -0.071354
C61   C     C_1   0.139726 0.361261 0.250161 -0.070807
C62   C     C_1   0.361259 0.860278 0.749833 -0.069830
C63   C     C_1   0.860274 0.638739 0.250161 -0.070722
C64   C     C_1   0.638749 0.139713 0.749825 -0.070641
C65   C     C_1   0.860279 0.361258 0.749831 -0.069475
C66   C     C_1   0.638743 0.860279 0.250166 -0.071262
C67   C     C_1   0.139727 0.638736 0.749836 -0.070168
C68   C     C_R   0.045357 0.515990 0.527526 -0.168098
C69   C     C_1   0.361255 0.139719 0.250166 -0.071222
C70   C     C_3   0.788624 0.715245 0.751191 0.005775
C71   C     C_3   0.715295 0.211326 0.248834 0.004336
C72   C     C_3   0.211230 0.284610 0.751081 0.005196
C73   C     C_3   0.284691 0.788688 0.248845 0.004294
C74   C     C_3   0.211363 0.715257 0.248809 0.004587
C75   C     C_3   0.284564 0.211186 0.751042 0.005200
C76   C     C_3   0.788625 0.284755 0.248802 0.004574
C77   C     C_3   0.715289 0.788668 0.751161 0.005239
C78   C     C_3   0.288740 0.215360 0.251107 0.005556
C79   C     C_R   0.019188 0.544072 0.027521 -0.167303
C80   C     C_3   0.215415 0.711205 0.748930 0.004287
C81   C     C_3   0.711248 0.784628 0.251099 0.005522
C82   C     C_3   0.784693 0.288686 0.748844 0.004226
C83   C     C_3   0.711365 0.215255 0.748808 0.004830
C84   C     C_3   0.784584 0.711206 0.251063 0.005195
C85   C     C_3   0.288749 0.784632 0.748892 0.004169
C86   C     C_3   0.215407 0.288786 0.251070 0.005286
C87   C     C_3   0.702541 0.745470 0.730843 -0.562067
C88   C     C_3   0.745912 0.297013 0.269446 -0.561701
C89   C     C_3   0.300442 0.257515 0.733113 -0.561893
C90   C     C_R   0.544055 0.019215 0.972482 -0.166835
C91   C     C_3   0.254331 0.702740 0.269283 -0.561686
C92   C     C_3   0.297732 0.745194 0.268960 -0.561387
C93   C     C_3   0.257090 0.300016 0.732755 -0.561773
C94   C     C_3   0.702516 0.254553 0.269132 -0.561447
C95   C     C_3   0.745881 0.702955 0.730567 -0.562526
C96   C     C_3   0.200174 0.243101 0.232602 -0.562047
C97   C     C_3   0.243434 0.799491 0.767658 -0.561277
C98   C     C_3   0.800008 0.757081 0.232752 -0.561979
C99   C     C_3   0.754298 0.202773 0.769305 -0.561955
C100  C     C_3   0.797705 0.245222 0.768980 -0.561369
C101  C     C_R   0.980816 0.455943 0.027523 -0.167338
C102  C     C_3   0.756668 0.799595 0.232417 -0.562183
C103  C     C_3   0.200064 0.757006 0.767301 -0.561454
C104  C     C_3   0.243539 0.200614 0.232251 -0.562197
C105  C     C_1   0.673603 0.828527 0.750522 0.066947
C106  C     C_1   0.828509 0.326416 0.249460 0.067297
C107  C     C_1   0.326345 0.171421 0.750477 0.066831
C108  C     C_1   0.171487 0.673588 0.249461 0.067291
C109  C     C_1   0.326386 0.828538 0.249479 0.067517
C110  C     C_1   0.171442 0.326367 0.750495 0.066903
C111  C     C_1   0.673607 0.171468 0.249474 0.067474
C112  C     C_R   0.499999 1.000000 0.320633 0.819050
C113  C     C_R   0.455957 0.980768 0.972484 -0.166690
C114  C     C_1   0.828507 0.673583 0.750536 0.066531
C115  C     C_1   0.173646 0.328569 0.250488 0.066759
C116  C     C_1   0.328554 0.826371 0.749493 0.067485
C117  C     C_1   0.826351 0.671428 0.250485 0.066799
C118  C     C_1   0.671488 0.173587 0.749460 0.067028
C119  C     C_1   0.826387 0.328537 0.749479 0.067532
C120  C     C_1   0.671447 0.826372 0.250503 0.066594
C121  C     C_1   0.173650 0.671426 0.749510 0.067331
C122  C     C_1   0.328548 0.173623 0.250506 0.066605
C123  C     C_R   0.484706 0.956047 0.554931 0.600609
C124  C     C_R   0.016002 0.545352 0.972477 -0.167597
C125  C     C_R   0.955822 0.485357 0.445071 0.602292
C126  C     C_R   0.515310 0.043961 0.554929 0.600668
C127  C     C_R   0.044193 0.514624 0.445070 0.602367
C128  C     C_R   0.480169 0.957866 0.445050 0.602872
C129  C     C_R   0.042422 0.519218 0.554952 0.601624
C130  C     C_R   0.519823 0.042141 0.445048 0.602855
C131  C     C_R   0.957580 0.480790 0.554953 0.601717
C132  C     C_R   0.985323 0.455838 0.054935 0.600739
C133  C     C_R   0.455844 0.985283 0.945073 0.602336
C134  C     C_R   0.014686 0.544176 0.054934 0.600800
C135  C     C_R   0.454678 0.983935 0.027528 -0.168045
C136  C     C_R   0.544167 0.014697 0.945071 0.602721
C137  C     C_R   0.980778 0.457587 0.945051 0.603013
C138  C     C_R   0.542399 0.019277 0.054953 0.601815
C139  C     C_R   0.019214 0.542423 0.945050 0.603128
C140  C     C_R   0.457614 0.980721 0.054955 0.601850
C141  C     C_R   0.983992 0.454660 0.972479 -0.167560
C142  C     C_R   0.545336 0.016058 0.027526 -0.168060
C143  C     C_R   0.500002 0.000004 0.513754 -0.101230
C144  C     C_R   0.000006 0.499995 0.486248 -0.101935
C145  C     C_R   0.499999 0.000004 0.486234 -0.102677
C146  C     C_R   0.000004 0.499998 0.513767 -0.102407
C147  C     C_R   0.000000 0.500007 0.013757 -0.101006
C148  C     C_R   0.000000 0.499999 0.320633 0.818837
C149  C     C_R   0.500006 0.999993 0.986249 -0.101763
C150  C     C_R   0.999998 0.500006 0.986236 -0.102510
C151  C     C_R   0.500006 0.999996 0.013769 -0.102232
C152  C     C_R   0.541133 0.086657 0.513492 0.341447
C153  C     C_R   0.087281 0.539802 0.486507 0.344540
C154  C     C_R   0.458871 0.913352 0.513497 0.341739
C155  C     C_R   0.912731 0.460189 0.486509 0.344520
C156  C     C_R   0.531594 0.090608 0.486540 0.339926
C157  C     C_R   0.908932 0.469774 0.513464 0.339700
C158  C     C_R   0.468403 0.909400 0.486543 0.339937
C159  C     C_R   0.500000 0.000000 0.679367 0.818867
C160  C     C_R   0.091076 0.530226 0.513463 0.339770
C161  C     C_R   0.039865 0.587252 0.013493 0.341277
C162  C     C_R   0.587216 0.039943 0.986508 0.344472
C163  C     C_R   0.960135 0.412763 0.013497 0.341249
C164  C     C_R   0.412799 0.960040 0.986511 0.344388
C165  C     C_R   0.030265 0.591060 0.986540 0.339811
C166  C     C_R   0.408984 0.969619 0.013466 0.339640
C167  C     C_R   0.969730 0.408953 0.986544 0.339991
C168  C     C_R   0.591030 0.030367 0.013463 0.339654
C169  C     C_R   0.047204 0.495799 0.890380 -0.069532
C170  C     C_R   0.500001 0.000000 0.179367 0.818650
C171  C     C_R   0.495586 0.047188 0.109620 -0.069780
C172  C     C_R   0.952789 0.504207 0.890380 -0.068983
C173  C     C_R   0.504427 0.952815 0.109621 -0.069727
C174  C     C_R   0.952845 0.495248 0.109624 -0.070568
C175  C     C_R   0.504877 0.047139 0.890378 -0.070644
C176  C     C_R   0.047163 0.504764 0.109625 -0.070681
C177  C     C_R   0.495129 0.952848 0.890377 -0.069769
C178  C     C_R   0.547162 0.995346 0.390375 -0.069547
C179  C     C_R   0.995679 0.547199 0.609620 -0.070404
C180  C     C_R   0.452831 0.004656 0.390375 -0.069482
C181  C     C_R   0.999999 0.500000 0.820634 0.819074
C182  C     C_R   0.004320 0.452808 0.609620 -0.069916
C183  C     C_R   0.452811 0.995619 0.609625 -0.071000
C184  C     C_R   0.004940 0.547133 0.390377 -0.070658
C185  C     C_R   0.547201 0.004389 0.609626 -0.070888
C186  C     C_R   0.995073 0.452854 0.390377 -0.070573
C187  C     C_R   0.047265 0.495924 0.863218 -0.177352
C188  C     C_R   0.495705 0.047249 0.136782 -0.176997
C189  C     C_R   0.952730 0.504078 0.863218 -0.176602
C190  C     C_R   0.504304 0.952754 0.136783 -0.177056
C191  C     C_R   0.952785 0.495379 0.136786 -0.176776
C192  C     C_R   0.500000 0.999999 0.820633 0.818864
C193  C     C_R   0.504749 0.047200 0.863217 -0.178782
C194  C     C_R   0.047221 0.504629 0.136786 -0.176874
C195  C     C_R   0.495254 0.952792 0.863216 -0.177502
C196  C     C_R   0.547225 0.995484 0.363214 -0.177700
C197  C     C_R   0.995799 0.547258 0.636782 -0.178263
C198  C     C_R   0.452770 0.004516 0.363213 -0.177588
C199  C     C_R   0.004201 0.452746 0.636781 -0.177156
C200  C     C_R   0.452752 0.995741 0.636786 -0.177814
C201  C     C_R   0.004810 0.547194 0.363216 -0.178789
C202  C     C_R   0.547255 0.004265 0.636787 -0.177371
C203  C     C_R   0.000001 0.500000 0.179367 0.818856
C204  C     C_R   0.995198 0.452798 0.363215 -0.178746
C205  C     C_R   0.999998 0.500001 0.849362 -0.030314
C206  C     C_R   0.500003 0.000001 0.150638 -0.028229
C207  C     C_R   0.000002 0.500003 0.150641 -0.030959
C208  C     C_R   0.500001 0.999997 0.849361 -0.028033
C209  C     C_R   0.499998 1.000000 0.349359 -0.029896
C210  C     C_R   0.000000 0.500002 0.650638 -0.027850
C211  C     C_R   0.500003 0.000002 0.650641 -0.030416
C212  C     C_R   0.000002 0.499997 0.349361 -0.027606
C213  C     C_R   0.999996 0.500004 0.904089 0.260780
C214  C     C_R   0.519822 0.043786 0.527518 -0.167313
C215  C     C_R   0.500007 0.000002 0.095913 0.260789
C216  C     C_R   0.000004 0.500007 0.095911 0.255681
C217  C     C_R   0.500004 0.999992 0.904093 0.257541
C218  C     C_R   0.499996 0.000002 0.404085 0.260976
C219  C     C_R   1.000000 0.500004 0.595912 0.261261
C220  C     C_R   0.500007 0.000004 0.595910 0.255885
C221  C     C_R   0.000007 0.499993 0.404092 0.257973
C222  C     C_R   0.900359 0.400379 0.750045 0.835817
C223  C     C_R   0.400378 0.099640 0.249956 0.835089
C224  C     C_R   0.099640 0.599620 0.750045 0.835893
Cl1   Cl    Cl    0.785392 0.871157 0.761283 -0.397784
Cl2   Cl    Cl    0.370569 0.712689 0.741648 -0.391551
Cl3   Cl    Cl    0.713489 0.627607 0.255865 -0.397474
Cl4   Cl    Cl    0.630693 0.286036 0.737000 -0.391753
Cl5   Cl    Cl    0.714526 0.371424 0.739313 -0.398542
Cl6   Cl    Cl    0.629332 0.712676 0.258090 -0.390975
Cl7   Cl    Cl    0.286455 0.627582 0.744016 -0.399001
Cl8   Cl    Cl    0.370525 0.287255 0.258575 -0.390760
Cl9   Cl    Cl    0.805510 0.719741 0.805252 -0.389043
Cl10  Cl    Cl    0.724002 0.192699 0.195156 -0.379091
Cl11  Cl    Cl    0.185831 0.271778 0.803986 -0.390535
Cl12  Cl    Cl    0.869199 0.214119 0.236610 -0.392531
Cl13  Cl    Cl    0.275253 0.808028 0.195260 -0.379122
Cl14  Cl    Cl    0.193927 0.720135 0.194790 -0.386791
Cl15  Cl    Cl    0.267227 0.183965 0.803275 -0.382976
Cl16  Cl    Cl    0.805400 0.280524 0.194719 -0.386588
Cl17  Cl    Cl    0.723721 0.807191 0.804866 -0.381992
Cl18  Cl    Cl    0.312255 0.226305 0.304331 -0.390900
Cl19  Cl    Cl    0.231255 0.685504 0.696392 -0.380741
Cl20  Cl    Cl    0.687093 0.772977 0.304211 -0.390833
Cl21  Cl    Cl    0.775320 0.307949 0.695251 -0.379352
Cl22  Cl    Cl    0.694023 0.220029 0.694778 -0.387302
Cl23  Cl    Cl    0.213385 0.127445 0.754855 -0.398779
Cl24  Cl    Cl    0.768637 0.685302 0.303572 -0.383263
Cl25  Cl    Cl    0.312592 0.773382 0.695720 -0.388203
Cl26  Cl    Cl    0.230893 0.314152 0.303675 -0.382986
Cl27  Cl    Cl    0.130662 0.786053 0.237069 -0.392495
Cl28  Cl    Cl    0.214506 0.871433 0.239363 -0.399573
Cl29  Cl    Cl    0.129201 0.212475 0.757200 -0.391557
Cl30  Cl    Cl    0.785361 0.128727 0.238843 -0.399482
Cl31  Cl    Cl    0.869329 0.785850 0.763252 -0.391985
Cl32  Cl    Cl    0.286425 0.372370 0.256231 -0.397710
H1    H     H_    0.740040 0.679490 0.780970 0.095369
H2    H     H_    0.184032 0.753266 0.715625 0.095081
H3    H     H_    0.799093 0.416934 0.448759 0.396738
H4    H     H_    0.578928 0.202606 0.448798 0.397602
H5    H     H_    0.796252 0.424185 0.551236 0.400924
H6    H     H_    0.421061 0.797405 0.448805 0.397572
H7    H     H_    0.203764 0.575885 0.551207 0.400679
H8    H     H_    0.083221 0.700819 0.051264 0.401204
H9    H     H_    0.700762 0.083386 0.948742 0.396821
H10   H     H_    0.916780 0.299181 0.051261 0.401217
H11   H     H_    0.299236 0.916573 0.948765 0.396826
H12   H     H_    0.075887 0.703739 0.948780 0.397786
H13   H     H_    0.755673 0.816114 0.283548 0.094321
H14   H     H_    0.296382 0.923816 0.051232 0.400975
H15   H     H_    0.924099 0.296274 0.948789 0.397711
H16   H     H_    0.703651 0.076159 0.051216 0.400997
H17   H     H_    0.819983 0.242720 0.717860 0.095913
H18   H     H_    0.759791 0.179835 0.718873 0.095774
H19   H     H_    0.815822 0.753186 0.284425 0.094158
H20   H     H_    0.244094 0.816280 0.716565 0.095712
H21   H     H_    0.183810 0.246504 0.284259 0.094186
H22   H     H_    0.763675 0.700950 0.710826 0.225476
H23   H     H_    0.698797 0.237109 0.288889 0.227602
H24   H     H_    0.242506 0.305120 0.712508 0.225929
H25   H     H_    0.679661 0.257681 0.218093 0.096159
H26   H     H_    0.301723 0.762378 0.288760 0.227648
H27   H     H_    0.236763 0.700611 0.289071 0.226114
H28   H     H_    0.307415 0.243309 0.712937 0.227435
H29   H     H_    0.763725 0.298906 0.289185 0.226101
H30   H     H_    0.698933 0.762936 0.711086 0.226794
H31   H     H_    0.258840 0.196227 0.212093 0.225888
H32   H     H_    0.193668 0.742211 0.787419 0.228073
H33   H     H_    0.741599 0.804251 0.212231 0.225983
H34   H     H_    0.801672 0.262435 0.788775 0.227727
H35   H     H_    0.736698 0.200682 0.789087 0.226203
H36   H     H_    0.254922 0.315305 0.783960 0.094900
H37   H     H_    0.806442 0.742374 0.212621 0.227429
H38   H     H_    0.258611 0.803990 0.787833 0.226539
H39   H     H_    0.193912 0.258020 0.212496 0.227405
H40   H     H_    0.728008 0.664010 0.734476 0.231617
H41   H     H_    0.664230 0.273129 0.264496 0.230787
H42   H     H_    0.274102 0.338204 0.738846 0.231862
H43   H     H_    0.335950 0.726671 0.264138 0.230795
H44   H     H_    0.272098 0.663801 0.265249 0.232149
H45   H     H_    0.337786 0.275170 0.739994 0.230191
H46   H     H_    0.728087 0.335996 0.265582 0.232145
H47   H     H_    0.319933 0.742760 0.217833 0.096155
H48   H     H_    0.664210 0.726936 0.735431 0.230625
H49   H     H_    0.226321 0.162217 0.237856 0.231407
H50   H     H_    0.162533 0.774858 0.760811 0.230254
H51   H     H_    0.773840 0.837907 0.238195 0.231342
H52   H     H_    0.835927 0.226688 0.764177 0.230612
H53   H     H_    0.772068 0.163824 0.765297 0.231726
H54   H     H_    0.837537 0.774884 0.239282 0.229991
H55   H     H_    0.226259 0.837855 0.761969 0.232001
H56   H     H_    0.162595 0.225209 0.239001 0.229941
H57   H     H_    0.828784 0.766246 0.723834 0.090524
H58   H     H_    0.259732 0.679885 0.218837 0.096410
H59   H     H_    0.766038 0.173537 0.277056 0.091726
H60   H     H_    0.175586 0.238282 0.720330 0.090951
H61   H     H_    0.234309 0.826080 0.277356 0.091771
H62   H     H_    0.171376 0.765922 0.276385 0.091424
H63   H     H_    0.238657 0.178272 0.719465 0.091198
H64   H     H_    0.828928 0.233737 0.276101 0.091404
H65   H     H_    0.766052 0.826608 0.722992 0.090953
H66   H     H_    0.325465 0.262765 0.221084 0.091096
H67   H     H_    0.262228 0.677395 0.779936 0.092277
H68   H     H_    0.674926 0.737567 0.220827 0.091126
H69   H     H_    0.314974 0.252284 0.784865 0.094407
H70   H     H_    0.734267 0.326112 0.777325 0.092081
H71   H     H_    0.671324 0.265965 0.776345 0.091628
H72   H     H_    0.737904 0.677461 0.219986 0.091475
H73   H     H_    0.325297 0.737411 0.779038 0.092092
H74   H     H_    0.262420 0.322802 0.220189 0.091429
H75   H     H_    0.083853 0.492377 0.900811 0.166059
H76   H     H_    0.492000 0.083820 0.099187 0.165243
H77   H     H_    0.916138 0.507629 0.900811 0.166421
H78   H     H_    0.508014 0.916183 0.099189 0.165284
H79   H     H_    0.916203 0.491661 0.099197 0.171354
H80   H     H_    0.739907 0.320513 0.219085 0.096479
H81   H     H_    0.508550 0.083771 0.900805 0.170404
H82   H     H_    0.083806 0.508352 0.099198 0.171284
H83   H     H_    0.491456 0.916214 0.900803 0.170895
H84   H     H_    0.583778 0.991567 0.400805 0.166047
H85   H     H_    0.992172 0.583839 0.599188 0.164737
H86   H     H_    0.416214 0.008436 0.400804 0.166098
H87   H     H_    0.007828 0.416169 0.599187 0.165161
H88   H     H_    0.416140 0.992327 0.599200 0.171176
H89   H     H_    0.008661 0.583761 0.400804 0.170303
H90   H     H_    0.583874 0.007681 0.599201 0.171282
H91   H     H_    0.679639 0.742169 0.781842 0.095444
H92   H     H_    0.991353 0.416225 0.400803 0.170339
H93   H     H_    0.084266 0.492626 0.853084 0.181465
H94   H     H_    0.492241 0.084234 0.146915 0.180109
H95   H     H_    0.915729 0.507374 0.853084 0.181962
H96   H     H_    0.507769 0.915769 0.146916 0.180111
H97   H     H_    0.915821 0.491698 0.146921 0.183046
H98   H     H_    0.508517 0.084155 0.853082 0.180047
H99   H     H_    0.084183 0.508308 0.146922 0.182958
H100  H     H_    0.491485 0.915839 0.853081 0.180870
H101  H     H_    0.584192 0.991834 0.353079 0.181210
H102  H     H_    0.243890 0.183511 0.283325 0.094422
H103  H     H_    0.992416 0.584250 0.646914 0.179302
H104  H     H_    0.415804 0.008165 0.353078 0.181297
H105  H     H_    0.007585 0.415754 0.646914 0.180071
H106  H     H_    0.415760 0.992350 0.646920 0.182371
H107  H     H_    0.008624 0.584144 0.353082 0.179985
H108  H     H_    0.584246 0.007654 0.646922 0.182578
H109  H     H_    0.991382 0.415850 0.353080 0.180001
H110  H     H_    0.586190 0.199486 0.551318 0.401177
H111  H     H_    0.200924 0.583034 0.448752 0.396721
H112  H     H_    0.413824 0.800491 0.551305 0.400867
N1    N     N_R   0.500008 0.000004 0.567912 -0.373983
N2    N     N_R   0.000008 0.499991 0.432089 -0.374028
N3    N     N_R   0.499995 0.000003 0.432079 -0.374307
N4    N     N_R   0.000000 0.500004 0.567921 -0.375134
N5    N     N_R   0.000005 0.500007 0.067914 -0.374052
N6    N     N_R   0.500005 0.999991 0.932091 -0.373994
N7    N     N_R   0.999995 0.500005 0.932081 -0.374361
N8    N     N_R   0.500007 0.000001 0.067922 -0.375153
O1    O     O_3   1.000000 0.500000 0.750000 -0.499021
O2    O     O_R   0.456970 0.000230 0.691960 -0.638212
O3    O     O_2   0.877778 0.346877 0.007721 -0.202057
O4    O     O_3   0.944868 0.320631 0.043350 -0.432153
O5    O     O_2   0.399264 0.880593 0.952645 -0.262894
O6    O     O_2   0.347013 0.877602 0.992282 -0.201789
O7    O     O_3   0.320670 0.944682 0.956666 -0.433071
O8    O     O_2   0.981230 0.655487 0.952887 -0.241452
O9    O     O_2   0.015227 0.695445 0.992465 -0.199870
O10   O     O_3   0.081817 0.668881 0.956669 -0.440592
O11   O     O_2   0.344492 0.018537 0.047131 -0.247189
O12   O     O_2   0.304570 0.984509 0.007552 -0.199786
O13   O     O_R   0.999770 0.456970 0.308040 -0.638307
O14   O     O_3   0.331242 0.917936 0.043334 -0.433846
O15   O     O_2   0.018758 0.344522 0.952890 -0.242215
O16   O     O_2   0.984765 0.304568 0.992471 -0.200062
O17   O     O_3   0.918171 0.331133 0.956678 -0.440561
O18   O     O_2   0.655514 0.981444 0.047131 -0.246985
O19   O     O_2   0.695439 0.015453 0.007546 -0.199516
O20   O     O_3   0.668786 0.082041 0.043325 -0.433877
O21   O     O_R   0.543030 0.999770 0.691960 -0.638096
O22   O     O_R   0.499770 0.043030 0.191960 -0.637921
O23   O     O_R   0.043030 0.500230 0.808040 -0.638191
O24   O     O_R   0.500230 0.956970 0.191960 -0.637940
O25   O     O_R   0.956970 0.499770 0.808040 -0.637866
O26   O     O_R   0.500230 0.043030 0.808040 -0.638513
O27   O     O_R   0.956970 0.500230 0.191960 -0.637895
O28   O     O_R   0.499770 0.956970 0.808040 -0.637740
O29   O     O_3   0.500000 1.000000 0.250000 -0.499015
O30   O     O_R   0.043030 0.499770 0.191960 -0.637963
O31   O     O_R   0.939300 0.396520 0.734780 -0.623795
O32   O     O_R   0.396520 0.060700 0.265220 -0.625259
O33   O     O_R   0.060700 0.603480 0.734780 -0.625834
O34   O     O_R   0.603480 0.939300 0.265220 -0.625478
O35   O     O_R   0.060700 0.396520 0.265220 -0.626104
O36   O     O_R   0.603480 0.060700 0.734780 -0.623390
O37   O     O_R   0.939300 0.603480 0.265220 -0.626179
O38   O     O_R   0.396520 0.939300 0.734780 -0.624414
O39   O     O_R   0.439300 0.896520 0.234780 -0.623734
O40   O     O_3   0.000000 0.500000 0.250000 -0.499014
O41   O     O_R   0.896520 0.560700 0.765220 -0.623492
O42   O     O_R   0.560700 0.103480 0.234780 -0.623608
O43   O     O_R   0.103480 0.439300 0.765220 -0.625126
O44   O     O_R   0.560700 0.896520 0.765220 -0.623810
O45   O     O_R   0.103480 0.560700 0.234780 -0.622885
O46   O     O_R   0.439300 0.103480 0.765220 -0.626345
O47   O     O_R   0.896520 0.439300 0.234780 -0.622698
O48   O     O_R   0.103260 0.560510 0.765220 -0.627916
O49   O     O_R   0.560510 0.896740 0.234780 -0.629791
O50   O     O_R   0.896740 0.439490 0.765220 -0.629501
O51   O     O_3   0.500000 1.000000 0.750000 -0.499018
O52   O     O_R   0.439490 0.103260 0.234780 -0.629974
O53   O     O_R   0.896740 0.560510 0.234780 -0.627903
O54   O     O_R   0.439490 0.896740 0.765220 -0.629849
O55   O     O_R   0.103260 0.439490 0.234780 -0.628030
O56   O     O_R   0.560510 0.103260 0.765220 -0.631351
O57   O     O_R   0.603260 0.060510 0.265220 -0.629846
O58   O     O_R   0.060510 0.396740 0.734780 -0.629770
O59   O     O_R   0.396740 0.939490 0.265220 -0.629678
O60   O     O_R   0.939490 0.603260 0.734780 -0.631747
O61   O     O_R   0.396740 0.060510 0.734780 -0.627850
O62   O     O_R   0.999770 0.543030 0.691960 -0.638473
O63   O     O_R   0.939490 0.396740 0.265220 -0.631719
O64   O     O_R   0.603260 0.939490 0.734780 -0.630060
O65   O     O_R   0.060510 0.603260 0.265220 -0.631567
O66   O     O_2   0.476270 0.911869 0.568608 -0.448440
O67   O     O_2   0.911524 0.477584 0.431392 -0.449188
O68   O     O_2   0.523751 0.088138 0.568605 -0.448139
O69   O     O_2   0.088492 0.522392 0.431391 -0.449125
O70   O     O_2   0.456163 0.919926 0.431316 -0.455227
O71   O     O_2   0.080693 0.542692 0.568688 -0.450909
O72   O     O_2   0.543827 0.080081 0.431312 -0.455219
O73   O     O_R   0.543030 0.000230 0.308040 -0.638221
O74   O     O_2   0.919305 0.457321 0.568688 -0.450376
O75   O     O_2   0.977493 0.411555 0.068617 -0.447927
O76   O     O_2   0.411556 0.977440 0.931395 -0.449215
O77   O     O_2   0.022519 0.588459 0.068614 -0.447915
O78   O     O_2   0.588454 0.022538 0.931392 -0.448758
O79   O     O_2   0.957314 0.419310 0.931317 -0.454956
O80   O     O_2   0.580638 0.042804 0.068688 -0.450240
O81   O     O_2   0.042678 0.580700 0.931314 -0.454796
O82   O     O_2   0.419376 0.957195 0.068692 -0.450266
O83   O     O_2   0.620777 0.099075 0.547350 -0.257370
O84   O     O_R   0.000230 0.456970 0.691960 -0.637817
O85   O     O_2   0.624478 0.151290 0.507716 -0.202317
O86   O     O_3   0.557789 0.178555 0.543341 -0.431968
O87   O     O_2   0.100972 0.619209 0.452631 -0.263717
O88   O     O_2   0.153226 0.622118 0.492268 -0.202406
O89   O     O_3   0.179441 0.554971 0.456661 -0.432994
O90   O     O_2   0.379239 0.900931 0.547363 -0.257927
O91   O     O_2   0.375523 0.848722 0.507727 -0.202561
O92   O     O_3   0.442224 0.821451 0.543346 -0.432191
O93   O     O_2   0.899049 0.380767 0.452642 -0.263599
O94   O     O_2   0.846792 0.377873 0.492279 -0.202050
O95   O     O_R   0.456970 0.999770 0.308040 -0.638165
O96   O     O_3   0.820574 0.445003 0.456664 -0.433057
O97   O     O_2   0.483537 0.155775 0.452889 -0.242045
O98   O     O_2   0.518138 0.195210 0.492467 -0.199949
O99   O     O_3   0.584315 0.167644 0.456670 -0.440902
O100  O     O_2   0.844532 0.518810 0.547130 -0.247494
O101  O     O_2   0.804546 0.484860 0.507549 -0.199852
O102  O     O_3   0.831093 0.418235 0.543331 -0.433961
O103  O     O_2   0.516452 0.844231 0.452890 -0.242138
O104  O     O_2   0.481861 0.804799 0.492472 -0.200055
O105  O     O_3   0.415674 0.832364 0.456679 -0.440913
O106  O     O_R   0.000230 0.543030 0.308040 -0.638323
O107  O     O_2   0.155481 0.481223 0.547141 -0.247260
O108  O     O_2   0.195466 0.515155 0.507556 -0.199828
O109  O     O_3   0.168896 0.581799 0.543324 -0.434671
O110  O     O_2   0.119327 0.600870 0.047343 -0.256526
O111  O     O_2   0.122217 0.653142 0.007711 -0.202083
O112  O     O_3   0.055133 0.679384 0.043344 -0.432084
O113  O     O_2   0.600760 0.119384 0.952637 -0.263526
O114  O     O_2   0.653016 0.122371 0.992273 -0.201888
O115  O     O_3   0.679344 0.055282 0.956660 -0.432710
O116  O     O_2   0.880680 0.399147 0.047353 -0.256341
S1    S     S_3+6 0.588430 0.129134 0.528014 0.145662
S2    S     S_3+6 0.630356 0.086628 0.971980 0.142247
S3    S     S_3+6 0.913482 0.369579 0.028019 0.146093
S4    S     S_3+6 0.369664 0.913346 0.971987 0.142443
S5    S     S_3+6 0.025581 0.654545 0.972108 0.148704
S6    S     S_3+6 0.345494 0.974201 0.027904 0.148867
S7    S     S_3+6 0.974410 0.345468 0.972113 0.148377
S8    S     S_3+6 0.654520 0.025775 0.027900 0.149062
S9    S     S_3+6 0.130506 0.586408 0.471977 0.141916
S10   S     S_3+6 0.411578 0.870875 0.528022 0.145261
S11   S     S_3+6 0.869510 0.413575 0.471984 0.142077
S12   S     S_3+6 0.527869 0.154159 0.472109 0.148368
S13   S     S_3+6 0.845450 0.474474 0.527901 0.148706
S14   S     S_3+6 0.472124 0.845849 0.472113 0.148298
S15   S     S_3+6 0.154555 0.525546 0.527905 0.148631
S16   S     S_3+6 0.086519 0.630437 0.028012 0.146001
Zn1   Zn    Zn3+2 0.938390 0.500010 0.771740 1.020929
Zn2   Zn    Zn3+2 0.000010 0.561610 0.728260 1.017937
Zn3   Zn    Zn3+2 0.561610 0.999990 0.271740 1.019304
Zn4   Zn    Zn3+2 0.999990 0.438390 0.728260 1.020663
Zn5   Zn    Zn3+2 0.561610 0.000010 0.728260 1.020481
Zn6   Zn    Zn3+2 0.999990 0.561610 0.271740 1.017992
Zn7   Zn    Zn3+2 0.438390 0.999990 0.728260 1.021015
Zn8   Zn    Zn3+2 0.000010 0.438390 0.271740 1.017962
Zn9   Zn    Zn3+2 0.500010 0.061610 0.228260 1.020615
Zn10  Zn    Zn3+2 0.061610 0.499990 0.771740 1.020636
Zn11  Zn    Zn3+2 0.499990 0.938390 0.228260 1.020628
Zn12  Zn    Zn3+2 0.061610 0.500010 0.228260 1.021976
Zn13  Zn    Zn3+2 0.499990 0.061610 0.771740 1.017931
Zn14  Zn    Zn3+2 0.938390 0.499990 0.228260 1.022195
Zn15  Zn    Zn3+2 0.500010 0.938390 0.771740 1.020758
Zn16  Zn    Zn3+2 0.438390 0.000010 0.271740 1.019566

loop_
_geom_bond_atom_site_label_1
_geom_bond_atom_site_label_2
_ccdc_geom_bond_type
O33   Zn2   S    
C75   C107  S    
O105  S14   S    
C57   C145  A    
C148  O13   A    
C34   C42   S    
C8    C56   S    
C57   C128  A    
C180  H86   S    
C68   C146  A    
O1    Zn2   S    
C168  S8    S    
C192  O28   A    
C102  H51   S    
C54   C107  T    
H112  O92   S    
O28   Zn15  S    
C154  C158  A    
C40   Cl15  S    
C167  S7    S    
C148  C212  S    
C166  S6    S    
C67   C121  T    
C159  C211  S    
C35   C145  A    
C39   C74   S    
O93   S11   D    
C198  C209  A    
C172  H77   S    
C48   Cl22  S    
C187  H93   S    
C203  O27   A    
C222  O31   A    
C53   C106  T    
C190  C206  A    
C158  S14   S    
C84   C117  S    
C159  O21   A    
C59   C111  T    
C1    O62   A    
O51   Zn15  S    
C201  C212  A    
O50   Zn1   S    
C36   C71   S    
C174  C191  A    
C179  H85   S    
C181  O25   A    
C193  C208  A    
C113  C133  A    
O8    S5    D    
C175  C217  A    
C8    O59   A    
C79   C161  A    
C129  O71   S    
O41   Zn1   S    
C65   C222  S    
C198  H104  S    
C131  N4    A    
C33   Cl32  S    
C170  O24   A    
C80   C103  S    
C97   H38   S    
C15   C54   S    
C30   Cl4   S    
C33   H74   S    
C101  C163  A    
C147  C150  A    
C88   H46   S    
C169  C187  A    
C213  N7    S    
O60   Zn2   S    
H14   O14   S    
O42   Zn9   S    
H3    O96   S    
C98   C102  S    
C152  C214  A    
C4    C61   S    
C34   H1    S    
C17   H57   S    
C43   C78   S    
C138  O80   S    
C185  C202  A    
C134  O77   S    
O113  S2    D    
C7    C62   S    
C204  C212  A    
C41   H80   S    
C16   O63   A    
C197  H103  S    
O85   S1    D    
C97   C103  S    
C186  C221  A    
C26   Cl8   S    
C96   C104  S    
C185  H90   S    
C7    O54   A    
O89   S9    S    
C47   Cl21  S    
O18   S8    D    
C196  H101  S    
O1    Zn4   S    
C42   H91   S    
C44   C50   S    
C18   C71   S    
C177  C195  A    
C179  C219  A    
C58   C110  T    
C85   C116  S    
C45   C81   S    
C182  C199  A    
C177  C217  A    
O11   S6    D    
C153  S9    S    
C164  S4    S    
O116  S3    D    
C44   H2    S    
C169  C213  A    
C104  H49   S    
C17   C25   S    
C95   H40   S    
C9    C60   S    
O47   Zn14  S    
C29   C82   S    
C112  C209  S    
C41   C76   S    
C46   C157  A    
C160  S15   S    
C46   C146  A    
C91   H44   S    
C37   H36   S    
C63   C117  T    
C25   Cl1   S    
C135  C166  A    
C20   C73   S    
O51   Zn13  S    
O86   S1    S    
C77   C105  S    
C132  N5    A    
C49   Cl24  S    
C180  C198  A    
C142  C168  A    
C101  C132  A    
O2    Zn7   S    
C138  N8    A    
C20   C21   S    
C49   H19   S    
C139  O81   S    
O21   Zn5   S    
C86   C115  S    
C68   C160  A    
O24   Zn11  S    
C175  C193  A    
C161  C165  A    
C41   Cl16  S    
C48   H18   S    
C170  O22   A    
C224  O48   A    
O40   Zn14  S    
C12   O44   A    
C2    C144  A    
C124  C139  A    
C60   C114  T    
O97   S12   D    
C133  N6    A    
C64   C118  T    
C191  H97   S    
C11   O58   A    
C18   Cl30  S    
O96   S11   S    
C194  C207  A    
C26   C78   S    
C9    O60   A    
H12   O10   S    
C90   C162  A    
C195  H100  S    
O91   S10   D    
C173  C215  A    
C36   H25   S    
C37   C40   S    
C221  N2    S    
C175  H81   S    
O114  S2    D    
C38   C39   S    
C20   Cl28  S    
C131  O74   S    
C36   Cl10  S    
O38   Zn7   S    
O49   Zn11  S    
C51   H21   S    
C29   H70   S    
O15   S7    D    
O88   S9    D    
C92   H26   S    
C19   Cl29  S    
C195  C208  A    
C47   C48   S    
C181  O23   A    
C87   C95   S    
C100  H34   S    
C91   H27   S    
C6    O53   A    
C190  H96   S    
C19   H60   S    
C11   C58   S    
C89   H45   S    
C2    C127  A    
C123  O66   S    
C14   C55   S    
C182  C219  A    
C12   O64   A    
O110  S16   D    
O111  S16   D    
C15   O61   A    
O29   Zn9   S    
C141  C150  A    
C37   Cl11  S    
O34   Zn3   S    
C43   Cl18  S    
C184  C221  A    
O57   Zn3   S    
C88   C94   S    
C200  C211  A    
C92   H43   S    
C78   C104  S    
C152  C156  A    
C85   C97   S    
C219  N4    S    
O92   S10   S    
C27   C80   S    
C91   C92   S    
O4    S3    S    
C165  S5    S    
C178  C196  A    
C31   C84   S    
C204  H109  S    
C69   C223  S    
O26   Zn13  S    
H111  O89   S    
C61   C115  T    
C29   C30   S    
O55   Zn12  S    
O65   Zn6   S    
C26   C33   S    
C163  C167  A    
H4    O99   S    
C187  C205  A    
C25   H65   S    
H110  O86   S    
C7    O38   A    
C191  C207  A    
O19   S8    D    
C50   Cl25  S    
C35   C130  A    
C102  H33   S    
C162  C168  A    
C32   Cl2   S    
C52   C105  T    
C98   H37   S    
C139  N7    A    
C56   C109  T    
O107  S15   D    
C79   C134  A    
C34   C70   S    
C101  C147  A    
C89   H28   S    
C76   C106  S    
C184  C201  A    
C73   C92   S    
O1    Zn1   S    
O61   Zn7   S    
C130  N3    A    
O64   Zn5   S    
C48   C83   S    
C55   C108  T    
C126  N1    A    
O51   Zn7   S    
C96   H39   S    
C29   Cl5   S    
C10   O42   A    
C88   H29   S    
H8    O112  S    
C69   C122  T    
C78   C122  S    
C184  H89   S    
O46   Zn13  S    
C130  O72   S    
C174  C216  A    
C199  H105  S    
C89   C93   S    
C40   H69   S    
C75   C89   S    
C203  O30   A    
C124  C165  A    
O17   S7    S    
O102  S13   S    
C148  O106  A    
C77   C87   S    
C42   C77   S    
O63   Zn8   S    
C32   H73   S    
O40   Zn12  S    
C23   C76   S    
O99   S12   S    
C3    O49   A    
C34   Cl9   S    
O29   Zn11  S    
O54   Zn15  S    
H15   O17   S    
C57   C158  A    
C189  H95   S    
C185  C220  A    
C140  O82   S    
C155  C157  A    
O95   Zn16  S    
O6    S4    D    
O106  Zn6   S    
C14   O45   A    
C188  C206  A    
C38   H47   S    
C171  C188  A    
O73   Zn3   S    
C31   H72   S    
C170  C206  S    
H10   O4    S    
O84   Zn4   S    
O10   S5    S    
O58   Zn4   S    
H6    O105  S    
C173  C190  A    
C6    O37   A    
C163  S3    S    
C154  S10   S    
C30   C83   S    
C51   Cl26  S    
C197  C210  A    
C126  C214  A    
C50   C85   S    
C186  H92   S    
O13   Zn8   S    
C189  C205  A    
C157  S13   S    
C124  C150  A    
O112  S16   S    
C155  S11   S    
C202  C211  A    
C128  O70   S    
C80   C121  S    
O108  S15   D    
C171  C215  A    
H5    O102  S    
C28   C81   S    
C178  H84   S    
O7    S4    S    
C95   H22   S    
C83   C99   S    
C36   C41   S    
C182  H87   S    
C82   C119  S    
C133  O76   S    
C51   C86   S    
C12   C52   S    
C193  H98   S    
O3    S3    D    
C135  C140  A    
C112  O73   A    
C141  C167  A    
C201  H107  S    
C44   C80   S    
C144  C146  A    
C138  C142  A    
C79   C147  A    
C140  N8    A    
C1    O84   A    
C70   C114  S    
O20   S8    S    
C74   C91   S    
C9    O41   A    
C220  N1    S    
C134  N5    A    
O37   Zn6   S    
C45   C49   S    
C103  H50   S    
O40   Zn6   S    
C30   H71   S    
C65   C119  T    
C222  O50   A    
O62   Zn2   S    
C45   Cl20  S    
O109  S15   S    
C86   C96   S    
O56   Zn13  S    
C96   H56   S    
C13   C123  A    
C196  C209  A    
O12   S6    D    
C28   H68   S    
C162  S2    S    
O115  S2    S    
C93   H42   S    
C3    C66   S    
O27   Zn14  S    
O90   S10   D    
C172  C213  A    
C49   C84   S    
O36   Zn5   S    
C22   H63   S    
C112  O95   A    
C137  C141  A    
C223  O32   A    
O16   S7    D    
C27   C32   S    
C178  C218  A    
C28   C31   S    
C183  C200  A    
C13   C154  A    
C15   O46   A    
C73   C109  S    
C172  C189  A    
C169  H75   S    
C42   Cl17  S    
C136  O78   S    
C40   C75   S    
C199  C210  A    
C149  C151  A    
C10   C59   S    
C218  N3    S    
O35   Zn8   S    
C8    O39   A    
C43   C51   S    
C24   C144  A    
C135  C151  A    
C32   C85   S    
C13   C143  A    
C67   C224  S    
C103  H32   S    
O83   S1    D    
C74   C108  S    
C26   H66   S    
C5    C64   S    
C37   C72   S    
C171  H76   S    
C153  C160  A    
C98   H54   S    
C176  C194  A    
O48   Zn10  S    
C3    O34   A    
C159  O2    A    
O31   Zn4   S    
C113  C164  A    
C6    C63   S    
C183  C220  A    
C31   Cl3   S    
H9    O115  S    
C223  O52   A    
C180  C218  A    
C87   H30   S    
C177  H83   S    
C11   O43   A    
C215  N8    S    
C71   C94   S    
O32   Zn16  S    
C45   H13   S    
C81   C120  S    
C21   H62   S    
C25   C77   S    
C83   C118  S    
C23   H64   S    
C176  H82   S    
C22   Cl23  S    
C5    O56   A    
C202  H108  S    
O40   Zn8   S    
C217  N6    S    
C47   C82   S    
O52   Zn9   S    
C16   C53   S    
O14   S6    S    
C93   H24   S    
C216  N5    S    
C10   O57   A    
C181  C205  S    
C71   C111  S    
C161  S16   S    
C176  C216  A    
O94   S11   D    
C76   C88   S    
C224  O33   A    
C24   C155  A    
O104  S14   D    
C125  O67   S    
O59   Zn16  S    
C126  O68   S    
C94   H23   S    
C43   H102  S    
C136  N6    A    
C17   C70   S    
C66   C120  T    
O100  S13   D    
C87   H48   S    
C192  C208  S    
O25   Zn1   S    
C19   C72   S    
H16   O20   S    
C22   C75   S    
C90   C149  A    
C99   H35   S    
O87   S9    D    
O53   Zn14  S    
C81   C102  S    
C174  H79   S    
O44   Zn15  S    
C72   C110  S    
C27   H67   S    
C18   C23   S    
C113  C149  A    
C18   H59   S    
C123  N1    A    
C19   C22   S    
C35   C156  A    
C183  H88   S    
C179  C197  A    
C192  O26   A    
C4    O35   A    
C203  C207  S    
C21   C74   S    
C188  H94   S    
O98   S12   D    
H11   O7    S    
C33   C86   S    
C62   C116  T    
C173  H78   S    
C129  N4    A    
O1    Zn10  S    
C90   C136  A    
C99   C100  S    
O51   Zn5   S    
O45   Zn12  S    
C186  C204  A    
O23   Zn10  S    
C127  O69   S    
O5    S4    D    
C127  N2    A    
C143  C214  A    
C23   Cl12  S    
O103  S14   D    
C27   Cl7   S    
O22   Zn9   S    
O101  S13   D    
C97   H55   S    
C2    C153  A    
C24   C125  A    
C99   H53   S    
C72   C93   S    
C16   O47   A    
C5    O36   A    
H7    O109  S    
C20   H61   S    
C143  C145  A    
C128  N3    A    
C17   Cl31  S    
C1    C210  S    
C82   C100  S    
C152  S1    S    
C137  O79   S    
C4    O55   A    
C194  H99   S    
C21   Cl27  S    
C132  O75   S    
C47   H17   S    
O29   Zn3   S    
C142  C151  A    
C84   C98   S    
C164  C166  A    
C70   C95   S    
C125  N2    A    
C38   Cl13  S    
O9    S5    D    
C46   C131  A    
O43   Zn10  S    
C200  H106  S    
C28   Cl6   S    
C94   H41   S    
C68   C129  A    
C137  N7    A    
C104  H31   S    
C100  H52   S    
O39   Zn11  S    
C156  S12   S    
C50   H20   S    
C14   O65   A    
O29   Zn16  S    
C39   H58   S    
C39   Cl14  S    
C44   Cl19  S    
O30   Zn12  S    
C38   C73   S    
