data_mof_unit_58640.cif
_audit_creation_date              2012-10-26T20:39:26-0400
_audit_creation_method            fapswitch 2.2
_symmetry_space_group_name_H-M    P1
_symmetry_Int_Tables_number       1
_space_group_crystal_system       triclinic
_cell_length_a                    14.348797
_cell_length_b                    13.015868
_cell_length_c                    11.783072
_cell_angle_alpha                 100.954878
_cell_angle_beta                  94.750453
_cell_angle_gamma                 91.746881
_cell_volume                      2150.7031023

loop_
_atom_site_label
_atom_site_type_symbol
_atom_type_description
_atom_site_fract_x
_atom_site_fract_y
_atom_site_fract_z
_atom_type_partial_charge
C1    C     C_R   0.499266 0.298940 0.477912 0.545197
C2    C     C_R   0.447490 0.479338 0.844887 0.025618
C3    C     C_R   0.542826 0.518598 0.032770 -0.031039
C4    C     C_R   0.457407 0.482196 0.967304 -0.027098
C5    C     C_R   0.331026 0.499622 0.499119 0.540478
C6    C     C_R   0.668973 0.500378 0.500879 0.540493
C7    C     C_1   0.228597 0.499456 0.497677 -0.051984
C8    C     C_1   0.771401 0.500554 0.502315 -0.052202
C9    C     C_1   0.143212 0.499541 0.498007 -0.050915
C10   C     C_1   0.856786 0.500474 0.501975 -0.051381
C11   C     C_1   0.042654 0.499849 0.499324 -0.012298
C12   C     C_R   0.499542 0.700934 0.522286 0.545121
C13   C     C_1   0.957344 0.500168 0.500650 -0.012562
C14   C     C_R   0.498686 0.814777 0.535963 -0.024116
C15   C     C_R   0.498696 0.184995 0.465335 -0.021785
C16   C     C_R   0.475772 0.011697 0.344558 -0.012792
C17   C     C_R   0.525235 0.987840 0.656865 -0.014763
C18   C     C_R   0.483795 0.120283 0.356020 -0.142898
C19   C     C_R   0.518173 0.879106 0.644821 -0.146395
C20   C     C_R   0.511091 0.141072 0.564628 -0.142735
C21   C     C_R   0.480949 0.858890 0.437998 -0.139668
C22   C     C_R   0.448887 0.948053 0.227203 0.019041
C23   C     C_R   0.509997 0.032632 0.556374 0.025224
C24   C     C_R   0.362728 0.962523 0.167762 -0.111436
C25   C     C_R   0.334333 0.899252 0.059899 -0.123262
C26   C     C_R   0.390903 0.819970 0.011655 -0.106769
C27   C     C_R   0.476606 0.805310 0.070284 -0.116825
C28   C     C_R   0.506954 0.870836 0.175906 -0.105014
C29   C     C_R   0.551550 0.050662 0.775050 0.017700
C30   C     C_R   0.498729 0.038809 0.867445 -0.100243
C31   C     C_R   0.525107 0.095019 0.979432 -0.114358
C32   C     C_R   0.603857 0.163952 0.000239 -0.101698
C33   C     C_R   0.657529 0.175298 0.909326 -0.113540
C34   C     C_R   0.489202 0.967135 0.445311 0.028097
C35   C     C_R   0.632274 0.118008 0.797430 -0.108718
C36   C     C_3   0.660851 0.645458 0.814936 -0.217117
C37   C     C_3   0.659676 0.758376 0.883709 -0.330664
C38   C     C_3   0.725458 0.832537 0.838283 -0.456319
C39   C     C_3   0.336581 0.358701 0.184923 -0.207854
C40   C     C_3   0.328364 0.247235 0.109608 -0.316839
C41   C     C_3   0.229694 0.197878 0.102553 -0.457857
C42   C     C_R   0.287122 0.432698 0.969815 0.012458
C43   C     C_R   0.258786 0.349666 0.876903 -0.112406
C44   C     C_R   0.166612 0.340266 0.826006 -0.109249
C45   C     C_R   0.385190 0.446227 0.025365 -0.036896
C46   C     C_R   0.102065 0.413448 0.867103 -0.103306
C47   C     C_R   0.129602 0.496179 0.959195 -0.117793
C48   C     C_R   0.221647 0.505812 0.010431 -0.098362
C49   C     C_R   0.712570 0.570709 0.030406 0.011301
C50   C     C_R   0.778989 0.499015 0.989194 -0.096741
C51   C     C_R   0.870712 0.508985 0.041494 -0.117192
C52   C     C_R   0.897000 0.590686 0.135186 -0.098519
C53   C     C_R   0.831519 0.662511 0.176793 -0.103241
C54   C     C_R   0.739644 0.652681 0.124887 -0.117718
C55   C     C_R   0.614636 0.556025 0.974790 -0.045212
C56   C     C_R   0.404589 0.432406 0.142130 0.150478
C57   C     C_R   0.594985 0.569179 0.857786 0.143289
C58   C     C_R   0.552761 0.520585 0.155184 0.025230
Cu1   Cu    Cu3+1 0.506360 0.507730 0.615930 0.904075
Cu2   Cu    Cu3+1 0.493640 0.492270 0.384070 0.905485
H1    H     H_    0.460597 0.807419 0.355935 0.147492
H2    H     H_    0.518973 0.742238 0.034775 0.111405
H3    H     H_    0.573867 0.858805 0.219937 0.100352
H4    H     H_    0.437247 0.985999 0.852758 0.111243
H5    H     H_    0.484687 0.084795 0.050143 0.117015
H6    H     H_    0.623682 0.207897 0.086950 0.118986
H7    H     H_    0.719108 0.227910 0.925720 0.104518
H8    H     H_    0.675475 0.126163 0.728226 0.107574
H9    H     H_    0.798887 0.809099 0.849976 0.156099
H10   H     H_    0.706289 0.831557 0.744813 0.151986
H11   H     H_    0.720453 0.913677 0.887291 0.164185
H12   H     H_    0.520433 0.192277 0.648826 0.145437
H13   H     H_    0.587626 0.786165 0.876626 0.159578
H14   H     H_    0.681123 0.763386 0.976620 0.168955
H15   H     H_    0.733247 0.617589 0.818054 0.132272
H16   H     H_    0.641868 0.653509 0.726219 0.212938
H17   H     H_    0.210210 0.193424 0.190844 0.146707
H18   H     H_    0.178473 0.244827 0.061087 0.172304
H19   H     H_    0.226904 0.117442 0.049535 0.138257
H20   H     H_    0.348731 0.244941 0.020792 0.170353
H21   H     H_    0.377453 0.196870 0.147859 0.138575
H22   H     H_    0.357070 0.345449 0.271816 0.199893
H23   H     H_    0.529811 0.844495 0.720625 0.130231
H24   H     H_    0.267243 0.394407 0.188563 0.134631
H25   H     H_    0.308162 0.292873 0.843234 0.096052
H26   H     H_    0.145311 0.276411 0.754405 0.107724
H27   H     H_    0.030801 0.406228 0.827383 0.105861
H28   H     H_    0.079744 0.553147 0.990659 0.105037
H29   H     H_    0.242169 0.570579 0.081460 0.111243
H30   H     H_    0.759410 0.434966 0.917030 0.102648
H31   H     H_    0.921259 0.453018 0.009676 0.101454
H32   H     H_    0.968019 0.598160 0.175719 0.106272
H33   H     H_    0.851843 0.725586 0.249603 0.107113
H34   H     H_    0.477233 0.154318 0.279336 0.116331
H35   H     H_    0.689450 0.708411 0.158667 0.083106
H36   H     H_    0.385205 0.445623 0.792210 0.139687
H37   H     H_    0.615153 0.553755 0.207939 0.140597
H38   H     H_    0.316990 0.021577 0.205941 0.108299
H39   H     H_    0.267795 0.910546 0.014679 0.102841
H40   H     H_    0.368140 0.769476 0.929326 0.117108
N1    N     N_R   0.515930 0.519350 0.790130 -0.231600
N2    N     N_R   0.484070 0.480650 0.209870 -0.231486
O1    O     O_R   0.504510 0.354460 0.582000 -0.494552
O2    O     O_R   0.495490 0.645540 0.418000 -0.494705
O3    O     O_R   0.493770 0.341410 0.386200 -0.514718
O4    O     O_R   0.506230 0.658590 0.613800 -0.515987
O5    O     O_R   0.381420 0.506530 0.597920 -0.480350
O6    O     O_R   0.618580 0.493470 0.402080 -0.479906
O7    O     O_R   0.370680 0.493470 0.402120 -0.504228
O8    O     O_R   0.629320 0.506530 0.597880 -0.504336

loop_
_geom_bond_atom_site_label_1
_geom_bond_atom_site_label_2
_ccdc_geom_bond_type
C15   C18   A    
C37   H14   S    
C38   H10   S    
C30   H4    S    
C17   C29   S    
C44   H26   S    
C53   C54   A    
C26   C27   A    
C29   C30   A    
C24   H38   S    
C14   C21   A    
C36   C37   S    
C27   H2    S    
C39   H24   S    
C12   O2    A    
C41   H17   S    
C30   C31   A    
C19   H23   S    
C49   C54   A    
Cu1   O8    S    
C31   H5    S    
Cu2   O7    S    
C36   H16   S    
C16   C34   A    
C46   C47   A    
C3    C55   A    
C25   H39   S    
C47   C48   A    
C45   C56   A    
C44   C46   A    
C40   H20   S    
C58   N2    A    
C1    O1    A    
C21   H1    S    
Cu2   O6    S    
C51   H31   S    
C38   H9    S    
Cu1   Cu2   S    
C22   C28   A    
C6    O8    A    
C58   H37   S    
Cu2   N2    S    
C14   C19   A    
C50   H30   S    
C4    C45   A    
C15   C20   A    
Cu1   O4    S    
C53   H33   S    
C51   C52   A    
C43   H25   S    
C24   C25   A    
C36   C57   S    
C41   H18   S    
C5    C7    S    
C17   C19   A    
C42   C48   A    
C21   C34   A    
C2    N1    A    
C25   C26   A    
C49   C55   S    
Cu1   O5    S    
C42   C45   S    
Cu1   N1    S    
C2    C4    A    
C43   C44   A    
C28   H3    S    
C37   C38   S    
C36   H15   S    
C39   C56   S    
C20   C23   A    
C23   C34   A    
C50   C51   A    
C17   C23   A    
C9    C11   S    
C54   H35   S    
C1    C15   S    
C16   C18   A    
C40   C41   S    
C12   C14   S    
C48   H29   S    
C55   C57   A    
C18   H34   S    
C22   C24   A    
C52   H32   S    
C42   C43   A    
C3    C4    A    
C39   C40   S    
C52   C53   A    
C33   H7    S    
C32   H6    S    
C46   H27   S    
C5    O5    A    
C7    C9    T    
C37   H13   S    
C38   H11   S    
C16   C22   S    
C40   H21   S    
C31   C32   A    
C39   H22   S    
C10   C13   S    
C41   H19   S    
C6    C8    S    
C57   N1    A    
C29   C35   A    
Cu1   O1    S    
C32   C33   A    
C2    H36   S    
C56   N2    A    
C47   H28   S    
C12   O4    A    
C11   C13   T    
C5    O7    A    
C35   H8    S    
C33   C35   A    
C3    C58   A    
C8    C10   T    
C49   C50   A    
C26   H40   S    
C27   C28   A    
C6    O6    A    
C20   H12   S    
Cu2   O2    S    
Cu2   O3    S    
C1    O3    A    
