data_mof_unit_15529.cif
_audit_creation_date              2013-03-05T15:48:35-0500
_audit_creation_method            fapswitch 2.2
_symmetry_space_group_name_H-M    P1
_symmetry_Int_Tables_number       1
_space_group_crystal_system       triclinic
_cell_length_a                    16.764986
_cell_length_b                    16.762002
_cell_length_c                    42.70829
_cell_angle_alpha                 89.810315
_cell_angle_beta                  89.981641
_cell_angle_gamma                 120.06572
_cell_volume                      10386.7671313

loop_
_atom_site_label
_atom_site_type_symbol
_atom_site_description
_atom_site_fract_x
_atom_site_fract_y
_atom_site_fract_z
_atom_type_partial_charge
O1    O     O_R   0.509640 0.171340 0.784000 -0.411417
O2    O     O_R   0.661700 0.490360 0.716000 -0.443071
O3    O     O_R   0.828660 0.338300 0.784000 -0.430528
O4    O     O_R   0.509640 0.171340 0.716000 -0.442396
O5    O     O_R   0.661700 0.490360 0.784000 -0.418004
O6    O     O_R   0.828660 0.338300 0.716000 -0.448723
O7    O     O_R   0.171340 0.509640 0.284000 -0.439494
O8    O     O_R   0.490360 0.661700 0.216000 -0.420541
O9    O     O_R   0.338300 0.828660 0.284000 -0.439636
O10   O     O_R   0.171340 0.509640 0.216000 -0.420918
O11   O     O_R   0.490360 0.661700 0.284000 -0.436188
O12   O     O_R   0.338300 0.828660 0.216000 -0.420798
O13   O     O_R   0.539230 0.345420 0.781810 -0.458466
O14   O     O_R   0.806190 0.460770 0.718190 -0.445007
O15   O     O_R   0.654580 0.193810 0.781810 -0.473571
O16   O     O_R   0.539230 0.345420 0.718190 -0.449646
O17   O     O_R   0.806190 0.460770 0.781810 -0.458247
O18   O     O_R   0.654580 0.193810 0.718190 -0.443216
O19   O     O_R   0.345420 0.539230 0.281810 -0.457239
O20   O     O_R   0.460770 0.806190 0.218190 -0.463502
O21   O     O_R   0.193810 0.654580 0.281810 -0.454852
O22   O     O_R   0.345420 0.539230 0.218190 -0.463964
O23   O     O_R   0.460770 0.806190 0.281810 -0.452103
O24   O     O_R   0.193810 0.654580 0.218190 -0.463738
C1    C     C_R   0.581978 0.426447 0.794181 0.614205
C2    C     C_R   0.845410 0.417902 0.706153 0.616974
C3    C     C_R   0.572781 0.154962 0.793829 0.615788
C4    C     C_R   0.583959 0.427364 0.705483 0.608058
C5    C     C_R   0.843865 0.417453 0.794307 0.620793
C6    C     C_R   0.572675 0.156506 0.705529 0.620435
C7    C     C_R   0.426510 0.583745 0.294542 0.595036
C8    C     C_R   0.417110 0.843392 0.205463 0.594901
C9    C     C_R   0.157624 0.573358 0.294634 0.594832
C10   C     C_R   0.426786 0.583205 0.205726 0.598587
C11   C     C_R   0.416390 0.842903 0.294422 0.583299
C12   C     C_R   0.156308 0.573395 0.205721 0.603014
Cr1   Cr    Cr6+3 0.530290 0.262330 0.750000 1.259284
Cr2   Cr    Cr6+3 0.732040 0.469710 0.750000 1.256046
Cr3   Cr    Cr6+3 0.737670 0.267960 0.750000 1.233305
Cr4   Cr    Cr6+3 0.262330 0.530290 0.250000 1.240378
Cr5   Cr    Cr6+3 0.469710 0.732040 0.250000 1.246577
Cr6   Cr    Cr6+3 0.267960 0.737670 0.250000 1.239176
O25   O     O_3   0.666667 0.333333 0.750000 -0.333931
O26   O     O_3   0.333333 0.666667 0.250000 -0.349591
C13   C     C_R   0.894476 0.453488 0.824358 -0.034968
C14   C     C_R   0.555093 0.110711 0.674351 -0.027039
C15   C     C_R   0.543605 0.441251 0.823721 -0.035379
C16   C     C_R   0.888969 0.446967 0.674887 -0.034644
C17   C     C_R   0.557960 0.106012 0.823957 -0.041333
C18   C     C_R   0.554131 0.446245 0.674795 -0.033390
C19   C     C_R   0.449792 0.892249 0.324552 -0.050027
C20   C     C_R   0.101948 0.555461 0.176491 -0.041840
C21   C     C_R   0.443279 0.550205 0.324656 -0.042618
C22   C     C_R   0.452551 0.894174 0.175221 -0.042506
C23   C     C_R   0.109093 0.556318 0.325123 -0.044443
C24   C     C_R   0.444837 0.548453 0.176212 -0.042309
C25   C     C_R   0.963083 0.538616 0.035150 0.015099
C26   C     C_R   0.618306 0.005561 0.464511 0.015223
C27   C     C_R   0.456547 0.427962 0.035597 0.009837
C28   C     C_R   0.016091 0.614269 0.467406 0.009627
C29   C     C_R   0.568716 0.007564 0.031145 0.009558
C30   C     C_R   0.384790 0.382030 0.465352 0.013006
C31   C     C_R   0.621171 0.017771 0.531055 0.004618
C32   C     C_R   0.983798 0.555060 0.969345 0.011656
C33   C     C_R   0.392717 0.380637 0.531929 0.005681
C34   C     C_R   0.576555 0.995272 0.965163 0.009992
C35   C     C_R   0.010716 0.605207 0.533998 0.006509
C36   C     C_R   0.441043 0.429177 0.969652 0.007374
C37   C     C_R   0.963109 0.535294 0.068152 0.513334
C38   C     C_R   0.606193 0.989162 0.431788 0.529836
C39   C     C_R   0.464622 0.431310 0.068458 0.508116
C40   C     C_R   0.028527 0.618412 0.434448 0.528679
C41   C     C_R   0.562298 0.013456 0.063917 0.508127
C42   C     C_R   0.381104 0.393141 0.432488 0.531324
C43   C     C_R   0.623246 0.032412 0.563898 0.532481
C44   C     C_R   0.995693 0.561505 0.936643 0.506852
C45   C     C_R   0.405487 0.378436 0.564749 0.531811
C46   C     C_R   0.578347 0.991554 0.932202 0.508937
C47   C     C_R   0.999675 0.594506 0.566979 0.528588
C48   C     C_R   0.435095 0.433544 0.936838 0.504843
O27   O     O_2   0.936285 0.578564 0.083579 -0.359490
O28   O     O_2   0.646615 0.956143 0.417995 -0.348439
O29   O     O_2   0.424041 0.361166 0.084232 -0.367614
O30   O     O_2   0.063955 0.692432 0.420752 -0.346270
O31   O     O_2   0.631594 0.056667 0.079756 -0.368146
O32   O     O_2   0.307979 0.351421 0.418557 -0.345445
O33   O     O_2   0.693032 0.053244 0.578825 -0.337606
O34   O     O_2   0.013641 0.632585 0.922861 -0.352432
O35   O     O_2   0.357807 0.307845 0.579626 -0.332972
O36   O     O_2   0.645706 0.998725 0.918552 -0.359001
O37   O     O_2   0.992369 0.651254 0.582686 -0.346623
O38   O     O_2   0.362945 0.382404 0.923386 -0.362439
N1    N     N_R   0.998638 0.487438 0.083396 -0.371715
N2    N     N_R   0.544991 0.006156 0.415494 -0.370420
N3    N     N_R   0.515436 0.514712 0.083264 -0.368871
N4    N     N_R   0.004696 0.539216 0.417740 -0.368467
N5    N     N_R   0.477687 0.968042 0.078547 -0.373078
N6    N     N_R   0.459487 0.454796 0.416218 -0.369261
N7    N     N_R   0.547344 0.026776 0.578918 -0.370550
N8    N     N_R   0.983101 0.485845 0.919833 -0.372857
N9    N     N_R   0.474714 0.455065 0.579759 -0.371944
N10   N     N_R   0.505721 0.984650 0.914961 -0.369306
N11   N     N_R   0.992802 0.517573 0.581480 -0.368881
N12   N     N_R   0.511868 0.494102 0.919656 -0.372393
C49   C     C_R   0.019560 0.429008 0.067259 0.519370
C50   C     C_R   0.498408 0.043553 0.430361 0.504899
C51   C     C_R   0.574950 0.593024 0.066642 0.526098
C52   C     C_R   0.964576 0.454802 0.432615 0.502936
C53   C     C_R   0.397295 0.929912 0.061398 0.518070
C54   C     C_R   0.542992 0.502321 0.431389 0.503515
C55   C     C_R   0.470481 0.008682 0.561605 0.496708
C56   C     C_R   0.982974 0.413028 0.935216 0.524663
C57   C     C_R   0.531048 0.533370 0.562475 0.496302
C58   C     C_R   0.422485 0.959736 0.929140 0.523737
C59   C     C_R   0.997188 0.450622 0.564160 0.502590
C60   C     C_R   0.586173 0.565851 0.934734 0.523580
O39   O     O_2   0.051535 0.388198 0.081514 -0.351185
O40   O     O_2   0.454668 0.069464 0.414675 -0.365592
O41   O     O_2   0.619446 0.665702 0.080608 -0.345248
O42   O     O_2   0.930008 0.384635 0.416888 -0.369923
O43   O     O_2   0.323473 0.887671 0.075019 -0.341633
O44   O     O_2   0.613468 0.544602 0.415914 -0.367084
O45   O     O_2   0.397382 0.984907 0.574918 -0.367820
O46   O     O_2   0.966325 0.343831 0.920643 -0.345701
O47   O     O_2   0.578075 0.606641 0.575869 -0.368221
O48   O     O_2   0.359459 0.954879 0.913369 -0.355333
O49   O     O_2   0.005272 0.390694 0.577676 -0.367453
O50   O     O_2   0.656502 0.615898 0.920064 -0.340823
C61   C     C_R   0.007826 0.419567 0.034383 0.009585
C62   C     C_R   0.495726 0.045097 0.463321 0.012829
C63   C     C_R   0.581688 0.589637 0.033640 0.010122
C64   C     C_R   0.968604 0.450179 0.465504 0.010376
C65   C     C_R   0.400403 0.936964 0.028326 0.004804
C66   C     C_R   0.545687 0.507687 0.464327 0.013164
C67   C     C_R   0.477898 0.022363 0.528994 0.009501
C68   C     C_R   0.998183 0.417091 0.967952 0.004070
C69   C     C_R   0.537833 0.527171 0.529816 0.010564
C70   C     C_R   0.411789 0.944473 0.961898 0.007009
C71   C     C_R   0.987324 0.448744 0.531360 0.011080
C72   C     C_R   0.582236 0.579112 0.967295 0.004851
C73   C     C_R   0.986465 0.480473 0.018297 -0.091920
C74   C     C_R   0.555694 0.024603 0.480398 -0.089862
C75   C     C_R   0.517577 0.507587 0.018131 -0.090721
C76   C     C_R   0.994074 0.531025 0.483009 -0.089140
C77   C     C_R   0.486830 0.971168 0.013208 -0.092574
C78   C     C_R   0.465329 0.446617 0.481315 -0.089313
C79   C     C_R   0.551831 0.021771 0.513475 -0.096456
C80   C     C_R   0.989458 0.484113 0.985216 -0.097876
C81   C     C_R   0.465368 0.451178 0.514351 -0.096000
C82   C     C_R   0.491634 0.969986 0.980092 -0.092444
C83   C     C_R   0.997379 0.528409 0.516130 -0.090750
C84   C     C_R   0.513858 0.505185 0.985050 -0.098496
C85   C     C_R   0.945337 0.601543 0.018568 0.210652
C86   C     C_R   0.685301 0.996421 0.482151 0.205628
C87   C     C_R   0.387917 0.348907 0.019807 0.198353
C88   C     C_R   0.031248 0.691809 0.485310 0.196435
C89   C     C_R   0.653962 0.035878 0.015916 0.202935
C90   C     C_R   0.308760 0.314433 0.482999 0.199222
C91   C     C_R   0.688280 0.005043 0.515131 0.201311
C92   C     C_R   0.960743 0.613239 0.986173 0.211424
C93   C     C_R   0.313469 0.312516 0.516041 0.202902
C94   C     C_R   0.657385 0.026965 0.983401 0.201977
C95   C     C_R   0.027953 0.687147 0.518293 0.195752
C96   C     C_R   0.377901 0.351135 0.987263 0.200924
C97   C     C_R   0.023289 0.356455 0.016916 0.201500
C98   C     C_R   0.430787 0.060105 0.479642 0.202452
C99   C     C_R   0.645009 0.667155 0.015548 0.197352
C100  C     C_R   0.951345 0.368498 0.481212 0.201138
C101  C     C_R   0.319785 0.906637 0.009958 0.199322
C102  C     C_R   0.623394 0.576612 0.480552 0.200069
C103  C     C_R   0.417892 0.042780 0.511942 0.201943
C104  C     C_R   0.016451 0.353852 0.983993 0.198391
C105  C     C_R   0.616884 0.590591 0.512634 0.200144
C106  C     C_R   0.325616 0.911145 0.977105 0.196321
C107  C     C_R   0.964303 0.368804 0.513621 0.198444
C108  C     C_R   0.646263 0.661474 0.982635 0.199236
C109  C     C_R   0.990673 0.443577 0.139453 0.216236
C110  C     C_R   0.422268 0.898635 0.380327 0.234413
C111  C     C_R   0.556432 0.546053 0.139604 0.218957
C112  C     C_R   0.102607 0.516098 0.380379 0.232572
C113  C     C_R   0.434526 0.983139 0.132924 0.220716
C114  C     C_R   0.478669 0.578295 0.380286 0.233251
C115  C     C_R   0.527501 0.121627 0.618854 0.227836
C116  C     C_R   0.002719 0.456574 0.863659 0.216759
C117  C     C_R   0.592310 0.479943 0.619494 0.229103
C118  C     C_R   0.476200 0.969325 0.857351 0.216772
C119  C     C_R   0.872644 0.417424 0.618747 0.226399
C120  C     C_R   0.544642 0.546366 0.863736 0.216447
C121  C     C_R   0.028941 0.465533 0.169847 0.160629
C122  C     C_R   0.389060 0.863621 0.350416 0.191727
C123  C     C_R   0.533296 0.560661 0.170088 0.165537
C124  C     C_R   0.134318 0.517482 0.349939 0.186310
C125  C     C_R   0.423556 0.955968 0.164743 0.169279
C126  C     C_R   0.478901 0.611688 0.350142 0.186303
C127  C     C_R   0.519052 0.141117 0.650115 0.188636
C128  C     C_R   0.967771 0.438800 0.832673 0.160409
C129  C     C_R   0.620597 0.488667 0.650766 0.175111
C130  C     C_R   0.491219 0.011763 0.827484 0.141246
C131  C     C_R   0.840134 0.391465 0.649282 0.201772
C132  C     C_R   0.563745 0.530508 0.832762 0.167160
C133  C     C_R   0.131818 0.624474 0.153110 0.180575
C134  C     C_R   0.542737 0.961919 0.328543 0.155391
C135  C     C_R   0.378737 0.517655 0.152051 0.172626
C136  C     C_R   0.045443 0.586656 0.330701 0.160743
C137  C     C_R   0.502071 0.868983 0.154325 0.159776
C138  C     C_R   0.415059 0.456126 0.329226 0.160275
C139  C     C_R   0.583187 0.046141 0.667300 0.163553
C140  C     C_R   0.859796 0.490077 0.846922 0.181041
C141  C     C_R   0.460334 0.413596 0.667887 0.166782
C142  C     C_R   0.611326 0.156201 0.849860 0.193118
C143  C     C_R   0.976291 0.526070 0.670000 0.143243
C144  C     C_R   0.498379 0.367539 0.845271 0.167237
C145  C     C_R   0.097923 0.601255 0.122538 0.222925
C146  C     C_R   0.574903 0.002024 0.358365 0.220837
C147  C     C_R   0.403098 0.508021 0.121528 0.222134
C148  C     C_R   0.007754 0.578682 0.361066 0.217906
C149  C     C_R   0.509110 0.892917 0.122530 0.219950
C150  C     C_R   0.422743 0.423840 0.359197 0.217991
C151  C     C_R   0.576041 0.013442 0.636122 0.218242
C152  C     C_R   0.883716 0.492812 0.878478 0.225484
C153  C     C_R   0.433739 0.421850 0.636947 0.221949
C154  C     C_R   0.590693 0.116942 0.879793 0.221134
C155  C     C_R   0.012837 0.549453 0.639112 0.218153
C156  C     C_R   0.496092 0.386577 0.877118 0.220789
C157  C     C_R   0.028285 0.510730 0.115521 0.130896
C158  C     C_R   0.514765 0.968664 0.384421 0.129949
C159  C     C_R   0.491888 0.522627 0.115189 0.132210
C160  C     C_R   0.038249 0.545140 0.386055 0.132100
C161  C     C_R   0.473844 0.948382 0.111683 0.137706
C162  C     C_R   0.452692 0.484936 0.384933 0.131974
C163  C     C_R   0.551717 0.054385 0.611504 0.135936
C164  C     C_R   0.956730 0.478198 0.887077 0.133568
C165  C     C_R   0.499336 0.450806 0.612252 0.140903
C166  C     C_R   0.524309 0.023046 0.883642 0.127140
C167  C     C_R   0.959960 0.495354 0.613465 0.132570
C168  C     C_R   0.517620 0.475941 0.886638 0.136491
N13   N     N_R   0.034920 0.290955 0.967012 0.151047
O51   O     O_R   0.102844 0.322472 0.947085 -0.166791
O52   O     O_R   0.990491 0.203421 0.973767 -0.117690
N14   N     N_R   0.351207 0.057954 0.527687 0.153023
O53   O     O_R   0.364770 0.141252 0.529727 -0.212751
O54   O     O_R   0.269941 0.988403 0.533825 -0.126323
N15   N     N_R   0.707367 0.742593 0.964894 0.149727
O55   O     O_R   0.673862 0.775686 0.944462 -0.182758
O56   O     O_R   0.794729 0.789382 0.971589 -0.116009
N16   N     N_R   0.948208 0.285029 0.528386 0.145669
O57   O     O_R   0.001823 0.251766 0.522183 -0.142206
O58   O     O_R   0.872891 0.235585 0.544318 -0.183049
N17   N     N_R   0.242521 0.880025 0.959436 0.146461
O59   O     O_R   0.210662 0.805825 0.942547 -0.189715
O60   O     O_R   0.195278 0.921979 0.961998 -0.127380
N18   N     N_R   0.694734 0.664755 0.527927 0.152964
O61   O     O_R   0.694279 0.740472 0.534056 -0.146229
O62   O     O_R   0.771755 0.663904 0.529812 -0.175300
N19   N     N_R   0.375440 0.090518 0.463666 0.146065
O63   O     O_R   0.412923 0.175196 0.453690 -0.222577
O64   O     O_R   0.286378 0.037695 0.462575 -0.130424
N20   N     N_R   0.048412 0.295874 0.032169 0.155112
O65   O     O_R   0.988574 0.227581 0.049249 -0.113000
O66   O     O_R   0.128238 0.303693 0.026521 -0.177497
N21   N     N_R   0.707967 0.636422 0.464489 0.149166
O67   O     O_R   0.763004 0.606128 0.456609 -0.201131
O68   O     O_R   0.735019 0.723466 0.461114 -0.132356
N22   N     N_R   0.231137 0.872954 0.024308 0.157182
O69   O     O_R   0.212521 0.929595 0.038996 -0.124417
O70   O     O_R   0.165761 0.788618 0.019441 -0.229091
N23   N     N_R   0.921686 0.284254 0.464540 0.151727
O71   O     O_R   0.836883 0.217555 0.467222 -0.248039
O72   O     O_R   0.981545 0.270237 0.449865 -0.125572
N24   N     N_R   0.706738 0.753369 0.030165 0.154428
O73   O     O_R   0.778366 0.763248 0.045350 -0.112685
O74   O     O_R   0.696720 0.824590 0.025506 -0.189745
N25   N     N_R   0.797736 0.521772 0.838250 0.125013
O75   O     O_R   0.828664 0.596720 0.821622 -0.204161
O76   O     O_R   0.719162 0.489805 0.852606 -0.278032
N26   N     N_R   0.614078 0.010438 0.692070 0.118824
O77   O     O_R   0.559924 0.968480 0.715703 -0.228320
O78   O     O_R   0.701009 0.035791 0.694100 -0.173365
N27   N     N_R   0.454455 0.273503 0.834970 0.129260
O79   O     O_R   0.384950 0.243301 0.815849 -0.207910
O80   O     O_R   0.472525 0.214676 0.848361 -0.257854
N28   N     N_R   0.030318 0.578523 0.696304 0.120325
O81   O     O_R   0.994496 0.605958 0.717775 -0.230841
O82   O     O_R   0.114982 0.596619 0.699395 -0.164161
N29   N     N_R   0.684139 0.249330 0.846151 0.104593
O83   O     O_R   0.768941 0.268888 0.850004 -0.281004
O84   O     O_R   0.666956 0.311755 0.835401 -0.326566
N30   N     N_R   0.393706 0.378399 0.692700 0.119219
O85   O     O_R   0.404182 0.429704 0.716892 -0.233206
O86   O     O_R   0.333488 0.290821 0.693947 -0.157672
N31   N     N_R   0.602832 0.996409 0.301935 0.111245
O87   O     O_R   0.639056 0.949855 0.290542 -0.191119
O88   O     O_R   0.630856 0.079567 0.291769 -0.189599
N32   N     N_R   0.204276 0.716437 0.159174 0.107219
O89   O     O_R   0.185204 0.773062 0.173617 -0.202780
O90   O     O_R   0.281809 0.748889 0.144070 -0.296041
N33   N     N_R   0.383738 0.394827 0.303007 0.118096
O91   O     O_R   0.439218 0.409547 0.279611 -0.227057
O92   O     O_R   0.296261 0.336263 0.299798 -0.166992
N34   N     N_R   0.540910 0.814280 0.164607 0.119016
O93   O     O_R   0.612039 0.850445 0.183103 -0.190961
O94   O     O_R   0.518576 0.737273 0.150512 -0.288868
N35   N     N_R   0.015097 0.620218 0.305106 0.119535
O95   O     O_R   0.971905 0.566019 0.281746 -0.228279
O96   O     O_R   0.045753 0.708166 0.302271 -0.164656
N36   N     N_R   0.289380 0.505908 0.157433 0.095638
O97   O     O_R   0.224763 0.428143 0.168861 -0.209311
O98   O     O_R   0.267193 0.561303 0.143683 -0.295018
N37   N     N_R   0.940180 0.675885 0.970101 0.150286
O99   O     O_R   0.854703 0.653866 0.966001 -0.201570
O100  O     O_R   0.005437 0.759964 0.964613 -0.107912
N38   N     N_R   0.756503 0.995017 0.532269 0.151884
O101  O     O_R   0.731104 0.928682 0.552634 -0.146050
O102  O     O_R   0.843402 0.045560 0.525202 -0.118021
N39   N     N_R   0.306307 0.270827 0.972219 0.151192
O103  O     O_R   0.325039 0.210904 0.960208 -0.157827
O104  O     O_R   0.220722 0.248696 0.976157 -0.133296
N40   N     N_R   0.045305 0.767596 0.535570 0.150251
O105  O     O_R   0.993685 0.804317 0.531381 -0.119575
O106  O     O_R   0.117563 0.808783 0.553442 -0.156200
N41   N     N_R   0.745140 0.055522 0.969120 0.148898
O107  O     O_R   0.788420 0.134341 0.954566 -0.176205
O108  O     O_R   0.787790 0.010186 0.974866 -0.128108
N42   N     N_R   0.234542 0.245063 0.533276 0.153089
O109  O     O_R   0.193752 0.271562 0.553174 -0.160446
O110  O     O_R   0.197376 0.157879 0.526707 -0.112994
N43   N     N_R   0.751195 0.978665 0.466932 0.151208
O111  O     O_R   0.756104 0.905950 0.474388 -0.147612
O112  O     O_R   0.812163 0.039495 0.447929 -0.115792
N44   N     N_R   0.912128 0.654781 0.034268 0.148197
O113  O     O_R   0.962250 0.744230 0.035056 -0.117011
O114  O     O_R   0.827419 0.614647 0.044297 -0.215745
N45   N     N_R   0.226354 0.246718 0.467682 0.150219
O115  O     O_R   0.228402 0.185200 0.449737 -0.118172
O116  O     O_R   0.147921 0.241868 0.473622 -0.149847
N46   N     N_R   0.738448 0.073627 0.033159 0.152474
O117  O     O_R   0.757179 0.019822 0.049726 -0.116216
O118  O     O_R   0.800907 0.159801 0.029412 -0.226684
N47   N     N_R   0.047807 0.775459 0.470274 0.150810
O119  O     O_R   0.983552 0.776223 0.453417 -0.125075
O120  O     O_R   0.123424 0.852476 0.475805 -0.154247
N48   N     N_R   0.325342 0.266475 0.036541 0.150080
O121  O     O_R   0.260871 0.264831 0.053958 -0.124219
O122  O     O_R   0.326131 0.190351 0.031549 -0.179905
N49   N     N_R   0.832011 0.508572 0.902043 0.128727
O123  O     O_R   0.789249 0.447439 0.923909 -0.243699
O124  O     O_R   0.828423 0.584355 0.901934 -0.141300
N50   N     N_R   0.588251 0.936020 0.629715 0.143051
O125  O     O_R   0.530638 0.870070 0.611545 -0.220944
O126  O     O_R   0.657739 0.931699 0.641278 -0.132182
N51   N     N_R   0.474488 0.315493 0.899946 0.133527
O127  O     O_R   0.532773 0.328323 0.922165 -0.229065
O128  O     O_R   0.395474 0.239236 0.899243 -0.137054
N52   N     N_R   0.102181 0.628718 0.633713 0.150867
O129  O     O_R   0.159570 0.624393 0.614229 -0.217176
O130  O     O_R   0.124837 0.706907 0.647061 -0.147226
N53   N     N_R   0.631305 0.174473 0.906774 0.125700
O131  O     O_R   0.578877 0.176939 0.928769 -0.247743
O132  O     O_R   0.720318 0.222604 0.909957 -0.173948
N54   N     N_R   0.342615 0.406253 0.630902 0.141614
O133  O     O_R   0.331524 0.463791 0.613479 -0.222774
O134  O     O_R   0.270231 0.333561 0.641867 -0.130908
N55   N     N_R   0.668198 0.076089 0.362178 0.150444
O135  O     O_R   0.686095 0.146324 0.379784 -0.208423
O136  O     O_R   0.736025 0.072964 0.348571 -0.134447
N56   N     N_R   0.137324 0.669485 0.098147 0.138968
O137  O     O_R   0.174200 0.654855 0.073615 -0.248834
O138  O     O_R   0.138463 0.747358 0.100779 -0.128643
N57   N     N_R   0.404272 0.330869 0.363304 0.143725
O139  O     O_R   0.459407 0.314463 0.380021 -0.204676
O140  O     O_R   0.330603 0.261814 0.351504 -0.133252
N58   N     N_R   0.550234 0.858465 0.100874 0.134761
O141  O     O_R   0.503651 0.809577 0.076914 -0.256768
O142  O     O_R   0.633936 0.874908 0.105259 -0.128737
N59   N     N_R   0.936309 0.600829 0.366369 0.143352
O143  O     O_R   0.865094 0.547055 0.383557 -0.206828
O144  O     O_R   0.943853 0.676755 0.355374 -0.131958
N60   N     N_R   0.338253 0.486955 0.096489 0.128609
O145  O     O_R   0.360654 0.540734 0.072097 -0.266757
O146  O     O_R   0.255388 0.416193 0.098577 -0.144645
N61   N     N_R   0.991263 0.397933 0.194383 0.126540
O147  O     O_R   0.955522 0.413655 0.218988 -0.221216
O148  O     O_R   0.008911 0.330704 0.195049 -0.150821
N62   N     N_R   0.295506 0.790901 0.347227 0.099527
O149  O     O_R   0.268206 0.713941 0.362248 -0.279243
O150  O     O_R   0.234313 0.809185 0.335980 -0.207153
N63   N     N_R   0.598294 0.585122 0.195119 0.124874
O151  O     O_R   0.667558 0.668858 0.196937 -0.149292
O152  O     O_R   0.578067 0.530342 0.219140 -0.219965
N64   N     N_R   0.201211 0.489382 0.345257 0.105094
O153  O     O_R   0.175651 0.408770 0.333361 -0.193551
O154  O     O_R   0.279510 0.532869 0.359830 -0.290893
N65   N     N_R   0.387647 0.994662 0.186781 0.127317
O155  O     O_R   0.432182 0.031222 0.212577 -0.232646
O156  O     O_R   0.306374 0.985014 0.182836 -0.141732
N66   N     N_R   0.505425 0.706744 0.346360 0.103447
O157  O     O_R   0.460664 0.739093 0.361527 -0.278632
O158  O     O_R   0.585527 0.763968 0.334351 -0.197785
N67   N     N_R   0.478567 0.196857 0.656829 0.126243
O159  O     O_R   0.396547 0.158497 0.669145 -0.186784
O160  O     O_R   0.511960 0.277390 0.643777 -0.297864
N68   N     N_R   0.009705 0.410816 0.809184 0.126515
O161  O     O_R   0.995367 0.327025 0.809415 -0.164959
O162  O     O_R   0.046030 0.462067 0.784467 -0.220981
N69   N     N_R   0.717051 0.540659 0.657937 0.128639
O163  O     O_R   0.774111 0.518883 0.645459 -0.278903
O164  O     O_R   0.749728 0.620257 0.671581 -0.187644
N70   N     N_R   0.444256 0.957587 0.800516 0.117589
O165  O     O_R   0.448619 0.884125 0.793945 -0.165005
O166  O     O_R   0.396104 0.980577 0.782665 -0.205069
N71   N     N_R   0.752299 0.311757 0.654084 0.099049
O167  O     O_R   0.684798 0.321115 0.664633 -0.341947
O168  O     O_R   0.745285 0.230978 0.653551 -0.279285
N72   N     N_R   0.598443 0.603279 0.809979 0.129288
O169  O     O_R   0.683727 0.669606 0.811477 -0.145184
O170  O     O_R   0.551247 0.593883 0.784708 -0.220525
N73   N     N_R   0.912490 0.354473 0.132866 0.138908
O171  O     O_R   0.911827 0.279541 0.141309 -0.137177
O172  O     O_R   0.844390 0.347819 0.116242 -0.215841
N74   N     N_R   0.362083 0.860897 0.406978 0.128914
O173  O     O_R   0.282207 0.856172 0.407225 -0.156804
O174  O     O_R   0.386396 0.829669 0.430887 -0.257068
N75   N     N_R   0.643908 0.552652 0.133418 0.139909
O175  O     O_R   0.720079 0.622934 0.143240 -0.138325
O176  O     O_R   0.648266 0.491271 0.116067 -0.212343
N76   N     N_R   0.138673 0.487926 0.406004 0.128668
O177  O     O_R   0.137122 0.409572 0.405092 -0.150631
O178  O     O_R   0.176157 0.542153 0.429860 -0.257061
N77   N     N_R   0.408514 0.048039 0.122149 0.134515
O179  O     O_R   0.322085 0.025232 0.121638 -0.126196
O180  O     O_R   0.468568 0.122556 0.107633 -0.216398
N78   N     N_R   0.502602 0.639298 0.406624 0.127730
O181  O     O_R   0.580098 0.717204 0.406939 -0.156659
O182  O     O_R   0.446131 0.617633 0.430186 -0.255395
N79   N     N_R   0.511682 0.171001 0.594303 0.128093
O183  O     O_R   0.433723 0.170083 0.592631 -0.148245
O184  O     O_R   0.574439 0.215005 0.573041 -0.235519
N80   N     N_R   0.086488 0.456732 0.871175 0.141810
O185  O     O_R   0.100176 0.390955 0.861629 -0.138805
O186  O     O_R   0.148441 0.521494 0.888702 -0.217359
N81   N     N_R   0.657934 0.498783 0.594849 0.127421
O187  O     O_R   0.732401 0.579043 0.592657 -0.147350
O188  O     O_R   0.640041 0.437493 0.573262 -0.233063
N82   N     N_R   0.410700 0.872807 0.861177 0.151838
O189  O     O_R   0.330191 0.836535 0.847903 -0.150044
O190  O     O_R   0.429656 0.821550 0.879084 -0.201759
N83   N     N_R   0.813985 0.367950 0.592781 0.128106
O191  O     O_R   0.774194 0.278600 0.591357 -0.182477
O192  O     O_R   0.799832 0.412306 0.570430 -0.243083
N84   N     N_R   0.548554 0.631628 0.871759 0.140757
O193  O     O_R   0.617226 0.710488 0.862792 -0.134327
O194  O     O_R   0.484263 0.630735 0.889100 -0.218905

loop_
_geom_bond_atom_site_label_1
_geom_bond_atom_site_label_2
_geom_bond_distance
_ccdc_geom_bond_type
C64   C76   1.415906 A    
C147  N60   1.438279 S    
C117  C165  1.415032 A    
N19   O64   1.300463 A    
C10   C24   1.483584 S    
N53   O131  1.301073 A    
N71   O168  1.299378 A    
N9    C57   1.382280 Am   
C52   O42   1.221811 D    
C109  N73   1.438520 S    
N31   O87   1.300620 A    
O13   C1    1.291173 A    
N35   O96   1.300631 A    
N45   O115  1.300980 A    
C45   O35   1.220544 D    
N28   O81   1.300836 A    
C89   N46   1.433393 S    
C102  N21   1.434090 S    
C135  C147  1.399787 A    
N74   O173  1.301288 A    
N66   O158  1.300817 A    
C56   O46   1.221121 D    
C76   C83   1.417059 A    
C37   N1    1.377562 Am   
C39   N3    1.375812 Am   
C28   C40   1.419204 A    
O17   C5    1.291563 A    
N58   O141  1.301286 A    
O10   Cr4   2.007741 S    
C20   C133  1.413383 A    
C135  N36   1.428201 S    
O12   Cr6   2.001858 S    
N12   C60   1.384693 Am   
C45   N9    1.385642 Am   
C18   C141  1.413647 A    
N42   O109  1.301385 A    
C70   C106  1.417527 A    
C101  C106  1.405606 A    
C114  C126  1.401327 A    
C72   C84   1.412300 A    
O1    Cr1   2.002624 S    
N59   O144  1.300359 A    
N4    C52   1.377756 Am   
C24   C123  1.415946 A    
O3    Cr3   2.009050 S    
C50   O40   1.221734 D    
N72   O170  1.300972 A    
C21   C126  1.412323 A    
O7    C9    1.284175 A    
Cr6   O26   1.981070 S    
C36   C96   1.415274 A    
C105  N18   1.433756 S    
C66   C78   1.414874 A    
C33   C45   1.421157 A    
N44   O113  1.301229 A    
C16   C131  1.405603 A    
C53   C65   1.415768 A    
C35   C47   1.419669 A    
C85   N44   1.434363 S    
N48   O121  1.300704 A    
C26   C38   1.420122 A    
N64   O154  1.298693 A    
O4    C6    1.281529 A    
C5    C13   1.491429 S    
C48   O38   1.221786 D    
N83   O192  1.300953 A    
C69   C105  1.416877 A    
N10   C58   1.379225 Am   
O14   Cr2   1.897472 S    
O15   C3    1.292549 A    
N35   O95   1.300878 A    
C72   C108  1.417375 A    
C22   C137  1.420314 A    
C129  N69   1.434632 S    
N36   O97   1.300559 A    
O14   C2    1.299429 A    
C86   N43   1.435864 S    
O15   Cr3   1.893070 S    
C40   O30   1.221035 D    
C19   C122  1.411855 A    
C108  N15   1.438534 S    
O5    C1    1.298059 A    
N78   O181  1.301370 A    
N70   O166  1.300608 A    
N10   C166  1.446923 S    
C11   C19   1.482223 S    
N61   O147  1.300918 A    
N24   O74   1.300902 A    
C65   C77   1.417601 A    
N63   O151  1.300826 A    
C63   C75   1.418029 A    
N34   O93   1.301132 A    
C50   C62   1.409098 A    
C154  C166  1.409178 A    
N46   O117  1.300887 A    
N62   O150  1.300568 A    
N7    C163  1.458307 S    
N59   O143  1.301344 A    
C139  N26   1.432548 S    
C61   C97   1.422214 A    
C44   N8    1.380643 Am   
N65   O155  1.301283 A    
N80   O186  1.301404 A    
O23   Cr5   1.900165 S    
C120  N84   1.439981 S    
Cr2   O25   1.978988 S    
N29   O84   1.299076 A    
N69   O163  1.297360 A    
C53   O43   1.220744 D    
N50   O125  1.301332 A    
C20   C121  1.416059 A    
N27   O80   1.298805 A    
C33   C81   1.412673 A    
C38   O28   1.220759 D    
N3    C159  1.444248 S    
O21   Cr6   1.892711 S    
C40   N4    1.380605 Am   
N1    C157  1.446171 S    
C92   N37   1.432040 S    
O21   C9    1.299544 A    
N41   O107  1.300791 A    
C103  N14   1.432583 S    
C114  N78   1.438290 S    
C117  C129  1.400801 A    
N60   O145  1.301227 A    
C89   C94   1.401401 A    
C28   C76   1.415944 A    
N18   O61   1.300482 A    
N79   O184  1.301134 A    
N84   O194  1.301424 A    
C142  C154  1.397511 A    
N51   O127  1.301120 A    
C31   C91   1.419456 A    
C42   N6    1.382622 Am   
N77   O179  1.300463 A    
C137  C149  1.402711 A    
N17   O59   1.301171 A    
C148  C160  1.414526 A    
N4    C160  1.449182 S    
N31   O88   1.300713 A    
N21   O67   1.301108 A    
C58   O48   1.221213 D    
C120  C132  1.417903 A    
C118  N82   1.438050 S    
N67   O159  1.300870 A    
C130  N70   1.436011 S    
N38   O101  1.301190 A    
O3    C5    1.297735 A    
N40   O106  1.301078 A    
N6    C162  1.451450 S    
C114  C162  1.411721 A    
N22   O69   1.301164 A    
C17   C142  1.408797 A    
C47   O37   1.220946 D    
C77   C82   1.417374 A    
C12   C20   1.485941 S    
C19   C134  1.413881 A    
N56   O137  1.301245 A    
C96   N39   1.432755 S    
C13   C128  1.414030 A    
C27   C75   1.417491 A    
C141  N30   1.433041 S    
N13   O51   1.301444 A    
C32   C80   1.410831 A    
N33   O92   1.300662 A    
C47   N11   1.380394 Am   
C56   C68   1.416948 A    
C137  N34   1.432936 S    
C31   C79   1.413476 A    
N54   O133  1.301341 A    
N73   O172  1.301323 A    
C98   N19   1.434738 S    
C39   O29   1.221510 D    
N37   O100  1.300297 A    
O22   C10   1.294949 A    
O8    Cr5   2.009609 S    
C88   C95   1.410060 A    
N43   O112  1.301061 A    
C90   N45   1.434991 S    
C42   O32   1.220719 D    
N82   O189  1.301270 A    
N30   O86   1.300575 A    
C91   N38   1.436830 S    
N5    C53   1.379135 Am   
O2    Cr2   2.006425 S    
C115  C127  1.399453 A    
N27   O79   1.301227 A    
C156  N51   1.435652 S    
N7    C55   1.381917 Am   
C43   N7    1.385016 Am   
C21   C138  1.413886 A    
C111  C123  1.415041 A    
C9    C23   1.484290 S    
O8    C10   1.287878 A    
O4    Cr1   2.010094 S    
C41   O31   1.221673 D    
C68   C80   1.413248 A    
C155  C167  1.417643 A    
C43   O33   1.220553 D    
C13   C140  1.415484 A    
C67   C79   1.409821 A    
C49   C61   1.416181 A    
C54   C66   1.409160 A    
C33   C93   1.419519 A    
C115  C163  1.412261 A    
C94   N41   1.434385 S    
N61   O148  1.300805 A    
N68   O161  1.300829 A    
O20   C8    1.294367 A    
C151  N50   1.438546 S    
N16   O57   1.300745 A    
N11   C167  1.448632 S    
C153  C165  1.420683 A    
N24   O73   1.300753 A    
C74   C79   1.413671 A    
C6    C14   1.493165 S    
C136  N35   1.432936 S    
C30   C42   1.420693 A    
C151  C163  1.420795 A    
N63   O152  1.300825 A    
N23   O71   1.300289 A    
C106  N17   1.434361 S    
C136  C148  1.418635 A    
N28   O82   1.301193 A    
C8    C22   1.493736 S    
C127  N67   1.432798 S    
C85   C92   1.402359 A    
N74   O174  1.301261 A    
N20   O65   1.300868 A    
C86   C91   1.414711 A    
O6    C2    1.287176 A    
C31   C43   1.422215 A    
C71   C83   1.415357 A    
N14   O53   1.300575 A    
N25   O76   1.299363 A    
N58   O142  1.301231 A    
C147  C159  1.408246 A    
O17   Cr2   1.897329 S    
C58   C70   1.416463 A    
C111  C159  1.410687 A    
C152  N49   1.436921 S    
C62   C74   1.416180 A    
C52   C64   1.410038 A    
C145  C157  1.408351 A    
O19   Cr4   1.897885 S    
C109  C157  1.410694 A    
C35   C95   1.419816 A    
N12   C168  1.456923 S    
N26   O77   1.300986 A    
N42   O110  1.301151 A    
N52   O129  1.301235 A    
C66   C102  1.417712 A    
C138  N33   1.432733 S    
C3    C17   1.476208 S    
N57   O140  1.300393 A    
N39   O104  1.300272 A    
O16   C4    1.306228 A    
N6    C54   1.378711 Am   
C46   N10   1.377677 Am   
O24   Cr6   1.899892 S    
C99   N24   1.434208 S    
O19   C7    1.298989 A    
N75   O176  1.301307 A    
C24   C135  1.410800 A    
C141  C153  1.423025 A    
C46   O36   1.221752 D    
N44   O114  1.301268 A    
C48   N12   1.382327 Am   
C38   N2    1.382085 Am   
C34   C82   1.416369 A    
C144  C156  1.402958 A    
N32   O89   1.300559 A    
C110  C122  1.401518 A    
N48   O122  1.300948 A    
N81   O188  1.301166 A    
C61   C73   1.415754 A    
N76   O177  1.301263 A    
C110  N74   1.438335 S    
N15   O55   1.301512 A    
C34   C94   1.416821 A    
C112  N76   1.438535 S    
C29   C77   1.417132 A    
N80   O185  1.300360 A    
C150  C162  1.414784 A    
C26   C86   1.422940 A    
C90   C93   1.414544 A    
C117  N81   1.437675 S    
N2    C50   1.377971 Am   
C68   C104  1.416816 A    
C93   N42   1.437309 S    
N36   O98   1.299211 A    
N55   O135  1.301315 A    
C30   C90   1.422380 A    
C67   C103  1.415373 A    
N49   O124  1.301441 A    
C113  C125  1.414152 A    
C1    C15   1.492824 S    
C146  N55   1.438760 S    
C2    C16   1.480673 S    
O16   Cr1   1.893693 S    
N78   O182  1.301285 A    
C155  N52   1.437244 S    
N39   O103  1.300011 A    
N53   O132  1.300327 A    
O5    Cr2   2.007536 S    
C49   O39   1.220989 D    
C51   O41   1.221022 D    
C18   C129  1.414557 A    
N34   O94   1.299890 A    
O20   Cr5   1.894344 S    
N45   O116  1.300985 A    
C34   C46   1.410247 A    
C55   O45   1.221739 D    
N83   O191  1.300505 A    
C128  N68   1.433062 S    
N66   O157  1.298645 A    
N46   O118  1.300519 A    
C29   C41   1.411274 A    
C116  C128  1.418274 A    
C115  N79   1.438416 S    
C112  C160  1.409533 A    
C70   C82   1.416977 A    
C154  N53   1.439211 S    
C119  C131  1.394733 A    
Cr1   O25   1.979232 S    
N11   C59   1.378458 Am   
O18   Cr3   1.899609 S    
C28   C88   1.419289 A    
N29   O83   1.299733 A    
C36   C84   1.411948 A    
C29   C89   1.417221 A    
C78   C81   1.413251 A    
C62   C98   1.417572 A    
N47   O119  1.301231 A    
C16   C143  1.413445 A    
C32   C92   1.413897 A    
N50   O126  1.300366 A    
C149  N58   1.437462 S    
O24   C12   1.295557 A    
C133  C145  1.400522 A    
C116  N80   1.439418 S    
C140  N25   1.433424 S    
N8    C56   1.383297 Am   
O23   C11   1.297355 A    
N9    C165  1.459620 S    
C134  N31   1.432451 S    
Cr5   O26   1.979349 S    
N60   O146  1.301135 A    
C100  N23   1.432341 S    
N18   O62   1.300986 A    
C119  N83   1.440206 S    
N51   O128  1.301233 A    
N64   O153  1.300793 A    
C111  N75   1.438658 S    
C25   C73   1.417339 A    
C23   C124  1.413297 A    
C156  C168  1.414844 A    
C113  N77   1.434405 S    
N43   O111  1.300660 A    
C54   O44   1.221673 D    
N23   O72   1.300736 A    
C55   C67   1.406087 A    
C25   C85   1.418544 A    
C23   C136  1.413652 A    
N38   O102  1.300999 A    
C118  C166  1.414822 A    
C37   O27   1.221556 D    
N2    C158  1.449053 S    
C144  N27   1.436001 S    
N70   O165  1.301131 A    
N22   O70   1.300958 A    
N71   O167  1.298551 A    
O9    C11   1.287230 A    
C142  N29   1.428606 S    
O6    Cr3   2.002691 S    
C118  C130  1.418036 A    
O10   C12   1.290372 A    
C102  C105  1.404198 A    
C36   C48   1.409254 A    
C123  N63   1.433319 S    
N33   O91   1.300836 A    
C71   C107  1.416723 A    
C125  N65   1.436597 S    
N62   O149  1.299184 A    
N54   O134  1.300335 A    
N73   O171  1.300288 A    
C14   C127  1.414808 A    
N67   O160  1.297679 A    
N37   O99   1.300406 A    
C138  C150  1.418888 A    
C122  N62   1.431773 S    
N65   O156  1.300227 A    
O9    Cr6   2.009715 S    
N57   O139  1.301354 A    
C95   N40   1.435689 S    
N69   O164  1.301075 A    
C124  N64   1.431545 S    
C57   O47   1.221452 D    
C59   O49   1.221986 D    
C97   N20   1.434295 S    
N82   O190  1.301318 A    
C26   C74   1.414492 A    
C121  N61   1.433733 S    
C73   C80   1.413703 A    
C149  C161  1.405912 A    
C4    C18   1.491397 S    
C107  N16   1.434114 S    
N5    C161  1.446037 S    
C113  C161  1.408833 A    
C133  N32   1.430196 S    
N15   O56   1.301082 A    
O7    Cr4   2.005375 S    
O18   C6    1.308152 A    
C44   O34   1.221711 D    
O13   Cr1   1.900363 S    
C120  C168  1.418339 A    
N1    C49   1.380502 Am   
C104  N13   1.437130 S    
C97   C104  1.409851 A    
N84   O193  1.300347 A    
C143  C155  1.422897 A    
C98   C103  1.402965 A    
C22   C125  1.418093 A    
C15   C144  1.414905 A    
O12   C8    1.296597 A    
N55   O136  1.301128 A    
C69   C81   1.410739 A    
N68   O162  1.300993 A    
C17   C130  1.413345 A    
N77   O180  1.300995 A    
C14   C139  1.413074 A    
N16   O58   1.300523 A    
N17   O60   1.300903 A    
C109  C121  1.413923 A    
C152  C164  1.411891 A    
C35   C83   1.416906 A    
N8    C164  1.453870 S    
C116  C164  1.417069 A    
C51   C63   1.417541 A    
C112  C124  1.400082 A    
C150  N57   1.438694 S    
N75   O175  1.300290 A    
N21   O68   1.300300 A    
C27   C87   1.418877 A    
Cr3   O25   1.981088 S    
N41   O108  1.300864 A    
C101  N22   1.435102 S    
C134  C146  1.416978 A    
N20   O66   1.300085 A    
N40   O105  1.301110 A    
C140  C152  1.400561 A    
Cr4   O26   1.978890 S    
O22   Cr4   1.896538 S    
N14   O54   1.300121 A    
N25   O75   1.301013 A    
C32   C44   1.406849 A    
O11   C7    1.284627 A    
C143  N28   1.436935 S    
C7    C21   1.484250 S    
C88   N47   1.435046 S    
N3    C51   1.379723 Am   
C153  N54   1.438523 S    
N47   O120  1.300720 A    
N26   O78   1.300711 A    
C41   N5    1.377090 Am   
N52   O130  1.301234 A    
N13   O52   1.301085 A    
C30   C78   1.414477 A    
C15   C132  1.413939 A    
N19   O63   1.301213 A    
C126  N66   1.432076 S    
C65   C101  1.419651 A    
C145  N56   1.436728 S    
C75   C84   1.414011 A    
C64   C100  1.416035 A    
C59   C71   1.409230 A    
C87   N48   1.435625 S    
C87   C96   1.402690 A    
C139  C151  1.423713 A    
N30   O85   1.301002 A    
C131  N71   1.422035 S    
C148  N59   1.438631 S    
N32   O90   1.300087 A    
N81   O187  1.301331 A    
N72   O169  1.300840 A    
N76   O178  1.301280 A    
O11   Cr5   2.004121 S    
C100  C107  1.400786 A    
C57   C69   1.407799 A    
C146  C158  1.413422 A    
N56   O138  1.301086 A    
C110  C158  1.410957 A    
C63   C99   1.422331 A    
N79   O183  1.301327 A    
C132  N72   1.433150 S    
C60   O50   1.221248 D    
O1    C3    1.289506 A    
O2    C4    1.280605 A    
C25   C37   1.410345 A    
N49   O123  1.301227 A    
C119  C167  1.407812 A    
C27   C39   1.408618 A    
C99   C108  1.410036 A    
C60   C72   1.415723 A    
