data_mof_unit_12774.cif
_audit_creation_date              2013-03-05T16:10:14-0500
_audit_creation_method            fapswitch 2.2
_symmetry_space_group_name_H-M    P1
_symmetry_Int_Tables_number       1
_space_group_crystal_system       triclinic
_cell_length_a                    9.888462
_cell_length_b                    10.673438
_cell_length_c                    13.155729
_cell_angle_alpha                 90.504606
_cell_angle_beta                  69.720067
_cell_angle_gamma                 89.443749
_cell_volume                      1302.26272194

loop_
_atom_site_label
_atom_site_type_symbol
_atom_site_description
_atom_site_fract_x
_atom_site_fract_y
_atom_site_fract_z
_atom_type_partial_charge
O1    O     O_R   0.385370 0.683250 0.500010 -0.622250
O2    O     O_R   0.614700 0.683220 0.500010 -0.620481
C1    C     C_R   0.499209 0.739609 0.500711 0.875452
O3    O     O_R   0.328400 0.499990 0.653620 -0.611613
O4    O     O_R   0.557730 0.499960 0.653620 -0.614552
C2    C     C_R   0.420146 0.491210 0.703878 0.845703
Zn1   Zn    Zn3+2 0.346870 0.500020 0.500000 0.945481
Zn2   Zn    Zn3+2 0.653130 0.499980 0.500000 0.981464
O5    O     O_R   0.385300 0.316780 0.499990 -0.622579
O6    O     O_R   0.614630 0.316750 0.499990 -0.604834
O7    O     O_R   0.442270 0.500040 0.346380 -0.620039
O8    O     O_R   0.671600 0.500010 0.346380 -0.566268
C3    C     C_R   0.498458 0.260129 0.503448 0.870807
C4    C     C_R   0.580172 0.501139 0.295482 0.884724
C5    C     C_R   0.794047 0.405340 0.009272 -0.174635
H1    H     H_    0.848887 0.433395 0.151147 0.200333
H2    H     H_    0.899549 0.365710 0.965936 0.179610
C6    C     C_R   0.628752 0.489309 0.177724 -0.058194
C7    C     C_R   0.228311 0.512957 0.883575 -0.181768
C8    C     C_R   0.187283 0.520941 0.995565 -0.143904
C9    C     C_R   0.288764 0.500135 0.045318 -0.174521
C10   C     C_R   0.432972 0.465009 0.983199 0.087060
C11   C     C_R   0.465509 0.434991 0.873133 0.066187
C12   C     C_R   0.546029 0.459851 0.026089 0.069513
C13   C     C_R   0.684936 0.411162 0.962910 0.090218
C14   C     C_R   0.708674 0.365645 0.857141 -0.056250
C15   C     C_R   0.596077 0.371356 0.816480 -0.249908
C16   C     C_R   0.525190 0.506343 0.129642 -0.235863
C17   C     C_R   0.765617 0.443642 0.116170 -0.215891
C18   C     C_R   0.368714 0.474153 0.821373 -0.114862
H3    H     H_    0.426381 0.554062 0.176357 0.153632
H4    H     H_    0.151731 0.540823 0.845574 0.195439
H5    H     H_    0.250474 0.510222 0.132359 0.135691
H6    H     H_    0.078358 0.549538 0.043632 0.150093
H7    H     H_    0.613769 0.329303 0.737671 0.196274
C19   C     C_R   0.619681 0.934233 0.440216 -0.181288
H8    H     H_    0.714592 0.884042 0.388038 0.160558
C20   C     C_R   0.618080 0.062409 0.441886 -0.176938
H9    H     H_    0.710788 0.110720 0.389437 0.183868
C21   C     C_R   0.495683 0.127233 0.507990 -0.042499
C22   C     C_R   0.372238 0.064011 0.574493 0.175887
C23   C     C_R   0.374243 0.934545 0.570308 -0.167523
H10   H     H_    0.281440 0.882496 0.619895 0.144561
C24   C     C_R   0.497309 0.871580 0.503352 -0.064385
C25   C     C_R   0.953788 0.404029 0.451636 0.055990
C26   C     C_R   0.096365 0.404592 0.452679 -0.118755
H11   H     H_    0.171286 0.329464 0.413665 0.158679
N1    N     N_R   0.142790 0.500030 0.500030 -0.094745
C27   C     C_R   0.047840 0.594768 0.549314 -0.031686
H12   H     H_    0.082741 0.670774 0.588840 0.134633
C28   C     C_R   0.904187 0.594601 0.549525 -0.077085
H13   H     H_    0.831062 0.670404 0.589233 0.151978
N2    N     N_R   0.857180 0.499940 0.500010 -0.120428
C29   C     C_3   0.240553 0.131124 0.650596 -0.833043
H14   H     H_    0.272722 0.200771 0.700928 0.220737
H15   H     H_    0.181838 0.178581 0.603305 0.273488
H16   H     H_    0.164680 0.065235 0.706441 0.243166
C30   C     C_2   0.916840 0.298763 0.394199 0.918471
O9    O     O_2   0.940230 0.191404 0.416098 -0.640871
O10   O     O_R   0.868992 0.321389 0.308166 -0.814265
H17   H     H_    0.861986 0.242324 0.267197 0.315223
C31   C     C_2   0.851930 0.321987 0.782735 0.889267
O11   O     O_2   0.862059 0.227330 0.727370 -0.618081
O12   O     O_R   0.973856 0.393731 0.770885 -0.835439
H18   H     H_    0.064203 0.357928 0.714410 0.351255

loop_
_geom_bond_atom_site_label_1
_geom_bond_atom_site_label_2
_geom_bond_distance
_ccdc_geom_bond_type
Zn2   N2    2.017782 S    
O4    Zn2   1.911200 S    
Zn1   O7    1.911201 S    
O6    C3    1.290227 A    
C5    H2    1.080373 S    
C31   O11   1.223022 D    
C11   C15   1.410953 A    
C15   H7    1.082374 S    
C22   C23   1.382144 A    
C4    C6    1.458144 S    
C31   O12   1.397873 S    
C7    C8    1.387535 A    
Zn2   O8    1.965164 S    
C13   C14   1.409532 A    
C8    H6    1.082239 S    
O12   H18   1.012137 S    
C8    C9    1.392230 A    
C19   C20   1.367920 A    
O2    C1    1.282893 A    
C14   C31   1.483212 S    
C25   N2    1.383345 A    
C6    C17   1.394807 A    
O1    Zn1   1.996036 S    
C9    C10   1.420653 A    
Zn1   N1    2.017900 S    
C20   C21   1.394049 A    
C22   C29   1.508846 S    
C7    C18   1.401439 A    
C14   C15   1.393437 A    
O4    C2    1.294922 A    
C23   C24   1.392507 A    
O3    Zn1   1.965163 S    
C7    H4    1.082826 S    
O3    C2    1.297791 A    
C19   H8    1.084513 S    
C2    C18   1.463856 S    
O8    C4    1.298248 A    
C5    C17   1.391922 A    
C10   C12   1.416997 A    
C10   C11   1.403471 A    
C20   H9    1.076728 S    
C25   C30   1.466705 S    
O7    C4    1.294411 A    
C29   H15   1.109497 S    
C1    C24   1.408496 S    
C19   C24   1.389284 A    
C9    H5    1.078276 S    
C23   H10   1.085176 S    
C28   N2    1.366981 A    
C30   O10   1.391777 S    
C28   H13   1.081529 S    
C11   C18   1.415488 A    
C6    C16   1.389016 A    
C12   C13   1.426437 A    
C5    C13   1.412640 A    
Zn2   O6    1.996038 S    
C27   H12   1.081679 S    
C26   H11   1.083010 S    
Zn1   O5    1.988743 S    
O5    C3    1.281553 A    
C29   H14   1.110939 S    
N1    C27   1.368365 A    
C3    C21   1.420380 S    
C21   C22   1.413121 A    
O1    C1    1.284276 A    
H1    C17   1.078667 S    
C25   C26   1.414755 A    
C30   O9    1.223282 D    
C26   N1    1.353734 A    
C16   H3    1.077188 S    
O2    Zn2   1.988743 S    
C12   C16   1.391443 A    
O10   H17   1.013141 S    
C27   C28   1.419570 A    
C29   H16   1.111073 S    
