data_mof_unit_32275.cif
_audit_creation_date              2013-03-05T15:50:15-0500
_audit_creation_method            fapswitch 2.2
_symmetry_space_group_name_H-M    P1
_symmetry_Int_Tables_number       1
_space_group_crystal_system       triclinic
_cell_length_a                    18.15546
_cell_length_b                    25.942914
_cell_length_c                    18.348702
_cell_angle_alpha                 90.06659
_cell_angle_beta                  89.897816
_cell_angle_gamma                 90.22884
_cell_volume                      8642.25180485

loop_
_atom_site_label
_atom_site_type_symbol
_atom_site_description
_atom_site_fract_x
_atom_site_fract_y
_atom_site_fract_z
_atom_type_partial_charge
Zn1   Zn    Zn3+2 0.249990 0.293780 0.913250 1.037179
Zn2   Zn    Zn3+2 0.249990 0.706220 0.086750 1.049526
Zn3   Zn    Zn3+2 0.249990 0.706220 0.913250 1.014084
Zn4   Zn    Zn3+2 0.249990 0.293780 0.086750 1.052917
Zn5   Zn    Zn3+2 0.749990 0.793780 0.413250 1.012180
Zn6   Zn    Zn3+2 0.749990 0.206220 0.586750 1.015342
Zn7   Zn    Zn3+2 0.749990 0.206220 0.413250 1.007750
Zn8   Zn    Zn3+2 0.749990 0.793780 0.586750 1.022338
Zn9   Zn    Zn3+2 0.336760 0.206240 0.000000 0.971019
Zn10  Zn    Zn3+2 0.336760 0.793760 0.000000 0.983495
Zn11  Zn    Zn3+2 0.836760 0.706240 0.500000 0.999135
Zn12  Zn    Zn3+2 0.836760 0.293760 0.500000 1.012333
Zn13  Zn    Zn3+2 0.163250 0.206230 0.000000 1.008095
Zn14  Zn    Zn3+2 0.163250 0.793770 0.000000 0.997111
Zn15  Zn    Zn3+2 0.663250 0.706230 0.500000 1.011292
Zn16  Zn    Zn3+2 0.663250 0.293770 0.500000 1.012487
O1    O     O_3   0.249990 0.250010 0.000000 -0.508053
O2    O     O_3   0.249990 0.749990 0.000000 -0.504098
O3    O     O_3   0.749990 0.750010 0.500000 -0.496636
O4    O     O_3   0.749990 0.249990 0.500000 -0.498156
O5    O     O_R   0.335430 0.280650 0.146160 -0.629232
O6    O     O_R   0.335430 0.719350 0.853840 -0.619835
O7    O     O_R   0.335430 0.719350 0.146160 -0.612643
O8    O     O_R   0.335430 0.280650 0.853840 -0.626653
O9    O     O_R   0.835430 0.780650 0.646160 -0.631951
O10   O     O_R   0.835430 0.219350 0.353840 -0.628150
O11   O     O_R   0.835430 0.219350 0.646160 -0.635084
O12   O     O_R   0.835430 0.780650 0.353840 -0.649808
O13   O     O_R   0.164550 0.280640 0.853840 -0.614095
O14   O     O_R   0.164550 0.719360 0.146160 -0.575165
O15   O     O_R   0.164550 0.719360 0.853840 -0.640502
O16   O     O_R   0.164550 0.280640 0.146160 -0.585989
O17   O     O_R   0.664550 0.780640 0.353840 -0.642596
O18   O     O_R   0.664550 0.219360 0.646160 -0.646045
O19   O     O_R   0.664550 0.219360 0.353840 -0.647991
O20   O     O_R   0.664550 0.780640 0.646160 -0.644986
O21   O     O_R   0.396160 0.219380 0.914560 -0.669655
O22   O     O_R   0.396160 0.780620 0.085440 -0.672665
O23   O     O_R   0.396160 0.780620 0.914560 -0.661130
O24   O     O_R   0.396160 0.219380 0.085440 -0.660665
O25   O     O_R   0.896160 0.719380 0.414560 -0.645611
O26   O     O_R   0.896160 0.280620 0.585440 -0.650213
O27   O     O_R   0.896160 0.280620 0.414560 -0.638107
O28   O     O_R   0.896160 0.719380 0.585440 -0.649129
O29   O     O_R   0.103840 0.219370 0.085450 -0.675081
O30   O     O_R   0.103840 0.780630 0.914550 -0.651134
O31   O     O_R   0.103840 0.780630 0.085450 -0.673958
O32   O     O_R   0.103840 0.219370 0.914550 -0.625722
O33   O     O_R   0.603840 0.719370 0.585450 -0.653270
O34   O     O_R   0.603840 0.280630 0.414550 -0.655140
O35   O     O_R   0.603840 0.280630 0.585450 -0.657156
O36   O     O_R   0.603840 0.719370 0.414550 -0.654899
O37   O     O_R   0.310730 0.133160 0.000000 -0.649457
O38   O     O_R   0.310730 0.866840 0.000000 -0.649260
O39   O     O_R   0.810730 0.633160 0.500000 -0.650390
O40   O     O_R   0.810730 0.366840 0.500000 -0.647051
O41   O     O_R   0.249970 0.366860 0.060720 -0.584242
O42   O     O_R   0.249970 0.633140 0.939280 -0.608047
O43   O     O_R   0.249970 0.633140 0.060720 -0.608994
O44   O     O_R   0.249970 0.366860 0.939280 -0.611079
O45   O     O_R   0.749970 0.866860 0.560720 -0.646378
O46   O     O_R   0.749970 0.133140 0.439280 -0.641567
O47   O     O_R   0.749970 0.133140 0.560720 -0.637749
O48   O     O_R   0.749970 0.866860 0.439280 -0.623673
O49   O     O_R   0.189290 0.133150 0.000000 -0.642012
O50   O     O_R   0.189290 0.866850 0.000000 -0.655973
O51   O     O_R   0.689290 0.633150 0.500000 -0.663308
O52   O     O_R   0.689290 0.366850 0.500000 -0.668427
C1    C     C_R   0.393710 0.252504 0.137039 0.800128
C2    C     C_R   0.393750 0.747709 0.862861 0.814518
C3    C     C_R   0.391717 0.749471 0.139601 0.829534
C4    C     C_R   0.391663 0.250656 0.860464 0.797662
C5    C     C_R   0.893645 0.753091 0.637020 0.823851
C6    C     C_R   0.889547 0.250660 0.359887 0.774105
C7    C     C_R   0.890601 0.249843 0.638860 0.785500
C8    C     C_R   0.890917 0.751219 0.361104 0.771817
C9    C     C_R   0.108140 0.250370 0.861598 0.792215
C10   C     C_R   0.110092 0.749641 0.139418 0.797985
C11   C     C_R   0.106001 0.746030 0.863976 0.855939
C12   C     C_R   0.109542 0.250310 0.139168 0.763440
C13   C     C_R   0.615180 0.744981 0.355843 0.869650
C14   C     C_R   0.615328 0.255043 0.644133 0.865184
C15   C     C_R   0.605715 0.246145 0.364330 0.861862
C16   C     C_R   0.605501 0.754118 0.635284 0.858166
C17   C     C_R   0.249854 0.108908 0.999469 0.932237
C18   C     C_R   0.250194 0.890988 0.999334 0.927185
C19   C     C_R   0.749996 0.608879 0.500831 0.943096
C20   C     C_R   0.749933 0.390957 0.500325 0.959109
C21   C     C_R   0.247617 0.391226 0.000245 0.882883
C22   C     C_R   0.247494 0.608691 0.999621 0.811186
C23   C     C_R   0.749396 0.891270 0.500095 0.907359
C24   C     C_R   0.749916 0.108735 0.499932 0.901903
C25   C     C_3   0.184137 0.470921 0.053973 0.099696
C26   C     C_3   0.210510 0.527832 0.926104 0.073969
C27   C     C_3   0.196180 0.530256 0.063627 0.070225
C28   C     C_3   0.226869 0.469172 0.922143 0.108749
C29   C     C_3   0.813092 0.970457 0.548976 0.082041
C30   C     C_3   0.677747 0.029990 0.537556 0.052378
C31   C     C_3   0.817612 0.030444 0.542616 0.061544
C32   C     C_3   0.675167 0.969582 0.533214 0.048152
H1    H     H_    0.130014 0.465382 0.026568 0.131336
H2    H     H_    0.149710 0.532149 0.931140 0.084230
H3    H     H_    0.141327 0.549234 0.061663 0.099346
H4    H     H_    0.176280 0.449568 0.901671 0.137699
H5    H     H_    0.799117 0.961518 0.606727 0.148016
H6    H     H_    0.680310 0.040744 0.596260 0.122921
H7    H     H_    0.816283 0.046452 0.598924 0.136794
H8    H     H_    0.669349 0.954704 0.589840 0.117882
H9    H     H_    0.329968 0.463934 0.082920 0.259576
H10   H     H_    0.356530 0.536845 0.957661 0.237288
H11   H     H_    0.353897 0.549380 0.053303 0.207453
H12   H     H_    0.367027 0.451439 0.994625 0.197468
H13   H     H_    0.811029 0.958565 0.398899 0.267375
H14   H     H_    0.701570 0.040988 0.390733 0.219878
H15   H     H_    0.799645 0.045524 0.390312 0.228846
H16   H     H_    0.714251 0.954215 0.385265 0.223853
C33   C     C_3   0.321193 0.470957 0.023787 -0.367549
C34   C     C_3   0.324255 0.529546 0.008231 -0.358779
C35   C     C_3   0.757319 0.970430 0.421827 -0.325712
C36   C     C_3   0.751937 0.029424 0.420961 -0.344843
C37   C     C_3   0.245024 0.448850 0.000713 -0.128539
C38   C     C_3   0.245015 0.550933 0.998727 -0.081130
C39   C     C_3   0.748986 0.949036 0.500578 -0.101680
C40   C     C_3   0.749287 0.050982 0.499981 -0.089933
C41   C     C_R   0.146150 0.220413 0.715154 -0.087198
C42   C     C_R   0.011245 0.665353 0.155065 -0.103326
C43   C     C_R   0.095810 0.662774 0.750819 -0.096344
C44   C     C_R   0.103934 0.171131 0.245004 -0.142920
C45   C     C_R   0.658355 0.769879 0.201700 -0.120445
C46   C     C_R   0.658331 0.231488 0.798620 -0.091454
C47   C     C_R   0.585734 0.157132 0.263518 -0.092353
C48   C     C_R   0.585480 0.844214 0.734052 -0.091793
C49   C     C_R   0.165556 0.207502 0.643950 -0.084038
C50   C     C_R   0.961407 0.624596 0.160453 -0.105756
C51   C     C_R   0.113332 0.637826 0.685824 -0.084663
C52   C     C_R   0.101189 0.131077 0.295488 -0.095061
C53   C     C_R   0.674302 0.787594 0.131965 -0.097000
C54   C     C_R   0.674282 0.215295 0.869006 -0.119971
C55   C     C_R   0.598897 0.126263 0.202814 -0.109076
C56   C     C_R   0.598533 0.875728 0.794126 -0.103873
C57   C     C_R   0.619528 0.788646 0.079583 -0.111118
C58   C     C_R   0.619528 0.215101 0.921667 -0.111486
C59   C     C_R   0.573390 0.141511 0.134970 -0.122749
C60   C     C_R   0.572455 0.861166 0.862211 -0.126716
C61   C     C_R   0.112707 0.207714 0.589306 -0.096114
C62   C     C_R   0.906173 0.625791 0.212791 -0.088980
C63   C     C_R   0.086709 0.656825 0.620336 -0.107754
C64   C     C_R   0.045912 0.129872 0.347800 -0.126945
C65   C     C_R   0.548218 0.772914 0.096982 -0.157606
C66   C     C_R   0.548139 0.229928 0.903852 -0.147702
C67   C     C_R   0.529551 0.185264 0.128878 -0.131661
C68   C     C_R   0.528431 0.817299 0.869210 -0.136378
C69   C     C_R   0.040342 0.221291 0.605482 -0.125673
C70   C     C_R   0.901081 0.667505 0.260403 -0.154381
C71   C     C_R   0.037400 0.697839 0.620504 -0.119029
C72   C     C_R   0.993870 0.169116 0.350428 -0.150960
C73   C     C_R   0.528404 0.758412 0.169212 0.083830
C74   C     C_R   0.528431 0.242901 0.831174 0.082610
C75   C     C_R   0.509306 0.214428 0.191266 0.085447
C76   C     C_R   0.508582 0.787243 0.807475 0.086918
C77   C     C_R   0.019689 0.235790 0.677132 0.072549
C78   C     C_R   0.952164 0.708876 0.257077 0.057874
C79   C     C_R   0.013542 0.720508 0.686818 0.074394
C80   C     C_R   0.995681 0.210265 0.299519 0.070626
C81   C     C_R   0.073055 0.234979 0.732922 0.080072
C82   C     C_R   0.007377 0.708179 0.203221 0.066343
C83   C     C_R   0.051128 0.707409 0.751189 0.053398
C84   C     C_R   0.050390 0.210827 0.245248 0.065121
C85   C     C_R   0.585674 0.755618 0.221778 0.084879
C86   C     C_R   0.585750 0.245285 0.778437 0.090577
C87   C     C_R   0.545976 0.203784 0.257207 0.062849
C88   C     C_R   0.545411 0.797528 0.741262 0.063754
C89   C     C_R   0.454717 0.744472 0.190729 -0.154357
C90   C     C_R   0.454735 0.255877 0.809337 -0.150691
C91   C     C_R   0.455787 0.254492 0.189751 -0.175364
C92   C     C_R   0.455755 0.746388 0.809944 -0.180130
C93   C     C_R   0.947228 0.251358 0.694188 -0.116731
C94   C     C_R   0.946648 0.751864 0.303908 -0.112181
C95   C     C_R   0.954953 0.756468 0.690482 -0.166156
C96   C     C_R   0.945912 0.251642 0.303733 -0.106520
C97   C     C_R   0.444773 0.717261 0.257604 0.000494
C98   C     C_R   0.444837 0.282388 0.742064 0.008773
C99   C     C_R   0.451740 0.289478 0.248694 0.008689
C100  C     C_R   0.452431 0.710853 0.751692 0.008273
C101  C     C_R   0.927491 0.265959 0.765365 0.017484
C102  C     C_R   0.992811 0.795800 0.294566 0.021932
C103  C     C_R   0.946511 0.787236 0.754061 0.003695
C104  C     C_R   0.949989 0.293903 0.254873 0.043487
C105  C     C_R   0.975539 0.255035 0.822910 0.050253
C106  C     C_R   0.052653 0.793499 0.245353 0.025450
C107  C     C_R   0.981328 0.772381 0.818980 0.033328
C108  C     C_R   0.999688 0.292527 0.195504 -0.046077
C109  C     C_R   0.507003 0.701927 0.296636 0.030275
C110  C     C_R   0.507147 0.297933 0.702925 0.031714
C111  C     C_R   0.483917 0.276536 0.315653 0.036940
C112  C     C_R   0.483725 0.723924 0.684296 0.042070
C113  C     C_R   0.051327 0.245916 0.805548 -0.108139
C114  C     C_R   0.056708 0.750342 0.197686 -0.100284
C115  C     C_R   0.042519 0.738760 0.813953 -0.122731
C116  C     C_R   0.051378 0.251088 0.193124 -0.127138
C117  C     C_R   0.570241 0.733345 0.290437 -0.126745
C118  C     C_R   0.570401 0.266869 0.709466 -0.123209
C119  C     C_R   0.541310 0.239453 0.315347 -0.124897
C120  C     C_R   0.540830 0.761334 0.683751 -0.127534
C121  C     C_R   0.375708 0.701682 0.285213 -0.113036
C122  C     C_R   0.375797 0.297337 0.714402 -0.141854
C123  C     C_R   0.416967 0.337615 0.242141 -0.131151
C124  C     C_R   0.420882 0.661567 0.759552 -0.119777
C125  C     C_R   0.860645 0.291612 0.779962 -0.186327
C126  C     C_R   0.979900 0.842269 0.332781 -0.176476
C127  C     C_R   0.906171 0.833530 0.754097 -0.123600
C128  C     C_R   0.904637 0.337445 0.264667 -0.158952
C129  C     C_R   0.369658 0.658326 0.330347 -0.050362
C130  C     C_R   0.369772 0.340660 0.669289 -0.029471
C131  C     C_R   0.400099 0.367270 0.303565 -0.046352
C132  C     C_R   0.407543 0.630354 0.698684 -0.052704
C133  C     C_R   0.839353 0.303615 0.851350 -0.019208
C134  C     C_R   0.024702 0.885808 0.322533 -0.035726
C135  C     C_R   0.889675 0.859637 0.819022 -0.024106
C136  C     C_R   0.907098 0.379584 0.217373 -0.067216
C137  C     C_R   0.880421 0.283248 0.909538 0.117694
C138  C     C_R   0.088460 0.881942 0.279858 0.146567
C139  C     C_R   0.910430 0.837431 0.885979 0.072596
C140  C     C_R   0.951393 0.376877 0.154576 0.266077
C141  C     C_R   0.434228 0.631554 0.349190 0.143546
C142  C     C_R   0.434404 0.367781 0.650204 0.154903
C143  C     C_R   0.414342 0.346662 0.373067 0.082402
C144  C     C_R   0.417610 0.651473 0.628738 0.075051
C145  C     C_R   0.944946 0.254678 0.894785 -0.086330
C146  C     C_R   0.104948 0.835255 0.244519 -0.056082
C147  C     C_R   0.953911 0.792288 0.886317 -0.014058
C148  C     C_R   0.996128 0.333064 0.141966 -0.017176
C149  C     C_R   0.503804 0.654623 0.336197 -0.056734
C150  C     C_R   0.503990 0.345118 0.663114 -0.067892
C151  C     C_R   0.455989 0.300839 0.379847 -0.036495
C152  C     C_R   0.456213 0.698653 0.620756 -0.034285
H17   H     H_    0.188764 0.217507 0.755990 0.132802
H18   H     H_    0.052307 0.662868 0.112436 0.133255
H19   H     H_    0.115884 0.645964 0.800779 0.193441
H20   H     H_    0.148848 0.170795 0.206287 0.169630
H21   H     H_    0.704873 0.764146 0.237260 0.165657
H22   H     H_    0.704819 0.236655 0.762622 0.168004
H23   H     H_    0.605552 0.143552 0.315617 0.176172
H24   H     H_    0.605808 0.857220 0.681713 0.169561
H25   H     H_    0.221630 0.196518 0.631386 0.152679
H26   H     H_    0.965183 0.592254 0.123304 0.167124
H27   H     H_    0.148899 0.604442 0.686137 0.200150
H28   H     H_    0.142313 0.100983 0.294157 0.199120
H29   H     H_    0.730242 0.798041 0.117487 0.170462
H30   H     H_    0.730250 0.205510 0.883686 0.164768
H31   H     H_    0.630549 0.091199 0.208164 0.166028
H32   H     H_    0.630548 0.910769 0.788126 0.174645
H33   H     H_    0.632929 0.799917 0.024295 0.152465
H34   H     H_    0.632970 0.205118 0.977356 0.153762
H35   H     H_    0.587020 0.119180 0.086956 0.189372
H36   H     H_    0.585949 0.884058 0.909759 0.191539
H37   H     H_    0.127707 0.197039 0.534199 0.154370
H38   H     H_    0.866683 0.594507 0.216057 0.191680
H39   H     H_    0.103332 0.639288 0.569378 0.198268
H40   H     H_    0.043924 0.098814 0.387129 0.189793
H41   H     H_    0.511809 0.769800 0.051175 0.158830
H42   H     H_    0.511422 0.233728 0.949460 0.158478
H43   H     H_    0.515164 0.196758 0.074337 0.159219
H44   H     H_    0.513958 0.806385 0.924042 0.160401
H45   H     H_    0.001143 0.220264 0.561199 0.139851
H46   H     H_    0.855797 0.667449 0.298715 0.170856
H47   H     H_    0.020560 0.712508 0.568071 0.174139
H48   H     H_    0.953053 0.167100 0.393373 0.149747
H49   H     H_    0.326169 0.722012 0.270406 0.243766
H50   H     H_    0.326261 0.276687 0.729487 0.194396
H51   H     H_    0.403996 0.352627 0.188668 0.189964
H52   H     H_    0.408393 0.646780 0.813384 0.192280
H53   H     H_    0.825939 0.304050 0.735424 0.190231
H54   H     H_    0.933756 0.845768 0.369764 0.190642
H55   H     H_    0.890331 0.850998 0.703008 0.219638
H56   H     H_    0.867200 0.339515 0.310425 0.191744
H57   H     H_    0.996718 0.033433 0.031362 0.161999
H58   H     H_    0.000411 0.961683 0.943919 0.169683
H59   H     H_    0.497377 0.535564 0.540864 0.221191
H60   H     H_    0.499242 0.463788 0.453614 0.214853
C153  C     C_R   0.382804 0.045477 0.954108 -0.092292
C154  C     C_R   0.382700 0.956499 0.041473 -0.102892
C155  C     C_R   0.885537 0.543061 0.470376 -0.082822
C156  C     C_R   0.877800 0.454272 0.557544 -0.107276
C157  C     C_R   0.450305 0.022490 0.973997 0.194441
C158  C     C_R   0.450207 0.980147 0.022063 0.196323
C159  C     C_R   0.951060 0.520150 0.495903 0.190255
C160  C     C_R   0.946771 0.478041 0.544253 0.207805
C161  C     C_R   0.316683 0.975074 0.009213 0.007667
C162  C     C_R   0.316491 0.025675 0.984932 0.004468
C163  C     C_R   0.814601 0.474088 0.521475 0.003449
C164  C     C_R   0.817083 0.524723 0.497714 0.013097
C165  C     C_R   0.250589 0.946637 0.996378 -0.080598
C166  C     C_R   0.249664 0.053058 0.996815 -0.079734
C167  C     C_R   0.749380 0.446550 0.503126 -0.064432
C168  C     C_R   0.750150 0.552994 0.504314 -0.078533
C169  C     C_R   0.184507 0.973878 0.981041 0.038517
C170  C     C_R   0.183024 0.024550 0.005810 0.045338
C171  C     C_R   0.683637 0.474593 0.488775 0.052860
C172  C     C_R   0.683135 0.525249 0.514047 0.043358
C173  C     C_R   0.119007 0.953630 0.948782 0.011043
C174  C     C_R   0.115210 0.042991 0.034621 0.036291
C175  C     C_R   0.617660 0.455332 0.456397 -0.033315
C176  C     C_R   0.615770 0.544669 0.542759 -0.031412
C177  C     C_R   0.051516 0.976935 0.965634 -0.192981
C178  C     C_R   0.049462 0.019277 0.012425 -0.178214
C179  C     C_R   0.550748 0.478681 0.474814 -0.169968
C180  C     C_R   0.549731 0.520953 0.521745 -0.162931
Br1   Br    Br    0.167539 0.435578 0.147681 -0.275125
Br2   Br    Br    0.227673 0.561099 0.831157 -0.420092
Br3   Br    Br    0.237377 0.548226 0.160352 -0.325476
Br4   Br    Br    0.305636 0.451825 0.851296 -0.333340
Br5   Br    Br    0.906752 0.934143 0.535657 -0.422077
Br6   Br    Br    0.588594 0.064654 0.502242 -0.399435
Br7   Br    Br    0.910096 0.056960 0.500846 -0.478021
Br8   Br    Br    0.589507 0.940612 0.481893 -0.389459
C181  C     C_2   0.771710 0.334494 0.864051 0.466816
H61   H     H_    0.753673 0.343912 0.918728 0.129320
O53   O     O_2   0.735019 0.350318 0.813095 -0.506175
C182  C     C_2   0.004730 0.935265 0.357305 0.523261
H62   H     H_    0.046456 0.963575 0.371263 0.122011
O54   O     O_2   0.940443 0.945705 0.368918 -0.559776
C183  C     C_2   0.848233 0.908912 0.815935 0.442294
H63   H     H_    0.838005 0.931249 0.864783 0.130308
O55   O     O_2   0.824949 0.925555 0.758181 -0.583104
C184  C     C_2   0.861456 0.425798 0.233797 0.494072
H64   H     H_    0.861443 0.458926 0.197982 0.111881
O56   O     O_2   0.823344 0.427838 0.288662 -0.521270
C185  C     C_2   0.295726 0.639432 0.352905 0.559108
H65   H     H_    0.290136 0.607363 0.390317 0.155407
O57   O     O_2   0.239672 0.659757 0.330292 -0.521410
C186  C     C_2   0.295793 0.359179 0.647177 0.551440
H66   H     H_    0.290083 0.391794 0.610834 0.161644
O58   O     O_2   0.239797 0.337929 0.668987 -0.549250
C187  C     C_2   0.364260 0.418277 0.294293 0.531479
H67   H     H_    0.353994 0.443080 0.340713 0.155931
O59   O     O_2   0.346300 0.433729 0.234063 -0.532958
C188  C     C_2   0.382216 0.576452 0.709103 0.540390
H68   H     H_    0.358127 0.554622 0.664736 0.154364
O60   O     O_2   0.390383 0.554897 0.767627 -0.497620
C189  C     C_2   0.962535 0.212646 0.946553 0.505770
H69   H     H_    0.959630 0.218677 0.004918 0.085656
O61   O     O_2   0.976496 0.169427 0.924034 -0.540073
C190  C     C_2   0.179988 0.830483 0.213522 0.483034
H70   H     H_    0.199278 0.857672 0.172797 0.111763
O62   O     O_2   0.221771 0.797333 0.235822 -0.552566
C191  C     C_2   0.961953 0.762705 0.955521 0.483723
H71   H     H_    0.957637 0.781642 0.007996 0.119759
O63   O     O_2   0.972202 0.716206 0.954608 -0.606633
C192  C     C_2   0.031448 0.328057 0.069233 0.514833
H72   H     H_    0.023450 0.293327 0.037628 0.014586
O64   O     O_2   0.070646 0.362100 0.044451 -0.556912
C193  C     C_2   0.571561 0.624924 0.353541 0.511987
H73   H     H_    0.571416 0.597049 0.397499 0.104284
O65   O     O_2   0.627931 0.630509 0.317950 -0.577564
C194  C     C_2   0.571761 0.375143 0.645390 0.534268
H74   H     H_    0.571615 0.402967 0.601368 0.092416
O66   O     O_2   0.628171 0.369869 0.680700 -0.511758
C195  C     C_2   0.460000 0.275041 0.452263 0.510405
H75   H     H_    0.456308 0.297219 0.502237 0.092249
O67   O     O_2   0.466336 0.228307 0.456856 -0.562382
C196  C     C_2   0.459029 0.723979 0.547933 0.517379
H76   H     H_    0.454314 0.701484 0.498329 0.095691
O68   O     O_2   0.465577 0.770693 0.542581 -0.556422
C197  C     C_2   0.381244 0.083051 0.892834 0.516995
H77   H     H_    0.429453 0.105808 0.879037 0.109307
O69   O     O_2   0.325892 0.088251 0.855866 -0.583305
C198  C     C_2   0.380643 0.920087 0.104079 0.532447
H78   H     H_    0.428479 0.897417 0.118388 0.109397
O70   O     O_2   0.325346 0.915886 0.141632 -0.563934
C199  C     C_2   0.888149 0.576702 0.405015 0.500068
H79   H     H_    0.937153 0.598711 0.391552 0.108880
O71   O     O_2   0.835281 0.579023 0.364111 -0.590840
C200  C     C_2   0.870774 0.415281 0.616694 0.503926
H80   H     H_    0.917622 0.392444 0.633442 0.107788
O72   O     O_2   0.812361 0.409012 0.648670 -0.541084
Br9   Br    Br    0.542725 0.049401 0.937881 -0.492952
Br10  Br    Br    0.542374 0.954349 0.059329 -0.482230
Br11  Br    Br    0.046075 0.546135 0.465713 -0.419939
Br12  Br    Br    0.035365 0.452440 0.589356 -0.387489
C201  C     C_2   0.119376 0.914643 0.889544 0.481915
H81   H     H_    0.068524 0.895401 0.874029 0.059090
O73   O     O_2   0.175660 0.905029 0.855702 -0.566255
C202  C     C_2   0.111727 0.078261 0.097962 0.468915
H82   H     H_    0.060479 0.097350 0.111889 0.063720
O74   O     O_2   0.165395 0.084530 0.137028 -0.594837
C203  C     C_2   0.616744 0.417848 0.395285 0.485727
H83   H     H_    0.565577 0.399009 0.379890 0.047396
O75   O     O_2   0.672236 0.409166 0.359724 -0.531253
C204  C     C_2   0.612347 0.582549 0.603280 0.491937
H84   H     H_    0.560580 0.601067 0.616649 0.056662
O76   O     O_2   0.666421 0.591949 0.640563 -0.564998
Br13  Br    Br    0.844542 0.289508 0.008499 -0.596686
Br14  Br    Br    0.153637 0.940842 0.269104 -0.468148
Br15  Br    Br    0.877541 0.867767 0.976681 -0.593480
Br16  Br    Br    0.946433 0.431739 0.083049 -0.465020
Br17  Br    Br    0.427184 0.560729 0.380849 -0.533199
Br18  Br    Br    0.427538 0.438455 0.617952 -0.507312
Br19  Br    Br    0.370105 0.378297 0.457317 -0.560490
Br20  Br    Br    0.374597 0.617422 0.545762 -0.574208

loop_
_geom_bond_atom_site_label_1
_geom_bond_atom_site_label_2
_geom_bond_distance
_ccdc_geom_bond_type
C135  C183  1.487089 S    
C160  Br12  1.930731 S    
C163  C164  1.385093 A    
H10   C34   1.112568 S    
Zn7   O10   1.923846 S    
C41   H17   1.080898 S    
C142  Br18  1.931871 S    
C47   C87   1.416642 A    
O26   C7    1.268582 A    
H11   C34   1.112078 S    
C146  C190  1.480991 S    
C25   C37   1.582640 S    
C166  C170  1.424927 A    
O5    C1    1.298476 A    
O30   C11   1.290969 A    
C111  C119  1.421020 A    
C105  C113  1.432341 A    
C109  C117  1.409882 A    
C170  C174  1.423359 A    
Zn12  O26   1.935756 S    
C73   C85   1.421602 A    
C74   C90   1.438706 A    
C184  H64   1.082508 S    
C98   C110  1.397245 A    
C112  C120  1.417330 A    
C63   C71   1.393262 A    
Zn3   O15   1.929213 S    
C29   H5    1.113639 S    
C122  C130  1.401381 A    
C59   C67   1.393633 A    
C132  C188  1.482771 S    
C64   H40   1.082713 S    
O11   C7    1.280807 A    
C65   H41   1.072995 S    
C198  H78   1.083679 S    
C193  O65   1.221274 D    
O34   C15   1.284077 A    
C133  C137  1.407963 A    
C138  Br14  1.938942 S    
C61   H37   1.082708 S    
C183  H63   1.082914 S    
C80   C84   1.405270 A    
Zn1   O44   1.954606 S    
C25   H1    1.113332 S    
C14   C118  1.481271 S    
Zn2   O43   1.954604 S    
C167  C171  1.425421 A    
C128  C136  1.397073 A    
C161  C165  1.425894 A    
Zn5   O48   1.954606 S    
C69   C77   1.417291 A    
C106  C146  1.437673 A    
Zn6   O47   1.954604 S    
C102  C106  1.412876 A    
C163  C167  1.421266 A    
C82   C114  1.414585 A    
Zn7   O46   1.955680 S    
O16   C12   1.275502 A    
C62   C70   1.393262 A    
C173  C177  1.402407 A    
Zn16  O4    1.945325 S    
Zn12  O4    1.938260 S    
Zn1   O13   1.926574 S    
C76   C88   1.410947 A    
C30   Br6   1.966015 S    
C134  C182  1.478436 S    
C26   C28   1.553282 S    
Zn4   O16   1.923890 S    
O41   C21   1.278550 A    
C26   C38   1.589142 S    
C27   C38   1.576650 S    
C103  C127  1.409185 A    
C28   H4    1.113748 S    
C201  H81   1.086063 S    
C101  C125  1.411525 A    
C49   C61   1.389039 A    
C77   C93   1.412183 A    
C203  H83   1.085629 S    
C46   C54   1.389916 A    
C154  C198  1.488437 S    
Zn6   O4    1.956341 S    
C91   C99   1.413117 A    
C174  C202  1.479769 S    
C92   C100  1.411886 A    
C21   C37   1.495878 S    
C43   C51   1.393132 A    
C202  O74   1.220910 D    
C35   C39   1.555420 S    
C155  C164  1.419909 A    
C174  C178  1.401606 A    
C30   H6    1.113378 S    
C129  C185  1.485426 S    
Zn10  O22   1.935756 S    
C125  C133  1.400133 A    
C24   C40   1.498288 S    
C159  Br11  1.930082 S    
C197  H77   1.083589 S    
O25   C8    1.286947 A    
Zn13  O29   1.932246 S    
C104  C128  1.411636 A    
Zn10  O2    1.938260 S    
O29   C12   1.274517 A    
Zn15  O33   1.932246 S    
C192  H72   1.080385 S    
C7    C93   1.446534 S    
C152  C196  1.490394 S    
C86   C118  1.413125 A    
C187  H67   1.083220 S    
C94   C102  1.422426 A    
C169  C170  1.390779 A    
C45   C53   1.389700 A    
C26   H2    1.113640 S    
C107  C147  1.428078 A    
C175  C203  1.483472 S    
C195  H75   1.084077 S    
O37   C17   1.269619 A    
C10   C114  1.441923 S    
O48   C23   1.282455 A    
C183  O55   1.221583 D    
C2    C92   1.485787 S    
C50   H26   1.082728 S    
C77   C81   1.410966 A    
C182  O54   1.217591 D    
C99   C123  1.406934 A    
C97   C121  1.409418 A    
Zn16  O35   1.931368 S    
C90   C98   1.425752 A    
C30   C40   1.565548 S    
C132  C144  1.407401 A    
C18   C165  1.444765 S    
C196  O68   1.221292 D    
C28   C37   1.571580 S    
O33   C16   1.283604 A    
C144  Br20  1.924531 S    
O40   C20   1.270973 A    
C196  H76   1.083962 S    
C88   C120  1.414038 A    
C34   C38   1.554178 S    
C200  H80   1.083615 S    
C55   C59   1.387539 A    
C48   H24   1.082038 S    
C123  H51   1.082703 S    
C158  Br10  1.931222 S    
C145  C189  1.483065 S    
C124  H52   1.083335 S    
Zn5   O17   1.926574 S    
C149  C193  1.489211 S    
C108  C116  1.430435 A    
C25   C27   1.563796 S    
C59   H35   1.082674 S    
C165  C169  1.423530 A    
C185  O57   1.221548 D    
C148  C192  1.485380 S    
C27   H3    1.113370 S    
C189  O61   1.221876 D    
C32   H8    1.113503 S    
Zn8   O3    1.954193 S    
C51   H27   1.082394 S    
C164  C168  1.426764 A    
C186  H66   1.083350 S    
O38   C18   1.267332 A    
C74   C86   1.420977 A    
C71   C79   1.418625 A    
C85   C117  1.413744 A    
C147  C191  1.492162 S    
C98   C122  1.409158 A    
C67   C75   1.420103 A    
O32   C9    1.264102 A    
C41   C81   1.418590 A    
C72   H48   1.081920 S    
Zn15  O51   1.955795 S    
C194  O66   1.221088 D    
C161  C162  1.386789 A    
Zn11  O28   1.933596 S    
C27   Br3   1.981585 S    
C52   C64   1.387762 A    
H58   C177  1.083625 S    
Zn7   O4    1.954194 S    
C51   C63   1.387735 A    
C79   C95   1.419107 A    
C62   H38   1.082434 S    
C137  Br13  1.934893 S    
O8    C4    1.292126 A    
C162  C166  1.424716 A    
C70   C78   1.416960 A    
C190  O62   1.220510 D    
C203  O75   1.220920 D    
O50   C18   1.268621 A    
H15   C36   1.112146 S    
C101  C105  1.400751 A    
C127  C135  1.402159 A    
Zn1   O1    1.956343 S    
C19   C168  1.451321 S    
C142  C150  1.416039 A    
Zn13  O1    1.937967 S    
C22   C38   1.498955 S    
Zn2   O14   1.925636 S    
C20   C167  1.443156 S    
C31   Br7   1.966554 S    
C60   C68   1.393959 A    
C33   C34   1.547611 S    
C46   H22   1.078846 S    
C16   C120  1.483963 S    
C171  C175  1.426360 A    
C126  H54   1.081206 S    
C131  C143  1.408149 A    
C63   H39   1.082324 S    
O36   C13   1.282188 A    
C78   C94   1.410871 A    
C47   C55   1.391949 A    
C89   C97   1.427176 A    
C176  C180  1.399982 A    
O13   C9    1.295811 A    
C190  H70   1.084835 S    
C138  C146  1.406218 A    
Zn1   O8    1.925591 S    
Zn2   O7    1.926531 S    
C169  C173  1.427328 A    
Zn3   O6    1.923846 S    
C184  O56   1.221766 D    
O18   C14   1.289878 A    
O31   C10   1.281709 A    
O6    C2    1.297651 A    
C49   H25   1.082642 S    
C31   C40   1.563452 S    
C43   H19   1.080159 S    
C56   H32   1.082650 S    
C198  O70   1.221216 D    
C193  H73   1.083905 S    
H9    C33   1.112253 S    
Zn14  O30   1.933848 S    
Zn15  O3    1.937967 S    
C60   H36   1.082712 S    
Zn11  O3    1.945618 S    
C75   C87   1.410142 A    
C176  C204  1.483404 S    
Zn16  O34   1.933848 S    
C8    C94   1.456567 S    
C44   C52   1.393525 A    
H12   C33   1.111891 S    
C136  C184  1.490324 S    
C95   C103  1.421177 A    
C199  H79   1.083554 S    
C110  C118  1.410973 A    
C130  C186  1.485582 S    
C93   C101  1.405627 A    
C52   H28   1.082657 S    
Zn8   O20   1.923890 S    
C181  O53   1.221383 D    
H57   C178  1.083470 S    
C96   C104  1.418698 A    
C78   C82   1.406507 A    
C48   C56   1.391738 A    
C99   C111  1.403056 A    
C4    C90   1.484889 S    
C97   C109  1.398131 A    
C80   C96   1.407830 A    
C67   H43   1.077449 S    
C153  C162  1.423586 A    
C68   H44   1.077308 S    
H60   C179  1.083084 S    
C121  C129  1.401380 A    
C1    C91   1.487165 S    
Zn8   O9    1.929168 S    
C111  C151  1.428532 A    
Zn7   O19   1.929213 S    
C50   C62   1.387622 A    
O15   C11   1.283786 A    
C109  C149  1.427466 A    
C32   Br8   1.965832 S    
C139  C147  1.414991 A    
C153  C157  1.413718 A    
C11   C115  1.485947 S    
C155  C159  1.412836 A    
C179  C180  1.393709 A    
O7    C3    1.289510 A    
C156  C160  1.414500 A    
C15   C119  1.485582 S    
C54   C58   1.385083 A    
C191  H71   1.083291 S    
O19   C15   1.290661 A    
C13   C117  1.482482 S    
C112  C152  1.426995 A    
C54   H30   1.082903 S    
C100  C112  1.401422 A    
C25   Br1   1.971690 S    
Zn9   O24   1.933596 S    
Zn6   O18   1.925636 S    
Zn10  O23   1.931997 S    
C140  Br16  1.939615 S    
C105  C145  1.430121 A    
C171  C172  1.393110 A    
C157  C158  1.409531 A    
C81   C113  1.417774 A    
C139  Br15  1.934658 S    
C159  C160  1.409912 A    
C123  C131  1.398064 A    
Zn15  O36   1.936008 S    
C192  O64   1.219816 D    
O42   C22   1.277270 A    
C66   H42   1.073656 S    
Zn4   O1    1.954193 S    
C30   C32   1.569613 S    
C102  C126  1.414109 A    
C150  C194  1.489264 S    
Zn9   O37   1.952091 S    
O12   C8    1.273740 A    
Zn11  O39   1.952091 S    
C106  C114  1.422013 A    
C187  O59   1.221346 D    
C108  C148  1.441638 A    
C53   C57   1.384615 A    
C84   C116  1.417084 A    
C56   C60   1.387495 A    
C107  C115  1.417982 A    
C42   C82   1.420633 A    
C58   H34   1.082945 S    
C53   H29   1.082826 S    
C35   C36   1.534083 S    
C204  H84   1.084812 S    
Zn5   O3    1.956343 S    
C44   H20   1.080601 S    
C31   H7    1.113327 S    
C66   C74   1.422453 A    
C100  C124  1.406440 A    
C104  C108  1.413766 A    
C32   C39   1.562377 S    
C141  C149  1.415575 A    
C58   C66   1.393005 A    
C197  O69   1.221443 D    
C156  C200  1.489440 S    
H59   C180  1.082408 S    
C45   H21   1.079035 S    
C46   C86   1.416867 A    
C143  Br19  1.925162 S    
C87   C119  1.414055 A    
O28   C5    1.288766 A    
C200  O72   1.221477 D    
C135  C139  1.410076 A    
Zn3   O42   1.955680 S    
C168  C172  1.422277 A    
C57   H33   1.083088 S    
C29   C39   1.565069 S    
C177  C178  1.393989 A    
O21   C4    1.285661 A    
C137  C145  1.414333 A    
C201  O73   1.221226 D    
C133  C181  1.486831 S    
C64   C72   1.392484 A    
C65   C73   1.423317 A    
H14   C36   1.112736 S    
C172  C176  1.424518 A    
C73   C89   1.439114 A    
C155  C199  1.484629 S    
C68   C76   1.420618 A    
Zn2   O2    1.956341 S    
C185  H65   1.083557 S    
Zn14  O2    1.945325 S    
C69   H45   1.081319 S    
C202  H82   1.085726 S    
C57   C65   1.392577 A    
Zn13  O49   1.955795 S    
C189  H69   1.083345 S    
C127  H55   1.081589 S    
C188  O60   1.220827 D    
C45   C85   1.417221 A    
C186  O58   1.221550 D    
Zn12  O27   1.931997 S    
C140  C148  1.418173 A    
C12   C116  1.446397 S    
Zn3   O2    1.954194 S    
C33   C37   1.554276 S    
C156  C163  1.423756 A    
C199  O71   1.221203 D    
O46   C24   1.281010 A    
O47   C24   1.281911 A    
C110  C150  1.427625 A    
Zn16  O52   1.952131 S    
O9    C5    1.288992 A    
C153  C197  1.489269 S    
Zn8   O45   1.955683 S    
C61   C69   1.392960 A    
O27   C6    1.273879 A    
C124  C132  1.399634 A    
C75   C91   1.425979 A    
C29   Br5   1.962032 S    
C76   C92   1.427292 A    
C141  Br17  1.931380 S    
C130  C142  1.409652 A    
C42   C50   1.392395 A    
C29   C31   1.562548 S    
C134  C138  1.400231 A    
C128  H56   1.080711 S    
C121  H49   1.079777 S    
O24   C1    1.278702 A    
C129  C141  1.408793 A    
C173  C201  1.483894 S    
C175  C179  1.400304 A    
C9    C113  1.462028 S    
C3    C89   1.486761 S    
C157  Br9   1.931256 S    
O43   C22   1.288201 A    
O14   C10   1.271560 A    
Zn4   O41   1.955683 S    
C79   C83   1.407786 A    
C151  C195  1.490502 S    
C191  O63   1.221405 D    
Zn5   O12   1.925591 S    
C154  C161  1.423718 A    
Zn6   O11   1.926531 S    
Zn9   O21   1.931119 S    
Zn14  O50   1.952131 S    
C195  O67   1.221318 D    
H13   C35   1.105998 S    
O35   C14   1.283388 A    
C131  C187  1.486993 S    
Zn12  O40   1.955754 S    
O39   C19   1.267789 A    
Zn9   O1    1.945618 S    
C28   Br4   1.983569 S    
C154  C158  1.413616 A    
C125  H53   1.083085 S    
O52   C20   1.264076 A    
C136  C140  1.405813 A    
C41   C49   1.393391 A    
O44   C21   1.284966 A    
O22   C3    1.283818 A    
C83   C115  1.417909 A    
C26   Br2   1.968876 S    
C204  O76   1.221205 D    
C103  C107  1.404536 A    
C55   H31   1.082568 S    
C70   H46   1.080765 S    
Zn13  O32   1.936008 S    
O49   C17   1.268914 A    
Zn14  O31   1.931368 S    
C143  C151  1.417121 A    
O51   C19   1.271633 A    
C126  C134  1.401924 A    
H16   C35   1.112213 S    
C182  H62   1.083838 S    
C122  H50   1.080751 S    
C47   H23   1.081871 S    
Zn4   O5    1.929168 S    
O20   C16   1.287294 A    
C17   C166  1.449682 S    
C194  H74   1.083920 S    
O10   C6    1.277206 A    
O23   C2    1.276211 A    
Zn11  O25   1.931119 S    
C181  H61   1.082751 S    
Zn10  O38   1.955754 S    
C144  C152  1.415605 A    
C48   C88   1.416551 A    
C5    C95   1.487207 S    
C36   C40   1.554173 S    
C6    C96   1.451061 S    
C72   C80   1.419567 A    
C43   C83   1.416486 A    
C188  H68   1.083014 S    
C44   C84   1.419006 A    
C23   C39   1.498680 S    
O17   C13   1.286035 A    
C71   H47   1.080147 S    
O45   C23   1.280722 A    
C42   H18   1.081630 S    
