data_mof_unit_26735.cif
_audit_creation_date              2012-12-10T20:27:17-0500
_audit_creation_method            fapswitch 2.2
_symmetry_space_group_name_H-M    P1
_symmetry_Int_Tables_number       1
_space_group_crystal_system       triclinic
_cell_length_a                    10.71899
_cell_length_b                    10.658424
_cell_length_c                    9.884518
_cell_angle_alpha                 89.701809
_cell_angle_beta                  104.373555
_cell_angle_gamma                 90.31594
_cell_volume                      1093.90770165

loop_
_atom_site_label
_atom_site_type_symbol
_atom_type_description
_atom_site_fract_x
_atom_site_fract_y
_atom_site_fract_z
_atom_type_partial_charge
C1    C     C_R   0.500180 0.260277 0.500308 0.878209
C2    C     C_R   0.503482 0.128291 0.499110 -0.104132
C3    C     C_R   0.426607 0.064818 0.384481 -0.169893
C4    C     C_R   0.428185 0.935337 0.382826 -0.218621
C5    C     C_R   0.505337 0.871283 0.496870 -0.093776
C6    C     C_R   0.594455 0.935481 0.599584 0.115099
C7    C     C_3   0.624953 0.925577 0.754942 -0.476574
C8    C     C_3   0.624042 0.067974 0.756616 -0.492238
C9    C     C_R   0.403060 0.443145 0.044702 0.081650
C10   C     C_R   0.590242 0.565250 0.095869 -0.119416
C11   C     C_R   0.590908 0.564379 0.952143 -0.127723
C12   C     C_R   0.257720 0.503161 0.441144 0.784138
C13   C     C_R   0.399787 0.447675 0.901726 0.140952
C14   C     C_3   0.349875 0.316948 0.875694 -0.561083
C15   C     C_3   0.362070 0.307231 0.032418 0.348703
C16   C     C_R   0.500522 0.739580 0.499552 0.876956
C17   C     C_R   0.741498 0.505259 0.558694 0.937096
C18   C     C_2   0.118130 0.522066 0.407736 0.364169
C19   C     C_2   0.068689 0.560779 0.512182 -0.267614
C20   C     C_2   0.879125 0.524308 0.592854 -0.409848
C21   C     C_2   0.931594 0.567651 0.492949 -0.095707
C22   C     C_R   0.593885 0.063708 0.600676 0.115741
H1    H     H_    0.872763 0.593388 0.390310 0.212981
H2    H     H_    0.720263 0.109903 0.802917 0.195444
H3    H     H_    0.664524 0.616002 0.169656 0.151370
H4    H     H_    0.665926 0.614068 0.917903 0.148675
H5    H     H_    0.248196 0.315928 0.813088 0.161063
H6    H     H_    0.266878 0.293146 0.055535 0.064136
H7    H     H_    0.127811 0.573266 0.617945 0.157759
H8    H     H_    0.937433 0.498947 0.695819 0.153102
H9    H     H_    0.360631 0.114741 0.301062 0.186852
H10   H     H_    0.363976 0.885604 0.297749 0.166333
H11   H     H_    0.545556 0.882533 0.793687 0.222040
H12   H     H_    0.721919 0.885083 0.799303 0.197422
H13   H     H_    0.544193 0.105761 0.796558 0.213326
N1    N     N_R   0.499160 0.499140 0.142600 -0.108140
N2    N     N_R   0.499160 0.499180 0.856960 -0.094787
O1    O     O_R   0.500020 0.316790 0.614700 -0.621612
O2    O     O_R   0.500000 0.316760 0.385350 -0.587525
O3    O     O_R   0.317820 0.500020 0.571850 -0.629757
O4    O     O_R   0.317800 0.499980 0.342510 -0.602791
O5    O     O_R   0.500000 0.683240 0.614650 -0.616515
O6    O     O_R   0.499980 0.683210 0.385300 -0.617132
O7    O     O_R   0.682200 0.500020 0.657490 -0.615508
O8    O     O_R   0.682180 0.499980 0.428150 -0.621441
Zn1   Zn    Zn3+2 0.500010 0.500020 0.653140 0.932024
Zn2   Zn    Zn3+2 0.499990 0.499980 0.346860 0.951518
H14   H     H_    0.413452 0.254654 0.834460 0.222027
O9    O     O_3   0.451372 0.214746 0.102571 -0.588538
C23   C     C_3   0.581766 0.235624 0.101400 -0.213466
H15   H     H_    0.630255 0.294831 0.191142 0.197473
H16   H     H_    0.595422 0.276777 0.002891 0.137746
H17   H     H_    0.631682 0.143841 0.115176 0.166307
O10   O     O_3   0.038256 0.511004 0.273455 -0.609981
C24   C     C_3   0.065380 0.401658 0.206505 -0.306744
H18   H     H_    0.097099 0.321486 0.279679 0.132730
H19   H     H_    0.137680 0.423280 0.146765 0.179566
H20   H     H_    0.976049 0.371573 0.130045 0.177955

loop_
_geom_bond_atom_site_label_1
_geom_bond_atom_site_label_2
_ccdc_geom_bond_type
C2    C22   A    
C9    N1    A    
C8    C22   S    
C24   H18   S    
C11   N2    A    
C12   O3    A    
C6    C7    S    
C14   H5    S    
C4    H10   S    
C23   H16   S    
C13   N2    A    
C24   H19   S    
C2    C3    A    
O4    Zn2   S    
C17   O7    A    
C7    C8    S    
C20   H8    S    
C13   C14   S    
C15   O9    S    
C3    H9    S    
C7    H11   S    
C16   O6    A    
C15   H6    S    
C12   O4    A    
C1    O1    A    
O3    Zn1   S    
C10   H3    S    
C19   C21   S    
O7    Zn1   S    
C23   H15   S    
O8    Zn2   S    
C21   H1    S    
C9    C15   S    
C5    C6    A    
C7    H12   S    
O1    Zn1   S    
C23   H17   S    
C10   C11   A    
C1    O2    A    
C3    C4    A    
C6    C22   A    
C16   O5    A    
C17   C20   S    
C9    C13   A    
C20   C21   D    
N1    Zn2   S    
O2    Zn2   S    
C1    C2    S    
O5    Zn1   S    
C24   H20   S    
C12   C18   S    
O9    C23   S    
C18   O10   S    
O10   C24   S    
C18   C19   D    
C5    C16   S    
C14   H14   S    
C11   H4    S    
C8    H2    S    
N2    Zn1   S    
C14   C15   S    
O6    Zn2   S    
C17   O8    A    
C4    C5    A    
C10   N1    A    
C8    H13   S    
C19   H7    S    
