data_mof_unit_21542.cif
_audit_creation_date              2012-12-10T18:58:44-0500
_audit_creation_method            fapswitch 2.2
_symmetry_space_group_name_H-M    P1
_symmetry_Int_Tables_number       1
_space_group_crystal_system       triclinic
_cell_length_a                    12.982789
_cell_length_b                    10.863724
_cell_length_c                    9.549956
_cell_angle_alpha                 90.110484
_cell_angle_beta                  95.630271
_cell_angle_gamma                 90.259696
_cell_volume                      1340.42389923

loop_
_atom_site_label
_atom_site_type_symbol
_atom_type_description
_atom_site_fract_x
_atom_site_fract_y
_atom_site_fract_z
_atom_type_partial_charge
C1    C     C_R   0.499314 0.262750 0.499632 0.814445
C2    C     C_R   0.024469 0.543891 0.547686 0.028519
C3    C     C_R   0.975436 0.454423 0.454203 0.029297
C4    C     C_R   0.868572 0.432815 0.453198 0.377250
C5    C     C_R   0.859735 0.590503 0.633122 -0.282911
C6    C     C_R   0.965450 0.609676 0.637858 -0.113116
C7    C     C_R   0.498566 0.062613 0.620661 0.051039
C8    C     C_R   0.496717 0.130189 0.497513 -0.070541
C9    C     C_R   0.492333 0.064280 0.369503 -0.169086
C10   C     C_R   0.492390 0.935133 0.369837 -0.183560
C11   C     C_R   0.496798 0.869988 0.498186 -0.101639
C12   C     C_R   0.300934 0.501079 0.474384 0.860697
C13   C     C_R   0.498435 0.938580 0.621229 0.109857
C14   C     C_3   0.509199 0.931694 0.778017 0.220144
C15   C     C_3   0.508595 0.073502 0.776826 -0.483454
C16   C     C_R   0.550645 0.590578 0.080184 0.162896
C17   C     C_R   0.442179 0.417671 0.066558 -0.016730
C18   C     C_R   0.442193 0.417647 0.917690 -0.015031
C19   C     C_R   0.550063 0.590938 0.932826 0.240458
C20   C     C_3   0.662199 0.622316 0.939435 -0.544287
C21   C     C_3   0.663710 0.620919 0.098263 0.433799
C22   C     C_R   0.499476 0.737320 0.499926 0.820786
C23   C     C_R   0.699002 0.498603 0.525705 0.857770
C24   C     C_R   0.811033 0.504688 0.539616 -0.108545
C25   C     C_R   0.188795 0.494675 0.461053 -0.112045
C26   C     C_R   0.034217 0.389700 0.362858 -0.106508
C27   C     C_R   0.139786 0.410052 0.366232 -0.264991
C28   C     C_R   0.131513 0.564604 0.549805 0.318288
Cu1   Cu    Cu3+1 0.499990 0.499980 0.640670 1.009543
Cu2   Cu    Cu3+1 0.500010 0.500020 0.359330 1.024924
H1    H     H_    0.584065 0.891931 0.821714 0.086838
H2    H     H_    0.439077 0.115714 0.816159 0.224910
H3    H     H_    0.583809 0.115171 0.818428 0.187873
H4    H     H_    0.396935 0.349508 0.116187 0.125082
H5    H     H_    0.396902 0.349536 0.855731 0.130917
H6    H     H_    0.709154 0.547703 0.898092 0.251304
H7    H     H_    0.676207 0.715098 0.896661 0.140375
H8    H     H_    0.681224 0.711584 0.149461 0.070993
H9    H     H_    0.815196 0.645798 0.699803 0.165773
H10   H     H_    0.999792 0.322311 0.288767 0.210353
H11   H     H_    0.999593 0.677710 0.711328 0.212295
H12   H     H_    0.184086 0.356260 0.297769 0.169012
H13   H     H_    0.489836 0.111716 0.269578 0.175831
H14   H     H_    0.490007 0.887104 0.270055 0.181641
N1    N     N_R   0.500660 0.500930 0.148010 -0.167181
N2    N     N_R   0.500660 0.500890 0.852110 -0.170368
O1    O     O_R   0.500000 0.319640 0.618810 -0.594577
O2    O     O_R   0.500010 0.319680 0.381230 -0.581635
O3    O     O_R   0.348990 0.499960 0.599490 -0.537483
O4    O     O_R   0.349000 0.500000 0.361910 -0.594015
O5    O     O_R   0.499990 0.680320 0.618770 -0.546305
O6    O     O_R   0.500000 0.680360 0.381190 -0.606745
O7    O     O_R   0.651000 0.500000 0.638090 -0.609945
O8    O     O_R   0.651010 0.500040 0.400510 -0.485730
Cl1   Cl    Cl    0.806948 0.311980 0.350662 -0.562313
F1    F     F_    0.723418 0.525179 0.155762 -0.588634
Cl2   Cl    Cl    0.193936 0.680755 0.658780 -0.541829
Cl3   Cl    Cl    0.397540 0.866545 0.844777 -0.533704

loop_
_geom_bond_atom_site_label_1
_geom_bond_atom_site_label_2
_ccdc_geom_bond_type
C16   N1    A    
C8    C9    A    
C21   F1    S    
C12   O4    A    
C23   C24   S    
C1    O2    A    
C23   O7    A    
C16   C21   S    
C25   C27   A    
C1    C8    S    
C11   C13   A    
C9    C10   A    
C14   H1    S    
C11   C22   S    
C19   C20   S    
C12   C25   S    
C7    C15   S    
C12   O3    A    
Cu2   O4    S    
C19   N2    A    
C7    C8    A    
Cu1   O3    S    
C28   Cl2   S    
C25   C28   A    
C20   H7    S    
Cu2   O8    S    
C27   H12   S    
C26   H10   S    
C26   C27   A    
Cu1   Cu2   S    
C5    C24   A    
Cu1   O7    S    
Cu1   O1    S    
C16   C19   A    
C4    C24   A    
C18   N2    A    
Cu2   O2    S    
C17   N1    A    
C17   C18   A    
C2    C3    A    
C10   C11   A    
C5    H9    S    
C4    Cl1   S    
Cu1   O5    S    
C5    C6    A    
C14   Cl3   S    
C9    H13   S    
C17   H4    S    
C10   H14   S    
C3    C4    A    
C20   H6    S    
C7    C13   A    
C20   C21   S    
C23   O8    A    
C22   O6    A    
Cu1   N2    S    
C18   H5    S    
Cu2   O6    S    
C14   C15   S    
C1    O1    A    
C2    C28   A    
Cu2   N1    S    
C13   C14   S    
C15   H3    S    
C3    C26   A    
C21   H8    S    
C2    C6    A    
C22   O5    A    
C6    H11   S    
C15   H2    S    
