data_mof_unit_54425.cif
_audit_creation_date              2012-12-10T16:48:48-0500
_audit_creation_method            fapswitch 2.2
_symmetry_space_group_name_H-M    P1
_symmetry_Int_Tables_number       1
_space_group_crystal_system       triclinic
_cell_length_a                    17.357472
_cell_length_b                    8.853718
_cell_length_c                    7.579809
_cell_angle_alpha                 101.374638
_cell_angle_beta                  91.105168
_cell_angle_gamma                 96.293731
_cell_volume                      1134.08838125

loop_
_atom_site_label
_atom_site_type_symbol
_atom_type_description
_atom_site_fract_x
_atom_site_fract_y
_atom_site_fract_z
_atom_type_partial_charge
C1    C     C_R   0.499074 0.202455 0.457573 0.878767
C2    C     C_R   0.498904 0.797610 0.543666 0.845824
C3    C     C_2   0.516222 0.045384 0.446382 -0.033305
C4    C     C_2   0.482484 0.957012 0.559057 -0.095604
C5    C     C_R   0.351803 0.503337 0.523835 0.765478
C6    C     C_R   0.648459 0.501531 0.476253 0.815929
C7    C     C_R   0.268530 0.512546 0.533283 -0.020587
C8    C     C_R   0.732228 0.500779 0.462614 -0.035373
C9    C     C_R   0.221448 0.459634 0.376100 -0.179620
C10   C     C_R   0.779455 0.522631 0.619918 -0.191290
C11   C     C_R   0.143269 0.477260 0.376849 -0.150027
C12   C     C_R   0.858478 0.514509 0.608483 -0.155421
C13   C     C_R   0.110082 0.544478 0.536683 0.191600
C14   C     C_R   0.891450 0.485549 0.439452 0.193353
C15   C     C_R   0.157171 0.599028 0.693536 -0.180669
C16   C     C_R   0.844569 0.462817 0.282145 -0.168251
C17   C     C_R   0.236144 0.583793 0.691733 -0.201574
C18   C     C_R   0.765304 0.471682 0.293425 -0.200561
C19   C     C_2   0.026882 0.560350 0.544216 -0.226206
C20   C     C_2   0.974283 0.472608 0.424315 -0.231573
Cu1   Cu    Cu3+1 0.508700 0.517250 0.683000 0.996019
Cu2   Cu    Cu3+1 0.491300 0.482750 0.317000 0.996994
H1    H     H_    0.245179 0.406373 0.250906 0.167018
H2    H     H_    0.755397 0.543717 0.752144 0.170176
H3    H     H_    0.729954 0.453232 0.170069 0.156928
H4    H     H_    0.271796 0.631551 0.812177 0.200221
H5    H     H_    0.991084 0.388703 0.311619 0.144382
H6    H     H_    0.008164 0.644096 0.655233 0.146927
H7    H     H_    0.132829 0.653682 0.817328 0.130674
H8    H     H_    0.869416 0.438900 0.150870 0.123532
H9    H     H_    0.893214 0.527067 0.731798 0.124211
H10   H     H_    0.110082 0.440363 0.250730 0.121988
N1    N     N_2   0.478180 0.456750 0.041980 -0.224042
N2    N     N_2   0.521820 0.543250 0.958020 -0.232493
O1    O     O_R   0.505650 0.286040 0.618880 -0.607356
O2    O     O_R   0.494350 0.713960 0.381120 -0.550657
O3    O     O_R   0.490960 0.256910 0.309800 -0.589993
O4    O     O_R   0.509040 0.743090 0.690200 -0.567858
O5    O     O_R   0.394600 0.516230 0.672450 -0.596026
O6    O     O_R   0.605400 0.483770 0.327550 -0.563997
O7    O     O_R   0.379910 0.487100 0.363380 -0.591704
O8    O     O_R   0.620090 0.512900 0.636620 -0.569432
C21   C     C_3   0.583886 0.996094 0.334202 -0.396073
C22   C     C_3   0.645829 0.124630 0.306948 -0.834881
H11   H     H_    0.623548 0.195865 0.216890 0.275561
H12   H     H_    0.666746 0.196452 0.439472 0.240840
H13   H     H_    0.695925 0.072068 0.241378 0.247139
H14   H     H_    0.615908 0.925046 0.408431 0.233221
H15   H     H_    0.560098 0.932403 0.200189 0.255734
C23   C     C_3   0.418584 0.005098 0.685739 -0.378368
C24   C     C_3   0.343735 0.019218 0.583426 -0.777451
H16   H     H_    0.350609 0.119890 0.515917 0.237694
H17   H     H_    0.326565 0.911561 0.481228 0.249014
H18   H     H_    0.296301 0.035768 0.679067 0.254015
H19   H     H_    0.403918 0.916896 0.769598 0.215115
H20   H     H_    0.438937 0.112957 0.782950 0.268572
C25   C     C_2   0.398485 0.445677 0.994020 1.121188
O9    O     O_2   0.365281 0.562433 0.024179 -0.636688
O10   O     O_R   0.356246 0.301045 0.931731 -0.815905
H21   H     H_    0.299287 0.308631 0.907494 0.301156
C26   C     C_2   0.590156 0.648718 0.021909 1.017537
O11   O     O_2   0.625187 0.713162 0.914362 -0.601837
O12   O     O_R   0.615932 0.694223 0.198337 -0.775495
H22   H     H_    0.670885 0.749302 0.212092 0.293508

loop_
_geom_bond_atom_site_label_1
_geom_bond_atom_site_label_2
_ccdc_geom_bond_type
C2    C4    S    
C21   C22   S    
Cu1   O1    S    
C20   H5    S    
C14   C20   S    
C8    C18   A    
C11   C13   A    
C21   H14   S    
C2    O4    A    
C19   C20   D    
Cu1   O5    S    
C22   H13   S    
C1    O3    A    
C24   H18   S    
Cu2   O6    S    
C5    O5    A    
C23   C24   S    
C3    C4    D    
C21   H15   S    
O10   H21   S    
C16   C18   A    
Cu1   Cu2   S    
C19   H6    S    
C9    C11   A    
C3    C21   S    
C25   O9    D    
Cu1   O8    S    
C18   H3    S    
C10   C12   A    
Cu2   O2    S    
N1    C25   S    
C17   H4    S    
C8    C10   A    
C12   C14   A    
C11   H10   S    
C15   H7    S    
C6    O6    A    
C13   C15   A    
C12   H9    S    
C26   O11   D    
C14   C16   A    
C25   O10   S    
Cu2   O7    S    
C13   C19   S    
C24   H17   S    
C16   H8    S    
C24   H16   S    
C7    C9    A    
N1    N2    D    
C22   H11   S    
C1    O1    A    
C15   C17   A    
C6    O8    A    
C2    O2    A    
C5    C7    S    
Cu2   N1    S    
C5    O7    A    
C9    H1    S    
C6    C8    S    
Cu1   N2    S    
C22   H12   S    
C10   H2    S    
Cu2   O3    S    
C26   O12   S    
C23   H20   S    
Cu1   O4    S    
C23   H19   S    
C4    C23   S    
O12   H22   S    
C1    C3    S    
N2    C26   S    
C7    C17   A    
