data_mof_unit_28811.cif
_audit_creation_date              2013-03-05T16:06:41-0500
_audit_creation_method            fapswitch 2.2
_symmetry_space_group_name_H-M    P1
_symmetry_Int_Tables_number       1
_space_group_crystal_system       triclinic
_cell_length_a                    10.853415
_cell_length_b                    9.648177
_cell_length_c                    15.331307
_cell_angle_alpha                 89.113414
_cell_angle_beta                  94.637426
_cell_angle_gamma                 89.492663
_cell_volume                      1599.89852014

loop_
_atom_site_label
_atom_site_type_symbol
_atom_site_description
_atom_site_fract_x
_atom_site_fract_y
_atom_site_fract_z
_atom_type_partial_charge
O1    O     O_R   0.319640 0.618740 0.499990 -0.571099
O2    O     O_R   0.680360 0.381260 0.500010 -0.544209
O3    O     O_R   0.680360 0.618740 0.500010 -0.577950
O4    O     O_R   0.319640 0.381260 0.499990 -0.542738
N1    N     N_R   0.500000 0.852070 0.500000 -0.227055
N2    N     N_R   0.500000 0.147930 0.500000 -0.260088
C1    C     C_R   0.263018 0.500585 0.508022 0.861272
C2    C     C_R   0.736619 0.500136 0.491618 0.834089
O5    O     O_R   0.499990 0.618780 0.371460 -0.523373
O6    O     O_R   0.500010 0.381220 0.628540 -0.557822
O7    O     O_R   0.500010 0.618780 0.628540 -0.525117
O8    O     O_R   0.499990 0.381220 0.371460 -0.547108
C3    C     C_R   0.507873 0.500984 0.330393 0.785189
C4    C     C_R   0.492417 0.499348 0.669820 0.831156
Cu1   Cu    Cu3+1 0.500000 0.640660 0.500000 1.035938
Cu2   Cu    Cu3+1 0.500000 0.359340 0.500000 1.032877
C5    C     C_R   0.423177 0.076701 0.441052 0.014112
C6    C     C_R   0.584941 0.924984 0.553836 -0.009376
C7    C     C_R   0.575052 0.072237 0.559903 -0.023346
C8    C     C_R   0.413737 0.929230 0.447161 0.037024
C9    C     C_R   0.062599 0.376829 0.517300 0.121027
C10   C     C_R   0.935550 0.628112 0.479783 0.119791
C11   C     C_R   0.938515 0.376479 0.484608 0.107015
C12   C     C_R   0.060553 0.629266 0.511469 0.111293
C13   C     C_R   0.464892 0.609349 0.089797 -0.196959
C14   C     C_R   0.477658 0.376751 0.908038 -0.192048
C15   C     C_R   0.527662 0.618527 0.905735 -0.198225
C16   C     C_R   0.574376 0.391793 0.099187 -0.168962
H1    H     H_    0.421180 0.693370 0.050511 0.161792
H2    H     H_    0.457815 0.285375 0.946231 0.185144
H3    H     H_    0.551096 0.712661 0.940832 0.164121
H4    H     H_    0.619154 0.308368 0.066661 0.166276
C17   C     C_R   0.472548 0.617915 0.180447 -0.022920
C18   C     C_R   0.460200 0.375656 0.816424 -0.040303
C19   C     C_R   0.507173 0.624129 0.814909 -0.027529
C20   C     C_R   0.578590 0.392539 0.190837 0.003716
C21   C     C_R   0.520472 0.503741 0.233774 -0.208957
C22   C     C_R   0.483448 0.499468 0.767165 -0.188508
C23   C     C_R   0.516237 0.498122 0.048723 0.065616
C24   C     C_R   0.511664 0.496440 0.952565 0.073603
C25   C     C_R   0.871092 0.501692 0.481912 -0.161014
C26   C     C_R   0.127787 0.502660 0.515873 -0.162322
C27   C     C_2   0.350917 0.150374 0.367544 0.985258
O9    O     O_2   0.258862 0.218203 0.380229 -0.589067
O10   O     O_R   0.379951 0.127730 0.281805 -0.733483
H5    H     H_    0.322830 0.180085 0.236890 0.327686
C28   C     C_2   0.695175 0.858249 0.603573 0.882227
O11   O     O_2   0.687672 0.751627 0.645833 -0.543229
O12   O     O_R   0.809245 0.924665 0.606327 -0.826175
H6    H     H_    0.874903 0.875770 0.646689 0.338809
C29   C     C_2   0.643079 0.140106 0.635410 0.941331
O13   O     O_2   0.728769 0.217854 0.625113 -0.578909
O14   O     O_R   0.617257 0.101915 0.719988 -0.728256
H7    H     H_    0.672161 0.150038 0.766635 0.344431
C30   C     C_2   0.302738 0.866242 0.399018 0.823909
O15   O     O_2   0.308522 0.756404 0.362123 -0.532844
O16   O     O_R   0.189434 0.937078 0.393186 -0.829714
H8    H     H_    0.124256 0.890230 0.353076 0.340408
C31   C     C_2   0.435813 0.754035 0.212612 0.941061
O17   O     O_2   0.509838 0.822675 0.257737 -0.567928
O18   O     O_R   0.320500 0.810299 0.182687 -0.744044
H9    H     H_    0.306890 0.907191 0.204647 0.358916
C32   C     C_2   0.404647 0.246559 0.779330 0.889878
O19   O     O_2   0.347396 0.247376 0.707836 -0.633719
O20   O     O_R   0.410326 0.124147 0.829811 -0.733206
H10   H     H_    0.358103 0.047721 0.801994 0.343343
C33   C     C_2   0.502692 0.765564 0.775616 0.933833
O21   O     O_2   0.582326 0.849016 0.798925 -0.530364
O22   O     O_R   0.403404 0.806627 0.716857 -0.780022
H11   H     H_    0.413342 0.903291 0.691803 0.334649
C34   C     C_2   0.658870 0.283351 0.235416 0.818204
O23   O     O_2   0.762956 0.265544 0.212050 -0.608234
O24   O     O_R   0.614511 0.192284 0.296601 -0.696401
H12   H     H_    0.673419 0.112307 0.312716 0.337523
C35   C     C_3   0.096741 0.273668 0.591037 -0.351758
C36   C     C_3   0.159394 0.141549 0.562658 -0.681366
H13   H     H_    0.152355 0.059333 0.613411 0.219077
H14   H     H_    0.115097 0.104682 0.499973 0.281782
H15   H     H_    0.258605 0.158115 0.556093 0.293041
H16   H     H_    0.154885 0.324999 0.643302 0.227350
H17   H     H_    0.012190 0.243420 0.622919 0.221188
C37   C     C_3   0.881415 0.753517 0.427911 -0.404909
C38   C     C_3   0.838783 0.716729 0.333663 -0.762714
H18   H     H_    0.916530 0.670178 0.300934 0.257877
H19   H     H_    0.761023 0.642710 0.331645 0.240339
H20   H     H_    0.806648 0.812142 0.296875 0.260197
H21   H     H_    0.804558 0.802451 0.459069 0.245305
H22   H     H_    0.952062 0.834571 0.423405 0.204279
C39   C     C_3   0.902744 0.268852 0.416721 -0.339193
C40   C     C_3   0.854373 0.134794 0.453671 -0.733336
H23   H     H_    0.907516 0.102081 0.515032 0.289708
H24   H     H_    0.756060 0.146683 0.465136 0.284460
H25   H     H_    0.860862 0.052357 0.404745 0.216185
H26   H     H_    0.831935 0.312995 0.368044 0.213573
H27   H     H_    0.984083 0.243858 0.379819 0.243284
C41   C     C_3   0.107811 0.754398 0.563328 -0.399936
C42   C     C_3   0.128177 0.717828 0.660773 -0.776874
H28   H     H_    0.042200 0.675106 0.684842 0.249475
H29   H     H_    0.203999 0.640139 0.672859 0.261710
H30   H     H_    0.153195 0.812504 0.698190 0.262976
H31   H     H_    0.193448 0.797086 0.540643 0.249159
H32   H     H_    0.040178 0.841289 0.557373 0.209223

loop_
_geom_bond_atom_site_label_1
_geom_bond_atom_site_label_2
_geom_bond_distance
_ccdc_geom_bond_type
C30   O15   1.212455 D    
C32   O20   1.400139 S    
C39   H27   1.113018 S    
C41   H32   1.107200 S    
C12   C26   1.415222 A    
O24   H12   1.012450 S    
C36   H15   1.102361 S    
C27   O9    1.219881 D    
C6    C28   1.500365 S    
C42   H28   1.111136 S    
C40   H23   1.103245 S    
C28   O12   1.396992 S    
N1    C8    1.390454 A    
O14   H7    1.014088 S    
N2    C7    1.374065 A    
C10   C37   1.524358 S    
C20   C21   1.435037 A    
C36   H14   1.104614 S    
C12   C41   1.525613 S    
O7    C4    1.312501 A    
C10   C25   1.412723 A    
Cu1   Cu2   2.714225 S    
C5    C8    1.429588 A    
C6    C7    1.428855 A    
C1    C26   1.482303 S    
C39   H26   1.104805 S    
O5    C3    1.313215 A    
O7    Cu1   1.978701 S    
C14   C18   1.402237 A    
C38   H18   1.110976 S    
C11   C39   1.512447 S    
O1    Cu1   1.970762 S    
O2    Cu2   1.970761 S    
C35   H16   1.105274 S    
C3    C21   1.498415 S    
C20   C34   1.483667 S    
C31   O17   1.223274 D    
C17   C31   1.472919 S    
C18   C22   1.438465 A    
C41   H31   1.099585 S    
O22   H11   1.013097 S    
C8    C30   1.499512 S    
C42   H29   1.110638 S    
C13   H1    1.084835 S    
C31   O18   1.399617 S    
C15   H3    1.084517 S    
C33   O21   1.222402 D    
O8    Cu2   1.978701 S    
C16   H4    1.085080 S    
C19   C22   1.432119 A    
C2    C25   1.479163 S    
O3    C2    1.305268 A    
O6    C4    1.317334 A    
C23   C24   1.471396 S    
C34   O24   1.392383 S    
C35   H17   1.113127 S    
N1    C6    1.390120 A    
C16   C23   1.390763 A    
C15   C19   1.392396 A    
O10   H5    1.014070 S    
C17   C21   1.430264 A    
C29   O13   1.218601 D    
C33   O22   1.397913 S    
O4    Cu2   1.967038 S    
C35   C36   1.525205 S    
C5    C27   1.487558 S    
C4    C22   1.503457 S    
C40   H24   1.100633 S    
C28   O11   1.214106 D    
C19   C33   1.481904 S    
C15   C24   1.389499 A    
C41   C42   1.527798 S    
C36   H13   1.110002 S    
C27   O10   1.396259 S    
C38   H19   1.109220 S    
C37   C38   1.529248 S    
C30   O16   1.397419 S    
C10   C12   1.403789 A    
C42   H30   1.110230 S    
O3    Cu1   1.967037 S    
C40   H25   1.107361 S    
N2    C5    1.375418 A    
O4    C1    1.312380 A    
C9    C26   1.411320 A    
O1    C1    1.308693 A    
O2    C2    1.313543 A    
C14   H2    1.083636 S    
C9    C35   1.515544 S    
C11   C25   1.405193 A    
C9    C11   1.398534 A    
O5    Cu1   1.985197 S    
C34   O23   1.223895 D    
O6    Cu2   1.985197 S    
C13   C23   1.387735 A    
C14   C24   1.388148 A    
O16   H8    1.013302 S    
C37   H22   1.105335 S    
C18   C32   1.489339 S    
O20   H10   1.012369 S    
O18   H9    1.012129 S    
N1    Cu1   2.039721 S    
N2    Cu2   2.039722 S    
C32   O19   1.215350 D    
C7    C29   1.485863 S    
C38   H20   1.110678 S    
O8    C3    1.314102 A    
C16   C20   1.402289 A    
O12   H6    1.013406 S    
C29   O14   1.393396 S    
C39   C40   1.518845 S    
C37   H21   1.100606 S    
C13   C17   1.389326 A    
