data_mof_unit_12816.cif
_audit_creation_date              2013-03-05T16:36:13-0500
_audit_creation_method            fapswitch 2.2
_symmetry_space_group_name_H-M    P1
_symmetry_Int_Tables_number       1
_space_group_crystal_system       triclinic
_cell_length_a                    27.825825
_cell_length_b                    9.304464
_cell_length_c                    7.764909
_cell_angle_alpha                 89.934917
_cell_angle_beta                  90.003176
_cell_angle_gamma                 89.815388
_cell_volume                      2010.35726847

loop_
_atom_site_label
_atom_site_type_symbol
_atom_site_description
_atom_site_fract_x
_atom_site_fract_y
_atom_site_fract_z
_atom_type_partial_charge
O1    O     O_R   0.500000 0.288390 0.642760 -0.584723
O2    O     O_R   0.500000 0.711610 0.357240 -0.575040
O3    O     O_R   0.500000 0.711610 0.642760 -0.582729
O4    O     O_R   0.500000 0.288390 0.357240 -0.571788
C1    C     C_R   0.499997 0.219617 0.500062 0.830928
C2    C     C_R   0.499977 0.780382 0.499944 0.820473
O5    O     O_R   0.430260 0.500000 0.642770 -0.581913
O6    O     O_R   0.569740 0.500000 0.357230 -0.520541
O7    O     O_R   0.569740 0.500000 0.642770 -0.579345
O8    O     O_R   0.430260 0.500000 0.357230 -0.531437
C3    C     C_R   0.407248 0.503922 0.500101 0.840645
C4    C     C_R   0.592950 0.495598 0.500157 0.833743
Cu1   Cu    Cu3+1 0.500000 0.500000 0.669080 1.052572
Cu2   Cu    Cu3+1 0.500000 0.500000 0.330920 1.088815
C5    C     C_R   0.179072 0.387185 0.571961 0.629046
C6    C     C_R   0.822738 0.624088 0.496171 0.629682
C7    C     C_R   0.176786 0.638233 0.514526 0.576549
C8    C     C_R   0.823784 0.374260 0.564041 0.574503
O9    O     O_2   0.205095 0.266109 0.595593 -0.440185
O10   O     O_2   0.796882 0.744077 0.464081 -0.434167
O11   O     O_2   0.200102 0.758351 0.465101 -0.475338
O12   O     O_2   0.799892 0.248398 0.571485 -0.470361
N1    N     N_R   0.201951 0.512819 0.533384 -0.466089
N2    N     N_R   0.799236 0.497223 0.523430 -0.465353
C9    C     C_R   0.280346 0.594252 0.637900 -0.085791
C10   C     C_R   0.721103 0.447366 0.657295 -0.098376
C11   C     C_R   0.276798 0.436282 0.391072 -0.193191
C12   C     C_R   0.723490 0.534650 0.364285 -0.193507
C13   C     C_R   0.330295 0.598232 0.627662 0.321318
C14   C     C_R   0.671217 0.438127 0.650340 0.314819
C15   C     C_R   0.327266 0.434357 0.381063 0.363983
C16   C     C_R   0.672969 0.534499 0.356769 0.367069
C17   C     C_R   0.253456 0.514476 0.520261 0.191198
C18   C     C_R   0.747535 0.493603 0.514808 0.198312
C19   C     C_R   0.102170 0.510695 0.560785 -0.186355
C20   C     C_R   0.899025 0.504399 0.551153 -0.178182
C21   C     C_R   0.128550 0.383592 0.582456 -0.079303
C22   C     C_R   0.873449 0.629664 0.502110 -0.077289
C23   C     C_R   0.126702 0.641080 0.543229 -0.120451
C24   C     C_R   0.873753 0.377800 0.592985 -0.130102
C25   C     C_R   0.103656 0.257399 0.617041 0.336684
C26   C     C_R   0.898892 0.756374 0.460720 0.323725
C27   C     C_R   0.100801 0.769265 0.568842 0.278168
C28   C     C_R   0.898895 0.259768 0.665737 0.290328
C29   C     C_R   0.354358 0.513833 0.501590 -0.190385
C30   C     C_R   0.646238 0.487824 0.501665 -0.198815
H1    H     H_    0.255523 0.375550 0.299940 0.165839
H2    H     H_    0.744286 0.568514 0.253581 0.162187
H3    H     H_    0.262127 0.655946 0.736692 0.180830
H4    H     H_    0.739667 0.413833 0.773338 0.175212
C31   C     C_R   0.975385 0.378595 0.602421 0.013022
C32   C     C_R   0.025386 0.637928 0.555331 0.021546
C33   C     C_R   0.974954 0.635164 0.528898 0.038017
C34   C     C_R   0.026433 0.377693 0.584858 0.037510
C35   C     C_R   0.949775 0.506041 0.560659 -0.100389
C36   C     C_R   0.051186 0.508600 0.566589 -0.108037
C37   C     C_R   0.949583 0.260515 0.671683 0.447413
C38   C     C_R   0.050444 0.765267 0.589338 0.450428
C39   C     C_R   0.949745 0.755277 0.461956 0.352206
C40   C     C_R   0.053932 0.250807 0.582696 0.344827
C41   C     C_1   0.499982 0.064930 0.500089 -0.135724
C42   C     C_1   0.499973 0.935067 0.499934 -0.136480
N3    N     N_1   0.500000 0.500000 0.076820 -0.017711
N4    N     N_1   0.500000 0.500000 0.923180 -0.021363
O13   O     O_3   0.350717 0.352769 0.258259 -0.686568
H5    H     H_    0.326558 0.303960 0.185061 0.340477
O14   O     O_3   0.649297 0.581590 0.210622 -0.668477
H6    H     H_    0.673239 0.609830 0.122296 0.343300
O15   O     O_3   0.353900 0.687410 0.741411 -0.681369
H7    H     H_    0.384453 0.719039 0.688504 0.328920
O16   O     O_3   0.648471 0.377595 0.790270 -0.676974
H8    H     H_    0.621871 0.317245 0.746603 0.336554
O17   O     O_3   0.126870 0.148602 0.702609 -0.636311
H9    H     H_    0.102835 0.100838 0.777154 0.335635
O18   O     O_3   0.873781 0.879714 0.417651 -0.634318
H10   H     H_    0.893371 0.964578 0.448822 0.363880
O19   O     O_3   0.123978 0.897653 0.585635 -0.676308
H11   H     H_    0.151150 0.882282 0.666389 0.377199
O20   O     O_3   0.874959 0.146641 0.741882 -0.688987
H12   H     H_    0.848622 0.187608 0.812638 0.362076
O21   O     O_3   0.974362 0.156532 0.763924 -0.674211
H13   H     H_    0.952785 0.076917 0.797222 0.388678
O22   O     O_3   0.025793 0.874791 0.670022 -0.650016
H14   H     H_    0.048507 0.927699 0.744311 0.350158
O23   O     O_3   0.975535 0.864402 0.384099 -0.667633
H15   H     H_    0.955485 0.910500 0.294105 0.340170
O24   O     O_3   0.033759 0.127537 0.517557 -0.633697
H16   H     H_    0.059953 0.066742 0.470701 0.386684

loop_
_geom_bond_atom_site_label_1
_geom_bond_atom_site_label_2
_geom_bond_distance
_ccdc_geom_bond_type
O5    Cu1   1.951286 S    
O24   H16   0.990683 S    
O17   H9    0.990564 S    
O3    C2    1.279695 A    
C14   O16   1.378171 S    
C33   C39   1.415910 A    
C34   C40   1.404940 A    
O19   H11   0.992146 S    
C11   C17   1.398631 A    
C5    O9    1.349584 S    
C26   O18   1.382401 S    
C7    N1    1.366662 A    
O1    C1    1.280164 A    
C19   C21   1.399881 A    
C22   C26   1.413883 A    
C10   H4    1.083672 S    
C7    C23   1.411519 A    
C8    C24   1.408948 A    
C5    C21   1.408694 A    
O7    Cu1   1.951306 S    
C27   C38   1.410851 A    
C10   C18   1.396847 A    
N1    C17   1.436938 S    
C31   C37   1.419707 A    
C41   C42   1.208313 T    
O3    Cu1   1.979265 S    
C6    O10   1.349195 S    
C5    N1    1.365831 A    
C12   C18   1.398890 A    
C6    N2    1.367565 A    
Cu1   Cu2   2.625782 S    
C21   C25   1.391091 A    
O2    C2    1.280201 A    
C40   O24   1.375451 S    
O5    C3    1.279953 A    
C13   O15   1.380276 S    
C33   C35   1.414181 A    
C9    C13   1.392758 A    
C34   C36   1.408233 A    
C11   C15   1.406522 A    
O14   H6    0.991971 S    
C12   C16   1.406993 A    
C8    N2    1.367160 A    
C4    C30   1.484341 S    
O8    Cu2   1.951308 S    
C23   C27   1.405886 A    
O21   H13   0.989202 S    
O23   H15   0.990593 S    
N2    C18   1.440675 S    
N3    N4    1.193001 T    
C13   C29   1.421880 A    
C19   C23   1.400466 A    
O18   H10   0.991159 S    
C39   O23   1.383746 S    
O22   H14   0.988527 S    
C20   C24   1.411404 A    
C28   C37   1.411231 A    
O6    C4    1.284577 A    
C1    C41   1.439275 S    
C32   C38   1.402039 A    
C16   O14   1.382242 S    
C10   C14   1.392132 A    
C37   O21   1.385118 S    
C3    C29   1.474347 S    
O1    Cu1   1.979728 S    
C32   C33   1.418541 A    
C11   H1    1.083303 S    
C15   O13   1.381983 S    
C12   H2    1.083359 S    
O6    Cu2   1.951283 S    
C19   C36   1.419600 A    
C8    O12   1.349669 S    
C16   C30   1.417316 A    
C14   C30   1.423483 A    
C28   O20   1.379956 S    
C25   C40   1.410605 A    
O4    C1    1.279744 A    
C26   C39   1.415063 A    
C27   O19   1.365743 S    
C31   C34   1.426994 A    
C2    C42   1.439256 S    
C20   C22   1.415471 A    
O16   H8    0.990551 S    
C20   C35   1.414200 A    
C38   O22   1.377852 S    
Cu1   N4    1.973063 S    
Cu2   N3    1.973063 S    
C31   C35   1.418734 A    
O4    Cu2   1.979266 S    
O15   H7    0.989711 S    
O2    Cu2   1.979727 S    
O7    C4    1.282611 A    
C9    H3    1.083589 S    
O8    C3    1.281440 A    
C25   O17   1.370283 S    
O20   H12   0.991437 S    
C24   C28   1.417139 A    
O13   H5    0.991819 S    
C15   C29   1.412835 A    
C9    C17   1.396521 A    
C32   C36   1.401855 A    
C6    C22   1.412951 A    
C7    O11   1.349454 S    
