data_mof_unit_60701.cif
_audit_creation_date              2012-10-26T21:09:25-0400
_audit_creation_method            fapswitch 2.2
_symmetry_space_group_name_H-M    P1
_symmetry_Int_Tables_number       1
_space_group_crystal_system       triclinic
_cell_length_a                    15.998989
_cell_length_b                    14.770183
_cell_length_c                    11.729207
_cell_angle_alpha                 90.000044
_cell_angle_beta                  89.985315
_cell_angle_gamma                 90.0
_cell_volume                      2771.70530212

loop_
_atom_site_label
_atom_site_type_symbol
_atom_type_description
_atom_site_fract_x
_atom_site_fract_y
_atom_site_fract_z
_atom_type_partial_charge
C1    C     C_R   0.340829 0.500000 0.500020 0.549054
C2    C     C_R   0.444713 0.047889 0.430071 -0.109083
C3    C     C_R   0.444713 0.952111 0.430071 -0.109083
C4    C     C_R   0.555287 0.047889 0.569929 -0.109083
C5    C     C_1   0.500000 0.802713 0.500000 0.125357
C6    C     C_1   0.500000 0.197287 0.500000 0.125357
C7    C     C_1   0.500012 0.500000 0.162000 -0.016627
C8    C     C_1   0.499988 0.500000 0.838000 -0.016627
C9    C     C_1   0.500005 0.500000 0.059754 -0.035258
C10   C     C_1   0.499995 0.500000 0.940246 -0.035258
C11   C     C_R   0.956382 0.582174 0.499991 -0.104954
C12   C     C_R   0.659171 0.500000 0.499980 0.549054
C13   C     C_R   0.043618 0.417826 0.500009 -0.104954
C14   C     C_R   0.043618 0.582174 0.499997 -0.104954
C15   C     C_R   0.956381 0.417826 0.500003 -0.104954
C16   C     C_R   0.912791 0.500000 0.499994 0.038430
C17   C     C_R   0.087208 0.500000 0.500006 0.038430
C18   C     C_1   0.823339 0.500000 0.499987 -0.057363
C19   C     C_1   0.176661 0.500000 0.500013 -0.057363
C20   C     C_1   0.251705 0.500000 0.500018 -0.024552
C21   C     C_1   0.748295 0.500000 0.499982 -0.024552
C22   C     C_R   0.500000 0.902864 0.500000 0.003007
C23   C     C_R   0.500000 0.097136 0.500000 0.003007
C24   C     C_R   0.500016 0.500000 0.283426 0.547615
C25   C     C_R   0.499984 0.500000 0.716574 0.547615
C26   C     C_R   0.555287 0.952111 0.569929 -0.109083
Cu1   Cu    Cu3+1 0.500000 0.589220 0.500000 0.995331
Cu2   Cu    Cu3+1 0.500000 0.410780 0.500000 0.995331
H1    H     H_    0.598660 0.083552 0.624788 0.112024
H2    H     H_    0.401340 0.916448 0.375212 0.112024
H3    H     H_    0.401340 0.083552 0.375212 0.112024
H4    H     H_    0.598660 0.916448 0.624788 0.112024
H5    H     H_    0.077008 0.646000 0.499994 0.113579
H6    H     H_    0.922992 0.354000 0.500006 0.113579
H7    H     H_    0.922992 0.646000 0.499983 0.113579
H8    H     H_    0.077008 0.354000 0.500016 0.113579
N1    N     N_1   0.500000 0.276710 0.500000 -0.190887
N2    N     N_1   0.500000 0.723290 0.500000 -0.190887
O1    O     O_R   0.380310 0.575320 0.500020 -0.489705
O2    O     O_R   0.619690 0.424680 0.499980 -0.489705
O3    O     O_R   0.619690 0.575320 0.499980 -0.489705
O4    O     O_R   0.380310 0.424680 0.500020 -0.489705
O5    O     O_R   0.500010 0.575340 0.337190 -0.488915
O6    O     O_R   0.499990 0.424660 0.662810 -0.488915
O7    O     O_R   0.499990 0.575340 0.662810 -0.488915
O8    O     O_R   0.500010 0.424660 0.337190 -0.488915

loop_
_geom_bond_atom_site_label_1
_geom_bond_atom_site_label_2
_ccdc_geom_bond_type
C12   O2    A    
C3    H2    S    
C4    C26   A    
C26   H4    S    
C12   O3    A    
Cu1   O5    S    
C18   C21   T    
C11   C16   A    
Cu1   O3    S    
C15   H6    S    
C19   C20   T    
C13   C17   A    
C24   O8    A    
Cu1   O7    S    
C14   H5    S    
C11   H7    S    
C2    C3    A    
C6    N1    T    
C4    H1    S    
C5    N2    T    
C8    C25   S    
C14   C17   A    
Cu2   O8    S    
Cu2   N1    S    
C6    C23   S    
C25   O6    A    
Cu2   O4    S    
C17   C19   S    
C9    C10   S    
C13   C15   A    
C11   C14   A    
C1    O1    A    
Cu1   N2    S    
C7    C24   S    
C25   O7    A    
C1    O4    A    
Cu1   Cu2   S    
C13   H8    S    
C16   C18   S    
C22   C26   A    
C2    C23   A    
C7    C9    T    
C24   O5    A    
Cu2   O2    S    
C3    C22   A    
C4    C23   A    
C12   C21   S    
Cu2   O6    S    
C8    C10   T    
C5    C22   S    
C15   C16   A    
Cu1   O1    S    
C2    H3    S    
C1    C20   S    
