data_mof_unit_55642.cif
_audit_creation_date              2012-10-26T20:18:38-0400
_audit_creation_method            fapswitch 2.2
_symmetry_space_group_name_H-M    P1
_symmetry_Int_Tables_number       1
_space_group_crystal_system       triclinic
_cell_length_a                    10.756923
_cell_length_b                    11.01349
_cell_length_c                    9.837051
_cell_angle_alpha                 110.593167
_cell_angle_beta                  98.377986
_cell_angle_gamma                 92.364766
_cell_volume                      1073.89982256

loop_
_atom_site_label
_atom_site_type_symbol
_atom_type_description
_atom_site_fract_x
_atom_site_fract_y
_atom_site_fract_z
_atom_type_partial_charge
C1    C     C_R   0.485738 0.253850 0.441898 0.548228
C2    C     C_2   0.482864 0.498275 0.922508 -0.031428
C3    C     C_R   0.259970 0.500370 0.500536 0.536436
C4    C     C_R   0.508160 0.746269 0.559624 0.523192
C5    C     C_R   0.740186 0.500824 0.499765 0.562187
C6    C     C_3   0.075178 0.388486 0.546898 -0.207477
C7    C     C_3   0.930781 0.387928 0.548251 0.057959
C8    C     C_3   0.093047 0.632131 0.610200 -0.182975
C9    C     C_3   0.049347 0.479582 0.344183 -0.268821
C10   C     C_3   0.122142 0.500326 0.500593 -0.006451
C11   C     C_3   0.288277 0.175670 0.650145 -0.315772
C12   C     C_3   0.878605 0.501137 0.501483 0.087334
C13   C     C_3   0.528740 0.967939 0.849410 0.004564
C14   C     C_3   0.558227 0.098599 0.976719 -0.367999
C15   C     C_3   0.608574 0.737977 0.203805 -0.284421
C16   C     C_3   0.977907 0.425173 0.824413 -0.263735
C17   C     C_3   0.861835 0.787056 0.794955 0.013290
C18   C     C_3   0.958380 0.906746 0.851221 -0.414228
C19   C     C_3   0.948777 0.636720 0.605203 0.183591
C20   C     C_3   0.906987 0.478203 0.344175 -0.316831
C21   C     C_2   0.472723 0.114048 0.413651 -0.123913
C22   C     C_2   0.448790 0.066133 0.517188 0.148293
C23   C     C_2   0.507453 0.886848 0.593971 0.242191
C24   C     C_2   0.453635 0.927785 0.488113 -0.096627
C25   C     C_2   0.511376 0.513302 0.083136 0.234989
Cu1   Cu    Cu3+1 0.522160 0.521810 0.644910 0.911319
Cu2   Cu    Cu3+1 0.477840 0.478190 0.355090 0.924361
H1    H     H_    0.131812 0.397382 0.653670 0.121550
H2    H     H_    0.369395 0.383046 0.066764 0.160006
H3    H     H_    0.886316 0.295096 0.459585 0.082628
H4    H     H_    0.140994 0.646576 0.723728 0.151622
H5    H     H_    0.081096 0.559060 0.307910 0.133274
H6    H     H_    0.068972 0.385619 0.262858 0.135270
H7    H     H_    0.858482 0.383378 0.264017 0.125717
H8    H     H_    0.484526 0.215382 0.726721 0.286486
H9    H     H_    0.272705 0.241152 0.587466 0.149238
H10   H     H_    0.269787 0.225342 0.763787 0.105856
H11   H     H_    0.221841 0.085710 0.596437 0.140875
H12   H     H_    0.871655 0.556285 0.306363 0.116262
H13   H     H_    0.578283 0.895637 0.886438 0.147659
H14   H     H_    0.424563 0.941236 0.826977 0.132294
H15   H     H_    0.504579 0.173675 0.950494 0.157430
H16   H     H_    0.530880 0.089128 0.077320 0.105842
H17   H     H_    0.660908 0.130424 0.999214 0.149070
H18   H     H_    0.701647 0.569969 0.148511 0.215311
H19   H     H_    0.643270 0.794621 0.322269 0.151638
H20   H     H_    0.510172 0.758777 0.174008 0.139929
H21   H     H_    0.669970 0.772351 0.140470 0.081463
H22   H     H_    0.821714 0.314834 0.670870 0.250288
H23   H     H_    0.132044 0.713874 0.582131 0.066021
H24   H     H_    0.922353 0.444215 0.915219 0.136036
H25   H     H_    0.038703 0.515752 0.845392 0.187398
H26   H     H_    0.036983 0.345109 0.825786 0.098331
H27   H     H_    0.812723 0.787699 0.886954 0.145584
H28   H     H_    0.787583 0.792542 0.706264 0.147555
H29   H     H_    0.005744 0.913375 0.760726 0.129655
H30   H     H_    0.910055 0.996156 0.894638 0.114898
H31   H     H_    0.030643 0.900925 0.941071 0.148385
H32   H     H_    0.920310 0.709406 0.553653 0.068545
H33   H     H_    0.409977 0.859499 0.380028 0.068678
H34   H     H_    0.487400 0.047811 0.306712 0.044847
H35   H     H_    0.397835 0.439064 0.854750 0.117761
H36   H     H_    0.640722 0.602286 0.923562 0.217894
H37   H     H_    0.093290 0.293792 0.465756 0.074742
N1    N     N_2   0.444530 0.445420 0.137360 -0.326664
N2    N     N_2   0.555520 0.554510 0.862630 -0.362684
N3    N     N_2   0.417017 0.143562 0.655398 -0.462964
N4    N     N_2   0.616466 0.600356 0.176289 -0.428965
N5    N     N_2   0.892111 0.386947 0.685074 -0.457817
O1    O     O_R   0.511820 0.332340 0.577400 -0.492642
O2    O     O_3   0.921808 0.670691 0.750656 -0.548679
O3    O     O_R   0.474400 0.295500 0.332650 -0.501874
O4    O     O_R   0.336400 0.518400 0.622370 -0.514481
O5    O     O_R   0.298980 0.481560 0.377620 -0.502184
O6    O     O_R   0.525600 0.704500 0.667350 -0.515073
O7    O     O_R   0.488180 0.667660 0.422600 -0.487768
O8    O     O_R   0.701020 0.518440 0.622380 -0.441185
O9    O     O_R   0.663600 0.481600 0.377630 -0.492712
O10   O     O_3   0.574813 0.977204 0.725443 -0.567604

loop_
_geom_bond_atom_site_label_1
_geom_bond_atom_site_label_2
_ccdc_geom_bond_type
C13   O10   S    
C1    C21   S    
C19   O2    S    
C16   H24   S    
C15   H20   S    
Cu2   O9    S    
C13   H14   S    
Cu1   Cu2   S    
C11   H9    S    
C1    O3    A    
Cu1   O4    S    
C6    H37   S    
C11   H10   S    
C3    O5    A    
C16   H26   S    
C13   H13   S    
C9    C20   S    
C9    H5    S    
C18   H31   S    
C6    H1    S    
C4    O6    A    
C23   C24   D    
Cu2   O5    S    
C9    C10   S    
C17   H28   S    
C21   H34   S    
C18   H29   S    
C14   H15   S    
C20   H7    S    
H36   N2    S    
C7    H3    S    
H22   N5    S    
C21   C22   D    
C9    H6    S    
C25   N4    S    
C15   H21   S    
C11   N3    S    
C17   C18   S    
C7    C12   S    
Cu1   O8    S    
C8    C19   S    
C25   N1    D    
C5    C12   S    
C20   H12   S    
C19   H32   S    
Cu1   N2    S    
C11   H11   S    
C6    C10   S    
Cu2   N1    S    
C18   H30   S    
H8    N3    S    
C24   H33   S    
C12   C20   S    
H18   N4    S    
Cu1   O6    S    
H2    N1    S    
C17   O2    S    
Cu1   O1    S    
C22   C24   S    
C5    O8    A    
Cu2   O7    S    
C8    H23   S    
C14   H17   S    
C4    C23   S    
C8    H4    S    
C16   N5    S    
C16   H25   S    
C2    N2    D    
C7    N5    S    
C6    C7    S    
C1    O1    A    
C3    C10   S    
C15   N4    S    
C12   C19   S    
C2    C25   S    
C3    O4    A    
C22   N3    S    
C4    O7    A    
C8    C10   S    
C15   H19   S    
C23   O10   S    
C5    O9    A    
C13   C14   S    
C17   H27   S    
Cu2   O3    S    
C2    H35   S    
C14   H16   S    
