data_mof_unit_11148.cif
_audit_creation_date              2012-12-10T16:57:07-0500
_audit_creation_method            fapswitch 2.2
_symmetry_space_group_name_H-M    P1
_symmetry_Int_Tables_number       1
_space_group_crystal_system       triclinic
_cell_length_a                    7.811231
_cell_length_b                    8.611451
_cell_length_c                    16.751937
_cell_angle_alpha                 91.691103
_cell_angle_beta                  82.620582
_cell_angle_gamma                 92.801314
_cell_volume                      1115.86068607

loop_
_atom_site_label
_atom_site_type_symbol
_atom_type_description
_atom_site_fract_x
_atom_site_fract_y
_atom_site_fract_z
_atom_type_partial_charge
C1    C     C_R   0.544467 0.793976 0.499910 0.866860
C2    C     C_R   0.455389 0.206123 0.500752 0.868208
C3    C     C_2   0.562834 0.956914 0.511083 0.189713
C4    C     C_2   0.436100 0.043282 0.490660 0.197192
C5    C     C_R   0.482129 0.503892 0.654202 0.901532
C6    C     C_R   0.519367 0.503660 0.346059 0.886901
C7    C     C_R   0.494069 0.542364 0.739165 -0.201967
C8    C     C_R   0.520072 0.514232 0.258989 -0.155686
C9    C     C_R   0.656811 0.538143 0.768385 -0.104545
C10   C     C_R   0.380722 0.578777 0.226042 -0.113612
C11   C     C_R   0.684393 0.629337 0.836293 -0.148466
C12   C     C_R   0.377755 0.571136 0.142515 -0.175903
C13   C     C_R   0.542450 0.681321 0.887136 -0.218323
C14   C     C_R   0.520166 0.511393 0.092837 0.068031
C15   C     C_R   0.380500 0.684980 0.859733 0.487478
C16   C     C_R   0.658029 0.449077 0.124951 0.514242
C17   C     C_R   0.359008 0.619453 0.784496 -0.179379
C18   C     C_R   0.656540 0.450414 0.208300 -0.296419
C19   C     C_2   0.547176 0.666879 0.973569 0.280824
C20   C     C_2   0.529893 0.523173 0.006064 0.515218
H1    H     H_    0.761572 0.400237 0.233617 0.191119
H2    H     H_    0.237072 0.628304 0.761527 0.229817
N1    N     N_2   0.953500 0.457650 0.478520 0.188187
N2    N     N_2   0.046500 0.542350 0.521480 0.191045
O1    O     O_R   0.388470 0.738640 0.505270 -0.566365
O2    O     O_R   0.611530 0.261360 0.494730 -0.569354
O3    O     O_R   0.679650 0.711510 0.491500 -0.605150
O4    O     O_R   0.320350 0.288490 0.508500 -0.598731
O5    O     O_R   0.337210 0.515200 0.623500 -0.637573
O6    O     O_R   0.662790 0.484800 0.376500 -0.637039
O7    O     O_R   0.628380 0.488060 0.609730 -0.564126
O8    O     O_R   0.371620 0.511940 0.390270 -0.575079
Zn1   Zn    Zn3+2 0.305580 0.518120 0.509190 1.097088
Zn2   Zn    Zn3+2 0.694420 0.481880 0.490810 1.092923
C21   C     C_2   0.787229 0.423122 0.736304 1.018171
O9    O     O_2   0.738421 0.293628 0.714106 -0.579490
O10   O     O_R   0.964054 0.459709 0.733374 -0.795464
H3    H     H_    0.037535 0.370698 0.711032 0.354933
C22   C     C_2   0.238841 0.656086 0.277403 1.048329
O11   O     O_2   0.271430 0.771763 0.317735 -0.558365
O12   O     O_R   0.068472 0.597266 0.278766 -0.794792
H4    H     H_    0.983557 0.660088 0.315848 0.356781
O13   O     O_3   0.513810 0.384208 0.962992 -0.715280
H5    H     H_    0.480711 0.402348 0.909269 0.341506
O14   O     O_3   0.569522 0.797655 0.021827 -0.746233
H6    H     H_    0.582600 0.889808 0.987031 0.370187
O15   O     O_3   0.241247 0.748675 0.905658 -0.712220
H7    H     H_    0.281457 0.811533 0.950674 0.362803
O16   O     O_3   0.792899 0.389104 0.073617 -0.664455
H8    H     H_    0.877665 0.348037 0.105969 0.360779
C23   C     C_2   0.227606 0.627102 0.106376 0.966500
O17   O     O_2   0.162087 0.545838 0.056323 -0.549452
O18   O     O_R   0.163133 0.772896 0.128715 -0.757137
H9    H     H_    0.061546 0.797093 0.099823 0.375809
C24   C     C_2   0.857841 0.687641 0.850403 1.064817
O19   O     O_2   0.911413 0.664996 0.914219 -0.509335
O20   O     O_R   0.953078 0.780499 0.791884 -0.778442
H10   H     H_    0.056947 0.837121 0.811260 0.369301
O21   O     O_3   0.698036 0.021452 0.549501 -0.723200
H11   H     H_    0.768078 0.937859 0.565958 0.375273
O22   O     O_3   0.299172 0.978737 0.453495 -0.707829
H12   H     H_    0.229681 0.062107 0.436395 0.375170
O23   O     O_3   0.040693 0.358991 0.427113 -0.643467
H13   H     H_    0.951086 0.303847 0.398774 0.350322
O24   O     O_3   0.959439 0.641705 0.572532 -0.639117
H14   H     H_    0.049060 0.697058 0.600785 0.364938

loop_
_geom_bond_atom_site_label_1
_geom_bond_atom_site_label_2
_ccdc_geom_bond_type
C1    C3    S    
O15   H7    S    
C6    O8    A    
N1    N2    D    
C19   O14   S    
C7    C9    A    
O10   H3    S    
C14   C16   A    
C14   C20   S    
C18   H1    S    
C11   C13   A    
O12   H4    S    
C2    C4    S    
C17   H2    S    
C15   O15   S    
O13   H5    S    
N1    Zn2   S    
O8    Zn1   S    
C12   C23   S    
C19   C20   D    
N1    O23   S    
O7    Zn2   S    
O21   H11   S    
C2    O2    A    
C24   O20   S    
O14   H6    S    
C1    O1    A    
C9    C11   A    
O20   H10   S    
C10   C12   A    
N2    O24   S    
C8    C10   A    
C6    O6    A    
C12   C14   A    
O4    Zn1   S    
O24   H14   S    
C5    C7    S    
C13   C15   A    
O3    Zn2   S    
O22   H12   S    
C9    C21   S    
C24   O19   D    
C5    O7    A    
C2    O4    A    
C13   C19   S    
C23   O17   D    
C5    O5    A    
O5    Zn1   S    
C20   O13   S    
C11   C24   S    
C16   O16   S    
C22   O12   S    
C1    O3    A    
O16   H8    S    
C22   O11   D    
C15   C17   A    
O6    Zn2   S    
C10   C22   S    
C6    C8    S    
C21   O10   S    
O18   H9    S    
C3    O21   S    
C4    O22   S    
O2    Zn2   S    
C16   C18   A    
C8    C18   A    
C3    C4    D    
N2    Zn1   S    
O1    Zn1   S    
O23   H13   S    
C23   O18   S    
C21   O9    D    
C7    C17   A    
