data_mof_unit_52708.cif
_audit_creation_date              2012-12-10T16:56:31-0500
_audit_creation_method            fapswitch 2.2
_symmetry_space_group_name_H-M    P1
_symmetry_Int_Tables_number       1
_space_group_crystal_system       triclinic
_cell_length_a                    10.780469
_cell_length_b                    10.931005
_cell_length_c                    9.696749
_cell_angle_alpha                 90.684908
_cell_angle_beta                  89.769882
_cell_angle_gamma                 90.762136
_cell_volume                      1142.48686928

loop_
_atom_site_label
_atom_site_type_symbol
_atom_type_description
_atom_site_fract_x
_atom_site_fract_y
_atom_site_fract_z
_atom_type_partial_charge
C1    C     C_R   0.494698 0.265621 0.499119 0.842320
C2    C     C_3   0.879054 0.492230 0.497333 -0.005107
C3    C     C_3   0.933431 0.625362 0.512686 -0.134136
C4    C     C_3   0.931503 0.426528 0.362705 -0.144371
C5    C     C_2   0.505871 0.933018 0.391717 -0.181750
C6    C     C_2   0.530895 0.866512 0.504526 -0.161910
C7    C     C_2   0.513675 0.066749 0.388515 -0.117707
C8    C     C_2   0.479693 0.134288 0.497814 -0.232076
C9    C     C_2   0.442282 0.417444 0.921352 -0.083910
C10   C     C_2   0.437147 0.421088 0.077014 -0.079556
C11   C     C_R   0.260463 0.493634 0.500086 0.769740
C12   C     C_R   0.506289 0.734929 0.500991 0.798518
C13   C     C_R   0.740262 0.495205 0.499197 0.794084
C14   C     C_3   0.069348 0.419936 0.627818 -0.120763
C15   C     C_3   0.925777 0.414344 0.620373 -0.415427
C16   C     C_3   0.076857 0.622860 0.504247 -0.474805
C17   C     C_3   0.074779 0.427918 0.364841 -0.378642
C18   C     C_3   0.123104 0.489337 0.499796 0.077906
Cu1   Cu    Cu3+1 0.500030 0.500020 0.638630 0.937852
Cu2   Cu    Cu3+1 0.499970 0.499980 0.361370 0.950934
H1    H     H_    0.094317 0.474273 0.721887 0.109980
H2    H     H_    0.108959 0.672120 0.410668 0.168871
H3    H     H_    0.897287 0.681870 0.427930 0.164565
H4    H     H_    0.473888 0.888159 0.297556 0.156922
H5    H     H_    0.543986 0.109515 0.293358 0.154455
H6    H     H_    0.442278 0.092280 0.590242 0.138813
H7    H     H_    0.395333 0.341658 0.869572 0.147096
H8    H     H_    0.534871 0.575158 0.894816 0.193356
H9    H     H_    0.380337 0.352238 0.127626 0.150399
H10   H     H_    0.555392 0.561895 0.106474 0.210876
H11   H     H_    0.890508 0.318590 0.608866 0.212754
H12   H     H_    0.887525 0.447170 0.720106 0.160217
H13   H     H_    0.120263 0.672725 0.593084 0.164616
H14   H     H_    0.113135 0.477322 0.274182 0.172367
H15   H     H_    0.109830 0.333071 0.354555 0.194489
H16   H     H_    0.902949 0.328517 0.371377 0.152268
N1    N     N_2   0.498630 0.498660 0.846910 -0.290252
N2    N     N_2   0.498590 0.498630 0.153040 -0.278660
O1    O     O_R   0.500020 0.321960 0.617040 -0.579110
O2    O     O_R   0.499980 0.321920 0.382900 -0.587568
O3    O     O_R   0.317710 0.500000 0.617070 -0.593729
O4    O     O_R   0.317670 0.499960 0.382930 -0.581229
O5    O     O_R   0.500020 0.678080 0.617100 -0.587804
O6    O     O_R   0.499980 0.678040 0.382960 -0.569446
O7    O     O_R   0.682330 0.500040 0.617070 -0.581156
O8    O     O_R   0.682290 0.500000 0.382930 -0.566966
C19   C     C_R   0.884189 0.469268 0.222832 0.146447
C20   C     C_R   0.914365 0.585584 0.169864 -0.131486
C21   C     C_R   0.867814 0.622059 0.042957 -0.153061
C22   C     C_R   0.793826 0.542024 0.965216 -0.185152
C23   C     C_R   0.768026 0.424428 0.012623 -0.132510
C24   C     C_R   0.811980 0.388361 0.140902 -0.098421
H17   H     H_    0.976054 0.647766 0.223743 0.117496
H18   H     H_    0.890132 0.712209 0.004260 0.147272
H19   H     H_    0.757113 0.571034 0.867706 0.162978
H20   H     H_    0.712472 0.361665 0.950800 0.155574
H21   H     H_    0.788693 0.297367 0.176538 0.114317
C25   C     C_2   0.594103 0.917050 0.629868 0.459497
H22   H     H_    0.576509 0.876355 0.729705 0.068080
O9    O     O_2   0.671487 0.999337 0.621822 -0.501322
C26   C     C_2   0.124101 0.294379 0.647001 0.342011
H23   H     H_    0.191101 0.280733 0.728422 0.061916
O10   O     O_2   0.096415 0.208528 0.570970 -0.547835
C27   C     C_2   0.894955 0.687835 0.645683 0.363755
H24   H     H_    0.931915 0.657954 0.743225 0.068198
O11   O     O_2   0.825539 0.774876 0.644337 -0.535073

loop_
_geom_bond_atom_site_label_1
_geom_bond_atom_site_label_2
_ccdc_geom_bond_type
Cu2   O4    S    
C4    H16   S    
C11   C18   S    
C15   H11   S    
C19   C24   A    
C23   C24   A    
C16   H13   S    
C1    C8    S    
C8    H6    S    
C9    C10   S    
C14   C18   S    
C2    C4    S    
C19   C20   A    
C7    H5    S    
C10   N2    D    
C27   H24   S    
Cu1   Cu2   S    
C9    N1    D    
C17   C18   S    
C15   H12   S    
C12   O6    A    
C3    C27   S    
Cu1   O7    S    
C13   O7    A    
C2    C15   S    
C10   H9    S    
C9    H7    S    
C13   O8    A    
C5    H4    S    
Cu1   O1    S    
H8    N1    S    
C5    C6    D    
C4    C17   S    
C14   H1    S    
C20   C21   A    
Cu2   O6    S    
Cu1   O5    S    
C11   O3    A    
C12   O5    A    
C2    C3    S    
C6    C12   S    
C26   H23   S    
Cu2   O2    S    
Cu1   N1    S    
C24   H21   S    
C1    O1    A    
C25   O9    D    
C21   H18   S    
Cu1   O3    S    
C7    C8    D    
Cu2   N2    S    
H10   N2    S    
C11   O4    A    
C16   C18   S    
C21   C22   A    
C17   H14   S    
C5    C7    S    
C2    C13   S    
C6    C25   S    
C14   C15   S    
C16   H2    S    
C17   H15   S    
C1    O2    A    
C22   C23   A    
C25   H22   S    
C14   C26   S    
C3    H3    S    
C26   O10   D    
Cu2   O8    S    
C3    C16   S    
C22   H19   S    
C27   O11   D    
C20   H17   S    
C4    C19   S    
C23   H20   S    
