data_mof_unit_43727.cif
_audit_creation_date              2013-03-05T15:47:46-0500
_audit_creation_method            fapswitch 2.2
_symmetry_space_group_name_H-M    P1
_symmetry_Int_Tables_number       1
_space_group_crystal_system       triclinic
_cell_length_a                    10.806196
_cell_length_b                    12.964596
_cell_length_c                    11.726127
_cell_angle_alpha                 98.614429
_cell_angle_beta                  94.337425
_cell_angle_gamma                 92.049655
_cell_volume                      1617.77265736

loop_
_atom_site_label
_atom_site_type_symbol
_atom_site_description
_atom_site_fract_x
_atom_site_fract_y
_atom_site_fract_z
_atom_type_partial_charge
O1    O     O_R   0.506570 0.354460 0.582000 -0.568060
O2    O     O_R   0.493430 0.645540 0.418000 -0.574818
O3    O     O_R   0.490940 0.341410 0.386200 -0.585896
O4    O     O_R   0.509060 0.658590 0.613800 -0.592076
C1    C     C_R   0.493552 0.299947 0.479749 0.833401
C2    C     C_R   0.506475 0.700056 0.520247 0.836692
O5    O     O_R   0.327470 0.506520 0.597900 -0.622052
O6    O     O_R   0.672530 0.493480 0.402100 -0.617688
O7    O     O_R   0.311840 0.493460 0.402100 -0.601302
O8    O     O_R   0.688160 0.506540 0.597900 -0.598076
C3    C     C_R   0.262745 0.511388 0.500073 0.822810
C4    C     C_R   0.736867 0.487507 0.499961 0.821860
Cu1   Cu    Cu3+1 0.509250 0.507730 0.615930 0.971449
Cu2   Cu    Cu3+1 0.490750 0.492270 0.384070 0.974440
H1    H     H_    0.059290 0.465294 0.098421 0.139542
H2    H     H_    0.939146 0.525191 0.902013 0.132327
C5    C     C_R   0.135192 0.590330 0.708350 -0.081360
C6    C     C_R   0.864408 0.402190 0.293791 -0.045184
C7    C     C_R   0.087797 0.587571 0.815885 0.051233
C8    C     C_R   0.912342 0.402428 0.186040 0.065049
C9    C     C_R   0.974886 0.533272 0.819748 -0.204457
C10   C     C_R   0.024165 0.457929 0.181036 -0.240577
C11   C     C_R   0.906174 0.489642 0.717484 -0.079997
C12   C     C_R   0.092262 0.504142 0.282617 -0.089755
C13   C     C_R   0.948085 0.500344 0.607961 0.066598
C14   C     C_R   0.050963 0.494642 0.392653 0.071051
C15   C     C_R   0.071106 0.538168 0.604592 0.021968
C16   C     C_R   0.928215 0.456463 0.396485 0.027020
C17   C     C_R   0.872310 0.473089 0.502319 -0.139292
C18   C     C_R   0.126801 0.523260 0.498231 -0.139479
H3    H     H_    0.221312 0.634889 0.706047 0.199758
H4    H     H_    0.777705 0.358747 0.297245 0.192137
H5    H     H_    0.822793 0.443932 0.726085 0.206309
H6    H     H_    0.174488 0.550801 0.272892 0.203995
C19   C     C_R   0.520547 0.812573 0.529302 -0.220980
C20   C     C_R   0.479479 0.187440 0.470679 -0.211647
C21   C     C_R   0.357964 0.025782 0.410853 -0.058971
C22   C     C_R   0.642051 0.974243 0.589158 -0.059578
C23   C     C_R   0.372347 0.133145 0.411190 -0.090700
C24   C     C_R   0.627594 0.866900 0.588924 -0.092295
C25   C     C_R   0.569478 0.135502 0.530378 0.344397
C26   C     C_R   0.430704 0.864490 0.469380 0.332708
C27   C     C_R   0.553098 0.027710 0.530515 -0.034270
C28   C     C_R   0.446969 0.972318 0.469442 -0.033562
H7    H     H_    0.274790 0.984651 0.366950 0.231648
H8    H     H_    0.725246 0.015338 0.633041 0.231706
N1    N     N_R   0.523180 0.519350 0.790130 -0.225811
N2    N     N_R   0.476820 0.480650 0.209870 -0.222853
C29   C     C_R   0.367689 0.409049 0.027609 -0.069281
C30   C     C_R   0.589929 0.620261 0.974475 -0.086343
C31   C     C_R   0.385910 0.416638 0.148337 0.005590
C32   C     C_R   0.587974 0.602455 0.853504 0.002222
C33   C     C_R   0.551107 0.543779 0.155092 0.176532
C34   C     C_R   0.453745 0.451838 0.843891 0.149101
C35   C     C_R   0.530799 0.545253 0.033265 0.028107
C36   C     C_R   0.449074 0.467646 0.967095 0.027963
H9    H     H_    0.634142 0.658200 0.808941 0.128941
H10   H     H_    0.324662 0.372844 0.194507 0.125523
C37   C     C_2   0.253513 0.348650 0.973983 0.337916
H11   H     H_    0.223457 0.278811 0.007038 0.122163
O9    O     O_2   0.187129 0.380120 0.898913 -0.582103
C38   C     C_2   0.638611 0.725212 0.031577 0.458332
H12   H     H_    0.713886 0.764436 0.996054 0.084983
O10   O     O_2   0.590030 0.771618 0.113748 -0.499530
C39   C     C_2   0.157411 0.637139 0.924975 0.431114
H13   H     H_    0.118691 0.633719 0.007175 0.083088
O11   O     O_2   0.258818 0.681773 0.924677 -0.511629
C40   C     C_2   0.843484 0.350403 0.077669 0.425081
H14   H     H_    0.882734 0.351874 0.995348 0.090559
O12   O     O_2   0.742134 0.305891 0.078689 -0.504027
N3    N     N_R   0.323075 0.807042 0.408770 0.106970
O13   O     O_R   0.244351 0.760922 0.465513 -0.379852
O14   O     O_R   0.310269 0.792535 0.296198 -0.319799
N4    N     N_R   0.677669 0.192815 0.590058 0.107180
O15   O     O_R   0.756080 0.238296 0.532448 -0.387186
O16   O     O_R   0.691854 0.207271 0.702586 -0.311114
C41   C     C_2   0.728649 0.812231 0.645525 0.398092
H15   H     H_    0.730565 0.727815 0.630977 0.064183
O17   O     O_2   0.812465 0.861243 0.708898 -0.507181
C42   C     C_2   0.271265 0.187849 0.354652 0.410907
H16   H     H_    0.269445 0.272274 0.369130 0.059181
O18   O     O_2   0.187333 0.138851 0.291389 -0.508286
C43   C     C_2   0.394793 0.356279 0.774394 0.525178
H17   H     H_    0.324663 0.360630 0.704624 0.093421
O19   O     O_2   0.424413 0.270588 0.795255 -0.511615
C44   C     C_2   0.662510 0.600232 0.219831 0.459479
H18   H     H_    0.657724 0.648016 0.302606 0.120938
O20   O     O_2   0.763276 0.594595 0.179336 -0.592156

loop_
_geom_bond_atom_site_label_1
_geom_bond_atom_site_label_2
_geom_bond_distance
_ccdc_geom_bond_type
C35   C36   1.411814 A    
H2    C9    1.083705 S    
C4    C17   1.480837 S    
O7    Cu2   1.961048 S    
C29   C31   1.402605 A    
H1    C10   1.082773 S    
C41   H15   1.083281 S    
O5    C3    1.308660 A    
N4    O16   1.301163 A    
O1    C1    1.292447 A    
C16   C17   1.412147 A    
C7    C9    1.393856 A    
C12   C14   1.417743 A    
C44   O20   1.220670 D    
C1    C20   1.448161 S    
C2    C19   1.448312 S    
O4    Cu1   1.959807 S    
C19   C26   1.405190 A    
C38   O10   1.221245 D    
C25   N4    1.437718 S    
N2    C31   1.352590 A    
C3    C18   1.481414 S    
C40   H14   1.085790 S    
C11   H5    1.080130 S    
C30   C32   1.401056 A    
C33   C44   1.481046 S    
C41   O17   1.221438 D    
C37   H11   1.085666 S    
Cu1   Cu2   2.687710 S    
C15   C18   1.415891 A    
C25   C27   1.402610 A    
C20   C25   1.405127 A    
O2    C2    1.292429 A    
C26   C28   1.402586 A    
C34   C43   1.472182 S    
C33   C35   1.431907 A    
C13   C17   1.422899 A    
N2    C33   1.383956 A    
C34   C36   1.433458 A    
C37   O9    1.220225 D    
N4    O15   1.300831 A    
C5    C15   1.417667 A    
C6    C16   1.416510 A    
O4    C2    1.290868 A    
N3    O14   1.301218 A    
C44   H18   1.076260 S    
Cu2   N2    2.019314 S    
C39   O11   1.221275 D    
C12   H6    1.079818 S    
C22   C27   1.402789 A    
C27   C28   1.416562 A    
C38   H12   1.085769 S    
C43   H17   1.081635 S    
O6    C4    1.309957 A    
C31   H10   1.083020 S    
O7    C3    1.294737 A    
O3    Cu2   1.959809 S    
O8    C4    1.293319 A    
N1    C34   1.384333 A    
C42   O18   1.221602 D    
C43   O19   1.221274 D    
C8    C10   1.393750 A    
C14   C18   1.424484 A    
C9    C11   1.393326 A    
C5    H3    1.081912 S    
C10   C12   1.393341 A    
O1    Cu1   1.965947 S    
C21   H7    1.081993 S    
Cu1   N1    2.019314 S    
O6    Cu2   1.958979 S    
C8    C40   1.479107 S    
C20   C23   1.412374 A    
C42   H16   1.083328 S    
O3    C1    1.290795 A    
O8    Cu1   1.961048 S    
N1    C32   1.353075 A    
C13   C15   1.405857 A    
C29   C36   1.436037 A    
C14   C16   1.405407 A    
C30   C35   1.432546 A    
C29   C37   1.482196 S    
C23   C42   1.490766 S    
C21   C28   1.402824 A    
C19   C24   1.412398 A    
N3    O13   1.300901 A    
C21   C23   1.394418 A    
C22   C24   1.394405 A    
C30   C38   1.482926 S    
C26   N3    1.437691 S    
C5    C7    1.401263 A    
C7    C39   1.479462 S    
C6    C8    1.401728 A    
C11   C13   1.417952 A    
O2    Cu2   1.965944 S    
C22   H8    1.081905 S    
C32   H9    1.082154 S    
O5    Cu1   1.958978 S    
C6    H4    1.082361 S    
C40   O12   1.221271 D    
C39   H13   1.085634 S    
C24   C41   1.490640 S    
