data_mof_unit_63753.cif
_audit_creation_date              2012-10-26T19:11:30-0400
_audit_creation_method            fapswitch 2.2
_symmetry_space_group_name_H-M    P1
_symmetry_Int_Tables_number       1
_space_group_crystal_system       triclinic
_cell_length_a                    15.923394
_cell_length_b                    15.928224
_cell_length_c                    14.679197
_cell_angle_alpha                 90.27425
_cell_angle_beta                  90.349954
_cell_angle_gamma                 90.024422
_cell_volume                      3722.99260512

loop_
_atom_site_label
_atom_site_type_symbol
_atom_type_description
_atom_site_fract_x
_atom_site_fract_y
_atom_site_fract_z
_atom_type_partial_charge
C1    C     C_R   0.499963 0.339922 0.499810 0.542888
C2    C     C_3   0.559223 0.047746 0.425276 0.413500
C3    C     C_3   0.566021 0.949675 0.434683 0.713854
C4    C     C_R   0.339588 0.499961 0.499703 0.545898
C5    C     C_1   0.499050 0.749399 0.500695 0.096091
C6    C     C_3   0.496638 0.082923 0.499945 0.044964
C7    C     C_3   0.519765 0.951708 0.599675 0.398053
C8    C     C_3   0.495776 0.916919 0.501231 0.036210
C9    C     C_3   0.405980 0.949060 0.466669 0.122649
C10   C     C_3   0.403333 0.050194 0.476782 0.153093
C11   C     C_1   0.497804 0.824670 0.501000 0.164204
C12   C     C_3   0.083845 0.499534 0.499805 -0.060154
C13   C     C_1   0.498113 0.175328 0.499432 0.111306
C14   C     C_1   0.499144 0.250610 0.499389 0.064977
C15   C     C_3   0.519903 0.590477 0.056077 0.651681
C16   C     C_R   0.499989 0.660080 0.500197 0.547653
C17   C     C_3   0.413720 0.472892 0.051870 0.725277
C18   C     C_3   0.414268 0.474662 0.944733 0.728502
C19   C     C_3   0.501392 0.499729 0.092050 -0.168483
C20   C     C_3   0.522364 0.591967 0.948398 0.371450
C21   C     C_3   0.502709 0.501559 0.908015 -0.166020
C22   C     C_3   0.567998 0.436381 0.945634 0.646830
C23   C     C_3   0.972551 0.572759 0.535107 0.407839
C24   C     C_3   0.568875 0.435908 0.053377 0.373006
C25   C     C_1   0.502111 0.501520 0.804776 0.359837
C26   C     C_1   0.499207 0.498913 0.195240 0.362687
C27   C     C_R   0.660411 0.500021 0.500295 0.548034
C28   C     C_3   0.972589 0.436984 0.550146 0.008698
C29   C     C_3   0.027448 0.427097 0.464847 0.406315
C30   C     C_1   0.250292 0.499804 0.499193 0.081509
C31   C     C_1   0.749707 0.500127 0.500796 0.074415
C32   C     C_3   0.028844 0.508777 0.585608 0.378728
C33   C     C_3   0.916153 0.500324 0.500150 -0.060609
C34   C     C_3   0.027408 0.562874 0.449807 0.011110
C35   C     C_3   0.971153 0.491080 0.414345 0.378478
C36   C     C_1   0.175077 0.499655 0.499281 0.100960
C37   C     C_1   0.824922 0.500234 0.500691 0.096021
C38   C     C_3   0.524931 0.050698 0.597558 0.397448
Cu1   Cu    Cu3+1 0.499890 0.499910 0.589920 1.156710
Cu2   Cu    Cu3+1 0.500110 0.500090 0.410080 1.165666
F1    F     F_    0.055506 0.351632 0.429483 -0.519234
F2    F     F_    0.392830 0.396019 0.910785 -0.446749
F3    F     F_    0.547487 0.355820 0.082184 -0.446075
F4    F     F_    0.647128 0.452802 0.911140 -0.591090
F5    F     F_    0.594060 0.620834 0.093640 -0.578805
F6    F     F_    0.941735 0.482775 0.325954 -0.521276
F7    F     F_    0.547181 0.356810 0.913789 -0.417213
F8    F     F_    0.944498 0.648224 0.570474 -0.507768
F9    F     F_    0.058256 0.517082 0.674001 -0.507862
F10   F     F_    0.597619 0.918776 0.624486 -0.546642
F11   F     F_    0.527015 0.066294 0.339628 -0.535926
F12   F     F_    0.644670 0.926130 0.466747 -0.522745
F13   F     F_    0.559479 0.911907 0.349575 -0.497256
F14   F     F_    0.473700 0.085831 0.663911 -0.588766
F15   F     F_    0.460487 0.646644 0.917907 -0.457814
F16   F     F_    0.457677 0.644720 0.086243 -0.415546
F17   F     F_    0.393128 0.392931 0.081454 -0.443795
F18   F     F_    0.351466 0.526001 0.084155 -0.454109
F19   F     F_    0.353123 0.529680 0.913523 -0.441447
H1    H     H_    0.681240 0.064360 0.479618 0.294665
H2    H     H_    0.461645 0.858707 0.673321 0.259893
H3    H     H_    0.331622 0.921737 0.351572 0.262098
H4    H     H_    0.424868 0.960548 0.323937 0.353451
H5    H     H_    0.994590 0.337301 0.632372 0.299881
H6    H     H_    0.908915 0.393194 0.659387 0.279061
H7    H     H_    0.679333 0.507322 0.064056 0.281681
H8    H     H_    0.653799 0.454608 0.159838 0.261167
H9    H     H_    0.654006 0.594439 0.942605 0.281393
H10   H     H_    0.605195 0.624348 0.845288 0.257561
H11   H     H_    0.005409 0.662534 0.367549 0.301088
H12   H     H_    0.672974 0.078441 0.367919 0.327512
H13   H     H_    0.091117 0.606668 0.340593 0.282025
H14   H     H_    0.624528 0.059362 0.687210 0.332389
H15   H     H_    0.612661 0.143859 0.622583 0.255713
H16   H     H_    0.349170 0.044339 0.608068 0.312610
H17   H     H_    0.282467 0.072635 0.525990 0.243902
H18   H     H_    0.366588 0.153287 0.399107 0.280021
H19   H     H_    0.314198 0.065876 0.374245 0.244840
H20   H     H_    0.338252 0.914305 0.586601 0.267806
H21   H     H_    0.279101 0.929075 0.493706 0.255486
H22   H     H_    0.483006 0.944925 0.733439 0.334266
N1    N     N_1   0.501700 0.501390 0.724970 -0.141836
N2    N     N_3   0.654165 0.451599 0.088722 -0.429866
N3    N     N_3   0.602507 0.626739 0.916354 -0.434152
N4    N     N_3   0.057918 0.632414 0.395182 -0.511550
N5    N     N_3   0.610584 0.078277 0.620642 -0.515065
N6    N     N_1   0.498280 0.498620 0.275030 -0.140097
N7    N     N_3   0.642037 0.089239 0.429543 -0.530687
N8    N     N_3   0.344632 0.078870 0.548391 -0.543360
N9    N     N_3   0.374115 0.088518 0.390607 -0.501226
N10   N     N_3   0.337309 0.906921 0.516536 -0.592386
N11   N     N_3   0.460855 0.924256 0.669937 -0.554450
N12   N     N_3   0.395067 0.921723 0.370479 -0.484982
N13   N     N_3   0.942079 0.367445 0.604775 -0.514026
O1    O     O_R   0.499910 0.379360 0.575970 -0.474606
O2    O     O_R   0.500090 0.379510 0.424100 -0.483807
O3    O     O_R   0.378990 0.499920 0.575920 -0.472067
O4    O     O_R   0.379170 0.500070 0.424050 -0.483373
O5    O     O_R   0.499910 0.620490 0.575900 -0.500018
O6    O     O_R   0.500090 0.620640 0.424030 -0.467447
O7    O     O_R   0.620830 0.499930 0.575950 -0.493478
O8    O     O_R   0.621010 0.500080 0.424080 -0.491185

loop_
_geom_bond_atom_site_label_1
_geom_bond_atom_site_label_2
_ccdc_geom_bond_type
C8    C9    S    
H8    N2    S    
C4    O4    A    
C12   C29   S    
C18   C21   S    
C9    N10   S    
H13   N4    S    
H1    N7    S    
C7    C8    S    
H19   N9    S    
C15   C19   S    
C38   N5    S    
Cu2   N6    S    
C21   C22   S    
C28   C29   S    
C24   N2    S    
C5    C11   T    
C18   F2    S    
Cu2   O4    S    
Cu1   O3    S    
C28   N13   S    
C34   C35   S    
C19   C26   S    
C5    C16   S    
C17   C19   S    
H7    N2    S    
H22   N11   S    
C22   F4    S    
C10   N8    S    
C26   N6    T    
C23   C33   S    
C6    C38   S    
C2    N7    S    
C12   C36   S    
C9    C10   S    
H20   N10   S    
H2    N11   S    
C1    O2    A    
C17   F18   S    
C22   F7    S    
C13   C14   T    
C12   C32   S    
C2    C6    S    
Cu2   O2    S    
C20   F15   S    
Cu1   O7    S    
C15   C20   S    
H14   N5    S    
H18   N9    S    
C27   C31   S    
H9    N3    S    
C28   C32   S    
Cu1   N1    S    
C3    C8    S    
Cu1   Cu2   S    
C16   O6    A    
C27   O7    A    
C33   C37   S    
C31   C37   T    
C34   N4    S    
C6    C10   S    
Cu1   O5    S    
C38   F14   S    
C1    O1    A    
C23   C34   S    
C17   C18   S    
H15   N5    S    
Cu1   O1    S    
H6    N13   S    
C28   C33   S    
C20   N3    S    
C25   N1    T    
C22   C24   S    
C15   F5    S    
C12   C34   S    
C9    N12   S    
C21   C25   S    
C23   F8    S    
C29   F1    S    
C7    F10   S    
C35   F6    S    
Cu2   O6    S    
C3    F12   S    
C16   O5    A    
C29   C35   S    
C27   O8    A    
C30   C36   T    
C23   C32   S    
H21   N10   S    
C19   C24   S    
H5    N13   S    
H10   N3    S    
C15   F16   S    
C6    C13   S    
C3    F13   S    
C8    C11   S    
C7    N11   S    
C33   C35   S    
C7    C38   S    
C2    C3    S    
C32   F9    S    
C2    F11   S    
H16   N8    S    
Cu2   O8    S    
H12   N7    S    
C18   F19   S    
C20   C21   S    
C10   N9    S    
H3    N12   S    
C24   F3    S    
H17   N8    S    
C1    C14   S    
H4    N12   S    
C4    O3    A    
H11   N4    S    
C4    C30   S    
C17   F17   S    
