data_mof_unit_49491.cif
_audit_creation_date              2012-12-11T15:12:46-0500
_audit_creation_method            fapswitch 2.2
_symmetry_space_group_name_H-M    P1
_symmetry_Int_Tables_number       1
_space_group_crystal_system       triclinic
_cell_length_a                    22.365137
_cell_length_b                    6.976244
_cell_length_c                    19.29096
_cell_angle_alpha                 90.059056
_cell_angle_beta                  99.337607
_cell_angle_gamma                 90.048505
_cell_volume                      2969.97976756

loop_
_atom_site_label
_atom_site_type_symbol
_atom_type_description
_atom_site_fract_x
_atom_site_fract_y
_atom_site_fract_z
_atom_type_partial_charge
O1    O     O_R   0.448420 0.506120 0.415750 -0.532667
O2    O     O_R   0.551580 0.006120 0.584250 -0.532747
O3    O     O_R   0.436490 0.174470 0.555610 -0.539479
O4    O     O_R   0.563510 0.674470 0.444390 -0.539763
C1    C     C_R   0.420391 0.345230 0.574847 0.727924
C2    C     C_R   0.579765 0.845257 0.425355 0.727998
O5    O     O_R   0.441310 0.176330 0.414520 -0.533745
O6    O     O_R   0.558690 0.676330 0.585480 -0.534068
O7    O     O_R   0.556430 0.007110 0.442150 -0.535371
O8    O     O_R   0.443570 0.507110 0.557850 -0.535962
C3    C     C_R   0.426648 0.345219 0.388447 0.716806
C4    C     C_R   0.573100 0.845490 0.611729 0.715955
O9    O     O_3   0.537770 0.339560 0.509230 -0.370031
O10   O     O_3   0.462230 0.839560 0.490770 -0.369875
V1    V     V_3+5 0.492990 0.064280 0.498290 1.388845
V2    V     V_3+5 0.507010 0.564280 0.501710 1.387725
C5    C     C_R   0.870074 0.919938 0.693185 0.421691
C6    C     C_R   0.130502 0.452336 0.307322 0.418817
H1    H     H_    0.956838 0.953798 0.758601 0.121887
H2    H     H_    0.044242 0.492251 0.240026 0.113738
H3    H     H_    0.785629 0.906085 0.577123 0.158558
H4    H     H_    0.214879 0.435234 0.423063 0.170560
C7    C     C_R   0.885287 0.937480 0.820504 -0.105976
C8    C     C_R   0.114706 0.440202 0.179476 -0.096170
C9    C     C_R   0.590009 0.849100 0.741006 -0.261574
C10   C     C_R   0.409349 0.340927 0.259206 -0.262786
C11   C     C_R   0.626605 0.862879 0.806544 0.458445
C12   C     C_R   0.372673 0.352409 0.193678 0.458639
C13   C     C_R   0.689472 0.877724 0.811362 -0.235712
C14   C     C_R   0.309904 0.369663 0.188938 -0.232110
C15   C     C_R   0.717302 0.886490 0.750637 0.042473
C16   C     C_R   0.282262 0.384365 0.249674 0.041706
C17   C     C_R   0.679099 0.875772 0.683580 0.071258
C18   C     C_R   0.320617 0.378438 0.316700 0.070757
C19   C     C_R   0.781752 0.904424 0.754449 0.053014
C20   C     C_R   0.217945 0.406752 0.245840 0.045794
C21   C     C_R   0.806529 0.908166 0.690955 0.032491
C22   C     C_R   0.193581 0.427230 0.309263 0.054050
C23   C     C_R   0.767781 0.900221 0.626023 -0.188011
C24   C     C_R   0.232450 0.421263 0.374171 -0.161111
C25   C     C_R   0.705404 0.884264 0.622358 -0.185472
C26   C     C_R   0.294582 0.396521 0.377872 -0.196691
C27   C     C_R   0.822612 0.919164 0.819059 -0.220247
C28   C     C_R   0.176905 0.410671 0.181213 -0.219838
C29   C     C_R   0.908454 0.939514 0.757638 -0.242753
C30   C     C_R   0.092108 0.464494 0.242075 -0.263240
C31   C     C_R   0.615219 0.856073 0.679309 -0.144417
C32   C     C_R   0.384379 0.354473 0.320941 -0.142619
H5    H     H_    0.807480 0.918003 0.869282 0.107459
H6    H     H_    0.191548 0.392773 0.131113 0.107659
H7    H     H_    0.541432 0.833861 0.738302 0.123051
H8    H     H_    0.457832 0.323309 0.261861 0.123352
H9    H     H_    0.715039 0.880219 0.863600 0.123032
H10   H     H_    0.284350 0.372086 0.136712 0.122677
H11   H     H_    0.677849 0.877724 0.570773 0.106494
H12   H     H_    0.322228 0.392598 0.429435 0.107762
C33   C     C_3   0.790429 0.677953 0.236516 0.467502
C34   C     C_3   0.210507 0.178090 0.764648 0.466734
C35   C     C_3   0.813408 0.016631 0.276161 -0.450487
C36   C     C_3   0.187612 0.516567 0.725066 -0.442030
C37   C     C_3   0.764003 0.012215 0.323839 -0.453251
C38   C     C_3   0.236972 0.511856 0.677355 -0.454145
H13   H     H_    0.836825 0.625906 0.257842 0.067638
H14   H     H_    0.164122 0.125845 0.743224 0.070187
H15   H     H_    0.820612 0.167091 0.260025 0.223967
H16   H     H_    0.180588 0.667099 0.741305 0.224486
H17   H     H_    0.857116 0.965353 0.306348 0.175201
H18   H     H_    0.143821 0.465477 0.694891 0.176322
H19   H     H_    0.785051 0.986770 0.379381 0.219022
H20   H     H_    0.215890 0.485744 0.621841 0.221778
H21   H     H_    0.743664 0.154620 0.321723 0.210623
H22   H     H_    0.257353 0.654357 0.679371 0.210197
C39   C     C_1   0.627871 0.856796 0.382829 -0.242781
C40   C     C_1   0.372657 0.356769 0.617859 -0.242492
C41   C     C_3   0.794785 0.888685 0.210737 0.036098
C42   C     C_3   0.206150 0.388875 0.790436 0.031425
C43   C     C_3   0.749020 0.662681 0.295437 0.901409
C44   C     C_3   0.252020 0.162614 0.705851 0.902591
C45   C     C_3   0.714311 0.859865 0.298581 0.043834
C46   C     C_3   0.286661 0.360024 0.702647 0.040339
C47   C     C_3   0.683005 0.917538 0.223229 0.263755
C48   C     C_3   0.317958 0.418609 0.777973 0.264350
C49   C     C_3   0.730981 0.950858 0.174226 -0.349516
C50   C     C_3   0.269961 0.451365 0.827039 -0.350663
C51   C     C_1   0.667748 0.861702 0.346463 -0.043335
C52   C     C_1   0.333064 0.361788 0.654594 -0.041668
C53   C     C_1   0.839561 0.911946 0.161773 0.026524
C54   C     C_1   0.161196 0.412052 0.839184 0.029794
C55   C     C_1   0.876333 0.933311 0.122337 -0.173890
C56   C     C_1   0.124128 0.433307 0.878257 -0.171996
H23   H     H_    0.718102 0.871190 0.123986 0.203539
H24   H     H_    0.282829 0.371570 0.877172 0.204239
H25   H     H_    0.731832 0.105607 0.160383 0.170642
H26   H     H_    0.269100 0.606046 0.841075 0.170539
H27   H     H_    0.659219 0.056574 0.228172 0.078768
H28   H     H_    0.341536 0.558066 0.772966 0.079435
O11   O     O_R   0.056480 0.288780 0.942210 -0.533125
O12   O     O_R   0.943520 0.788780 0.057790 -0.533297
O13   O     O_R   0.058700 0.616820 0.085490 -0.538119
O14   O     O_R   0.941300 0.116820 0.914510 -0.537748
C57   C     C_R   0.072783 0.448507 0.112048 0.718668
C58   C     C_R   0.927292 0.948112 0.887876 0.718480
O15   O     O_R   0.063520 0.618570 0.944410 -0.535453
O16   O     O_R   0.936480 0.118570 0.055590 -0.535137
O17   O     O_R   0.948420 0.787670 0.915740 -0.536665
O18   O     O_R   0.051580 0.287670 0.084260 -0.536735
C59   C     C_R   0.078862 0.449003 0.924115 0.714824
C60   C     C_R   0.921260 0.949023 0.076040 0.715212
O19   O     O_3   0.962260 0.453430 0.990800 -0.366479
O20   O     O_3   0.037740 0.953430 0.009200 -0.366578
V3    V     V_3+5 0.007000 0.728750 0.001710 1.442832
V4    V     V_3+5 0.993000 0.228750 0.998290 1.443667
O21   O     O_3   0.642191 0.770114 0.195266 -0.536342
C61   C     C_3   0.590707 0.845534 0.151570 0.104890
H29   H     H_    0.575449 0.738670 0.109666 0.139775
H30   H     H_    0.600644 0.979848 0.124305 0.108775
C62   C     C_3   0.539420 0.877217 0.194086 -0.365559
H31   H     H_    0.524559 0.736572 0.212406 0.194744
H32   H     H_    0.555596 0.967239 0.240926 0.194814
C63   C     C_3   0.485782 0.977012 0.149985 -0.791661
H33   H     H_    0.498812 0.124642 0.136858 0.256193
H34   H     H_    0.447542 0.984589 0.180064 0.249746
H35   H     H_    0.470817 0.896914 0.100544 0.223602
O22   O     O_3   0.359016 0.272165 0.805923 -0.536427
C64   C     C_3   0.410444 0.348975 0.849484 0.104210
H36   H     H_    0.426034 0.242597 0.891335 0.139496
H37   H     H_    0.400276 0.482980 0.876831 0.110105
C65   C     C_3   0.461557 0.382095 0.806811 -0.366392
H38   H     H_    0.477102 0.241730 0.789010 0.194411
H39   H     H_    0.444935 0.469937 0.759624 0.195297
C66   C     C_3   0.514705 0.485969 0.850473 -0.791224
H40   H     H_    0.500983 0.633526 0.862764 0.256725
H41   H     H_    0.552950 0.494045 0.820415 0.249518
H42   H     H_    0.530004 0.408681 0.900382 0.223163
F1    F     F_    0.768652 0.560672 0.179801 -0.671128
F2    F     F_    0.232150 0.061146 0.821383 -0.671364
O23   O     O_3   0.710830 0.497948 0.280272 -0.540674
C67   C     C_3   0.674240 0.442636 0.331131 0.118047
H43   H     H_    0.656320 0.297710 0.316067 0.114593
H44   H     H_    0.631926 0.526570 0.324942 0.128722
C68   C     C_3   0.706571 0.432704 0.408591 -0.332239
H45   H     H_    0.751736 0.364110 0.412340 0.241126
H46   H     H_    0.713222 0.578843 0.431113 0.229659
C69   C     C_3   0.670149 0.319139 0.454704 -0.794129
H47   H     H_    0.621111 0.345433 0.438442 0.260462
H48   H     H_    0.683492 0.361854 0.510567 0.228438
H49   H     H_    0.679509 0.164222 0.450496 0.224633
O24   O     O_3   0.290253 0.998350 0.721200 -0.540541
C70   C     C_3   0.327012 0.942965 0.670519 0.112891
H50   H     H_    0.344934 0.798297 0.685692 0.114940
H51   H     H_    0.369282 0.027457 0.676811 0.129249
C71   C     C_3   0.294880 0.932043 0.592980 -0.326677
H52   H     H_    0.249743 0.862964 0.589075 0.244049
H53   H     H_    0.288138 0.077860 0.570370 0.231228
C72   C     C_3   0.331532 0.818599 0.547057 -0.788527
H54   H     H_    0.380589 0.843137 0.564190 0.258749
H55   H     H_    0.319006 0.862869 0.491296 0.230054
H56   H     H_    0.321501 0.663866 0.550393 0.223119
O25   O     O_3   0.895270 0.922820 0.632187 -0.579570
C73   C     C_3   0.902928 0.732688 0.609181 0.066002
H57   H     H_    0.897369 0.735555 0.550893 0.162047
H58   H     H_    0.868083 0.630428 0.622616 0.113536
C74   C     C_3   0.966701 0.659198 0.637978 -0.331246
H59   H     H_    0.000934 0.762228 0.624416 0.213096
H60   H     H_    0.972338 0.647211 0.696074 0.186707
C75   C     C_3   0.977936 0.462720 0.607670 -0.791475
H61   H     H_    0.944764 0.356575 0.621568 0.253336
H62   H     H_    0.024334 0.413350 0.629646 0.230396
H63   H     H_    0.973914 0.470945 0.549611 0.235490
O26   O     O_3   0.108079 0.483150 0.369563 -0.577376
C76   C     C_3   0.059877 0.356067 0.376646 0.078179
H64   H     H_    0.072748 0.275801 0.426554 0.152311
H65   H     H_    0.050430 0.245637 0.334307 0.105950
C77   C     C_3   0.002381 0.471245 0.381338 -0.305265
H66   H     H_    0.010677 0.566714 0.428094 0.205472
H67   H     H_    0.990740 0.562558 0.333953 0.191602
C78   C     C_3   0.948761 0.340026 0.387206 -0.827588
H68   H     H_    0.938458 0.247668 0.339823 0.227028
H69   H     H_    0.908149 0.428027 0.391452 0.267498
H70   H     H_    0.958960 0.248120 0.434634 0.235973
O27   O     O_3   0.600799 0.848526 0.866708 -0.578423
C79   C     C_3   0.595920 0.032168 0.896613 0.060980
H71   H     H_    0.547604 0.054028 0.901650 0.141778
H72   H     H_    0.609050 0.153958 0.864495 0.117201
C80   C     C_3   0.634181 0.039050 0.969931 -0.315218
H73   H     H_    0.621114 0.918282 0.001897 0.198611
H74   H     H_    0.682836 0.022849 0.965635 0.192646
C81   C     C_3   0.625544 0.227896 0.007118 -0.821886
H75   H     H_    0.637971 0.350876 0.975769 0.250355
H76   H     H_    0.655083 0.230485 0.059224 0.246285
H77   H     H_    0.577695 0.243184 0.015128 0.220538
O28   O     O_3   0.398304 0.335895 0.133449 -0.578241
C82   C     C_3   0.404709 0.519256 0.104034 0.060999
H78   H     H_    0.453032 0.536656 0.098174 0.140341
H79   H     H_    0.393377 0.641944 0.136962 0.117788
C83   C     C_3   0.365626 0.530650 0.031276 -0.315210
H80   H     H_    0.377398 0.410233 0.998251 0.198879
H81   H     H_    0.317051 0.517073 0.036334 0.193336
C84   C     C_3   0.375005 0.720221 0.995034 -0.823879
H82   H     H_    0.363669 0.842750 0.027353 0.251373
H83   H     H_    0.344981 0.725950 0.943293 0.245902
H84   H     H_    0.422752 0.733466 0.986397 0.220942
F3    F     F_    0.788922 0.636197 0.357743 -0.784645
F4    F     F_    0.212231 0.135160 0.643488 -0.772316

loop_
_geom_bond_atom_site_label_1
_geom_bond_atom_site_label_2
_ccdc_geom_bond_type
C22   C24   A    
C76   H64   S    
C7    C29   A    
C72   H55   S    
C54   C56   T    
C74   H59   S    
O1    C3    A    
C45   C51   S    
C66   H42   S    
O2    C4    A    
C65   H38   S    
C42   C50   S    
C2    O7    A    
C11   O27   S    
C61   H29   S    
C7    C27   A    
C23   C25   A    
O18   V4    S    
O27   C79   S    
O5    C3    A    
C76   H65   S    
C81   H77   S    
C16   C20   A    
C38   C46   S    
C74   H60   S    
C44   F4    S    
C56   C59   S    
C4    C31   S    
C47   H27   S    
C44   C46   S    
C80   H74   S    
C7    C58   S    
C11   C13   A    
O26   C76   S    
C37   H19   S    
C49   H25   S    
C12   O28   S    
O12   C60   A    
C38   H20   S    
C58   O17   A    
C36   C38   S    
C8    C57   S    
C1    C40   S    
C77   H66   S    
C25   H11   S    
C46   C52   S    
O19   V3    S    
C26   H12   S    
O20   V3    S    
C70   H50   S    
C81   H76   S    
C12   C14   A    
C82   H79   S    
C18   C26   A    
C64   C65   S    
C15   C17   A    
C19   C27   A    
C9    C31   A    
C63   H35   S    
C44   O24   S    
C35   H17   S    
C37   H21   S    
C24   C26   A    
O17   V3    S    
C36   H16   S    
C84   H82   S    
O6    V2    S    
C62   C63   S    
C72   H56   S    
C75   H62   S    
C69   H49   S    
C3    C32   S    
C83   C84   S    
C6    C30   A    
C48   O22   S    
C47   C49   S    
C63   H34   S    
C33   H13   S    
C77   H67   S    
C43   C45   S    
C34   H14   S    
C76   C77   S    
C35   C37   S    
C48   H28   S    
C6    O26   S    
C34   C42   S    
C61   C62   S    
C73   C74   S    
C33   C43   S    
C74   C75   S    
O24   C70   S    
C69   H48   S    
C67   H43   S    
C70   C71   S    
C45   C47   S    
O11   V4    S    
C62   H32   S    
H4    C24   S    
C27   H5    S    
C80   C81   S    
C5    C21   A    
O3    C1    A    
C36   C42   S    
C81   H75   S    
C79   C80   S    
C73   H58   S    
O4    V2    S    
C9    H7    S    
C10   H8    S    
C84   H84   S    
C14   H10   S    
C68   H46   S    
O25   C73   S    
H3    C23   S    
C71   C72   S    
O6    C4    A    
C78   H70   S    
O13   V3    S    
O14   C58   A    
C38   H22   S    
O1    V2    S    
C50   H26   S    
C40   C52   T    
O2    V1    S    
C77   C78   S    
C39   C51   T    
C67   H44   S    
C78   H68   S    
C41   C53   S    
O13   C57   A    
C71   H53   S    
O14   V4    S    
C48   C50   S    
C43   O23   S    
O9    V1    S    
C75   H61   S    
C17   C31   A    
O10   V2    S    
O19   V4    S    
O4    C2    A    
C18   C32   A    
C84   H83   S    
C66   H40   S    
C65   C66   S    
C35   C41   S    
O16   C60   A    
O3    V1    S    
C63   H33   S    
C2    C39   S    
O16   V4    S    
O21   C61   S    
C28   H6    S    
C57   O18   A    
C42   C54   S    
O12   V3    S    
C79   H72   S    
C19   C21   A    
C5    C29   A    
C83   H80   S    
C66   H41   S    
C67   C68   S    
C65   H39   S    
C61   H30   S    
H1    C29   S    
C68   C69   S    
O15   V3    S    
C10   C32   A    
C9    C11   A    
C49   H23   S    
O23   C67   S    
C10   C12   A    
C69   H47   S    
C8    C30   A    
O28   C82   S    
C33   C41   S    
C70   H51   S    
C6    C22   A    
C17   C25   A    
C1    O8    A    
C13   C15   A    
O8    V2    S    
C68   H45   S    
C35   H15   S    
C82   C83   S    
C14   C16   A    
C41   C49   S    
C80   H73   S    
C64   H36   S    
C13   H9    S    
C37   C45   S    
C8    C28   A    
C55   C60   S    
O5    V1    S    
C46   C48   S    
C78   H69   S    
C15   C19   A    
O7    V1    S    
C5    O25   S    
C73   H57   S    
O20   V4    S    
C83   H81   S    
C20   C28   A    
C20   C22   A    
C34   C44   S    
O11   C59   A    
C43   F3    S    
C71   H52   S    
C36   H18   S    
C75   H63   S    
C21   C23   A    
C82   H78   S    
O9    V2    S    
C47   O21   S    
C72   H54   S    
C64   H37   S    
C53   C55   T    
O10   V1    S    
C33   F1    S    
O15   C59   A    
C50   H24   S    
C62   H31   S    
H2    C30   S    
C79   H71   S    
C16   C18   A    
O22   C64   S    
C34   F2    S    
