data_mof_unit_18938.cif
_audit_creation_date              2012-12-10T19:41:56-0500
_audit_creation_method            fapswitch 2.2
_symmetry_space_group_name_H-M    P1
_symmetry_Int_Tables_number       1
_space_group_crystal_system       triclinic
_cell_length_a                    18.303538
_cell_length_b                    18.345054
_cell_length_c                    18.33878
_cell_angle_alpha                 120.117302
_cell_angle_beta                  89.811158
_cell_angle_gamma                 120.044222
_cell_volume                      4350.73210338

loop_
_atom_site_label
_atom_site_type_symbol
_atom_type_description
_atom_site_fract_x
_atom_site_fract_y
_atom_site_fract_z
_atom_type_partial_charge
C1    C     C_R   0.139952 0.779975 0.140910 0.832599
C2    C     C_R   0.798099 0.108362 0.804369 -0.068245
C3    C     C_2   0.711748 0.892774 0.893737 0.966365
C4    C     C_R   0.759344 0.053758 0.711831 -0.169785
C5    C     C_R   0.859766 0.219917 0.859974 0.807192
C6    C     C_R   0.705563 0.946047 0.658161 -0.222322
C7    C     C_R   0.690131 0.891680 0.696231 -0.064350
C8    C     C_R   0.720780 0.947106 0.789391 0.113137
C9    C     C_3   0.770116 0.942032 0.850685 -0.399093
C10   C     C_3   0.828048 0.061725 0.909932 -0.355865
C11   C     C_R   0.793153 0.578501 0.238384 0.067174
C12   C     C_R   0.799742 0.495860 0.191210 -0.027117
C13   C     C_R   0.569543 0.438230 0.761198 0.472488
C14   C     C_R   0.746530 0.409636 0.193099 -0.193769
C15   C     C_R   0.694011 0.411741 0.248366 -0.223165
C16   C     C_R   0.693811 0.499640 0.301746 -0.065843
C17   C     C_R   0.140078 0.497718 0.860151 0.903671
C18   C     C_R   0.739920 0.581234 0.291832 -0.044815
C19   C     C_3   0.808579 0.697808 0.358760 0.371563
C20   C     C_3   0.866934 0.689659 0.299835 -0.451566
C21   C     C_R   0.158760 0.946939 0.234818 0.109449
C22   C     C_R   0.195890 0.891127 0.203826 -0.168001
C23   C     C_R   0.288854 0.944169 0.236419 -0.320577
C24   C     C_R   0.655876 0.464405 0.753839 -0.104093
C25   C     C_R   0.344588 0.052105 0.286769 0.438332
C26   C     C_R   0.305725 0.107670 0.309972 -0.188023
C27   C     C_R   0.212926 0.053328 0.287048 0.105570
C28   C     C_3   0.150362 0.059419 0.242131 -0.541924
C29   C     C_R   0.859738 0.499652 0.139681 0.849804
C30   C     C_3   0.090421 0.941958 0.184373 -0.238514
C31   C     C_R   0.288015 0.570619 0.230467 -0.072138
C32   C     C_R   0.195236 0.504961 0.200154 -0.073056
C33   C     C_R   0.155381 0.442739 0.231160 -0.320580
C34   C     C_R   0.207724 0.439005 0.283459 0.487150
C35   C     C_R   0.709775 0.460310 0.805623 -0.021317
C36   C     C_R   0.302643 0.505321 0.311100 -0.173778
C37   C     C_R   0.339268 0.573347 0.286089 -0.257928
C38   C     C_3   0.425783 0.649779 0.283446 0.821189
C39   C     C_3   0.364632 0.644904 0.218306 0.286798
C40   C     C_R   0.283747 0.574141 0.836722 0.020901
C41   C     C_R   0.140021 0.500862 0.140513 0.883222
C42   C     C_R   0.196868 0.488087 0.805714 -0.119827
C43   C     C_R   0.168366 0.393748 0.723610 -0.140777
C44   C     C_R   0.222125 0.394950 0.667587 -0.109868
C45   C     C_R   0.303636 0.489735 0.695519 -0.111221
C46   C     C_R   0.798316 0.492983 0.802421 -0.166371
C47   C     C_R   0.335532 0.575083 0.782871 0.084784
C48   C     C_3   0.377102 0.685987 0.820747 -0.480004
C49   C     C_3   0.321414 0.685687 0.882780 0.308261
C50   C     C_R   0.640598 0.500851 0.360473 0.855053
C51   C     C_R   0.359664 0.498290 0.639806 0.819134
C52   C     C_R   0.639801 0.780018 0.640072 0.819719
C53   C     C_R   0.859671 0.499621 0.859896 0.874261
C54   C     C_R   0.360177 0.219615 0.360041 0.819405
C55   C     C_R   0.359644 0.501338 0.361706 0.789854
C56   C     C_R   0.638454 0.498375 0.639847 0.990972
C57   C     C_R   0.831133 0.525513 0.746897 -0.144110
C58   C     C_R   0.673306 0.426518 0.860568 0.002470
C59   C     C_R   0.598603 0.424298 0.880178 -0.311059
C60   C     C_R   0.548217 0.434254 0.833692 -0.105080
C61   C     C_2   0.926972 0.575255 0.752328 0.894412
C62   C     C_2   0.822074 0.897111 0.806519 0.916157
C63   C     C_2   0.818712 0.114666 0.000743 0.992265
C64   C     C_3   0.712408 0.751324 0.388868 0.150687
C65   C     C_3   0.706586 0.839024 0.407521 -0.337936
C66   C     C_3   0.695703 0.838890 0.324835 -0.668107
C67   C     C_2   0.855298 0.738840 0.452120 0.866085
C68   C     C_R   0.774346 0.518902 0.689674 0.407452
C69   C     C_2   0.703489 0.382326 0.891551 0.887816
C70   C     C_3   0.464688 0.085275 0.237823 0.103184
C71   C     C_3   0.566687 0.155275 0.268843 -0.317734
C72   C     C_3   0.600834 0.136091 0.189479 -0.979495
C73   C     C_2   0.002374 0.897019 0.200244 0.987209
C74   C     C_3   0.117482 0.271809 0.240879 0.084401
C75   C     C_3   0.047210 0.207369 0.267323 -0.290427
C76   C     C_3   0.984799 0.094179 0.188284 -0.906506
C77   C     C_3   0.466588 0.771923 0.443245 0.053095
C78   C     C_3   0.402851 0.805044 0.460675 -0.368136
C79   C     C_R   0.689218 0.492428 0.695180 -0.186006
C80   C     C_3   0.394823 0.837227 0.553187 -0.911151
C81   C     C_3   0.435266 0.507025 0.184442 0.042797
C82   C     C_3   0.500320 0.485449 0.141759 -0.328902
C83   C     C_3   0.455912 0.370022 0.074583 -0.878981
C84   C     C_2   0.370530 0.743675 0.254103 0.894878
C85   C     C_3   0.441968 0.648909 0.115423 0.137224
C86   C     C_3   0.427935 0.680304 0.056648 -0.373966
C87   C     C_3   0.513695 0.734303 0.038291 -0.864062
C88   C     C_2   0.084114 0.294840 0.696591 0.982148
C89   C     C_2   0.194473 0.297136 0.582735 0.996395
C90   C     C_R   0.772969 0.053476 0.842348 0.098882
C91   C     C_3   0.274206 0.792809 0.939201 0.074905
C92   C     C_3   0.202440 0.806314 0.919753 -0.282531
C93   C     C_3   0.220650 0.907841 0.997562 -0.994161
C94   C     C_2   0.471505 0.436520 0.858976 0.918446
C95   C     C_3   0.435177 0.312244 0.645160 0.083855
C96   C     C_3   0.460091 0.246616 0.572988 -0.444322
C97   C     C_3   0.381455 0.132987 0.515196 -0.824292
C98   C     C_3   0.801878 0.469974 0.557152 0.077763
C99   C     C_3   0.827806 0.501599 0.493323 -0.237512
C100  C     C_3   0.826821 0.418915 0.408489 -0.971499
H1    H     H_    0.899279 0.098967 0.913001 0.186866
H2    H     H_    0.083316 0.395117 0.213717 0.207005
H3    H     H_    0.576467 0.408647 0.928704 0.216283
H4    H     H_    0.450040 0.735229 0.856655 0.217109
H5    H     H_    0.357916 0.696545 0.771079 0.216005
H6    H     H_    0.361663 0.731937 0.954260 0.058452
H7    H     H_    0.773300 0.093777 0.680380 0.180539
H8    H     H_    0.679394 0.905806 0.586824 0.146287
H9    H     H_    0.036761 0.692975 0.760029 0.334554
H10   H     H_    0.748741 0.766771 0.803435 0.326839
H11   H     H_    0.739032 0.136814 0.072628 0.338867
H12   H     H_    0.747638 0.342351 0.154367 0.177078
H13   H     H_    0.721019 0.757526 0.452190 0.140911
H14   H     H_    0.649039 0.676971 0.337187 0.186637
H15   H     H_    0.648470 0.830564 0.430244 0.210294
H16   H     H_    0.767896 0.914233 0.462103 0.217806
H17   H     H_    0.638185 0.762294 0.267593 0.262950
H18   H     H_    0.757279 0.857939 0.306120 0.267298
H19   H     H_    0.683690 0.897712 0.339324 0.239438
H20   H     H_    0.956658 0.860261 0.568260 0.368731
H21   H     H_    0.736423 0.282986 0.860271 0.323167
H22   H     H_    0.437627 0.103121 0.199357 0.125806
H23   H     H_    0.655366 0.345753 0.251018 0.174800
H24   H     H_    0.442523 0.003685 0.193307 0.127784
H25   H     H_    0.589731 0.237168 0.311466 0.236338
H26   H     H_    0.595024 0.140681 0.309414 0.231987
H27   H     H_    0.580896 0.055397 0.147770 0.283370
H28   H     H_    0.674936 0.189120 0.213893 0.267795
H29   H     H_    0.573309 0.150085 0.147772 0.264531
H30   H     H_    0.936583 0.898550 0.288956 0.350598
H31   H     H_    0.164206 0.248453 0.225580 0.136974
H32   H     H_    0.082225 0.254387 0.178951 0.148455
H33   H     H_    0.081175 0.213629 0.322313 0.242676
H34   H     H_    0.877638 0.730473 0.267845 0.246133
H35   H     H_    0.006552 0.237990 0.292099 0.248178
H36   H     H_    0.943955 0.086253 0.136678 0.286322
H37   H     H_    0.939144 0.048347 0.211275 0.283648
H38   H     H_    0.023585 0.062784 0.157900 0.259762
H39   H     H_    0.531864 0.836737 0.497633 0.165271
H40   H     H_    0.443267 0.707380 0.448774 0.162899
H41   H     H_    0.428137 0.871079 0.455849 0.255871
H42   H     H_    0.335326 0.740277 0.410124 0.238104
H43   H     H_    0.368457 0.771823 0.559092 0.262117
H44   H     H_    0.348078 0.860478 0.563817 0.276681
H45   H     H_    0.928707 0.702144 0.329098 0.156775
H46   H     H_    0.461102 0.903687 0.605733 0.268236
H47   H     H_    0.375805 0.471842 0.130975 0.192418
H48   H     H_    0.413884 0.469175 0.219468 0.151792
H49   H     H_    0.525541 0.524112 0.107383 0.239659
H50   H     H_    0.558480 0.517049 0.194579 0.225812
H51   H     H_    0.432895 0.330283 0.108296 0.238819
H52   H     H_    0.504853 0.357371 0.044732 0.277086
H53   H     H_    0.397871 0.336262 0.020260 0.293651
H54   H     H_    0.446202 0.892297 0.295598 0.341159
H55   H     H_    0.462403 0.596128 0.079910 0.179943
H56   H     H_    0.318939 0.902242 0.218951 0.193964
H57   H     H_    0.498350 0.718032 0.178714 0.180997
H58   H     H_    0.374078 0.610374 0.992202 0.233299
H59   H     H_    0.406932 0.732987 0.090176 0.236238
H60   H     H_    0.568388 0.804756 0.101984 0.273819
H61   H     H_    0.502550 0.757344 0.996265 0.265207
H62   H     H_    0.534300 0.681634 0.002368 0.284880
H63   H     H_    0.969034 0.162106 0.599662 0.350485
H64   H     H_    0.134916 0.201896 0.449163 0.345865
H65   H     H_    0.340821 0.859076 0.952607 0.144046
H66   H     H_    0.273312 0.791827 0.999528 0.138894
H67   H     H_    0.122388 0.096811 0.289183 0.231844
H68   H     H_    0.200925 0.805307 0.858661 0.233250
H69   H     H_    0.135995 0.741223 0.907702 0.228841
H70   H     H_    0.222702 0.910769 0.059472 0.255383
H71   H     H_    0.166553 0.914493 0.982136 0.283692
H72   H     H_    0.285482 0.974191 0.008925 0.265538
H73   H     H_    0.381766 0.467319 0.849278 0.337866
H74   H     H_    0.379204 0.304789 0.611330 0.198709
H75   H     H_    0.409215 0.280959 0.685124 0.154625
H76   H     H_    0.479797 0.273794 0.529610 0.259517
H77   H     H_    0.517370 0.254037 0.604505 0.223709
H78   H     H_    0.179557 0.092032 0.203795 0.187061
H79   H     H_    0.361397 0.103117 0.556807 0.263258
H80   H     H_    0.401206 0.087470 0.463481 0.280848
H81   H     H_    0.323487 0.122830 0.481456 0.267574
H82   H     H_    0.733182 0.397011 0.522616 0.145568
H83   H     H_    0.849468 0.455620 0.574074 0.150918
H84   H     H_    0.780027 0.514790 0.474992 0.264889
H85   H     H_    0.895909 0.574872 0.527254 0.252449
H86   H     H_    0.875923 0.406299 0.425021 0.278563
H87   H     H_    0.844963 0.443987 0.363383 0.281115
H88   H     H_    0.759126 0.345320 0.373159 0.262354
H89   H     H_    0.084497 0.906664 0.112580 0.153820
H90   H     H_    0.817548 0.940002 0.982361 0.303601
O1    O     O_3   0.000000 0.500000 0.000000 -0.516015
O2    O     O_R   0.323450 0.268330 0.384170 -0.643866
O3    O     O_R   0.444860 0.560620 0.384150 -0.660264
O4    O     O_R   0.055050 0.731580 0.115780 -0.641954
O5    O     O_R   0.615780 0.439200 0.555040 -0.674473
O6    O     O_R   0.323420 0.439190 0.384160 -0.589375
O7    O     O_R   0.615760 0.560630 0.676470 -0.590594
O8    O     O_R   0.615740 0.731500 0.676460 -0.627555
O9    O     O_R   0.444900 0.268330 0.384170 -0.615824
O10   O     O_R   0.615750 0.560630 0.384150 -0.679017
O11   O     O_R   0.323430 0.439200 0.555040 -0.622948
O12   O     O_R   0.055090 0.439280 0.823480 -0.605422
O13   O     O_R   0.884220 0.268410 0.823490 -0.622421
O14   O     O_R   0.176520 0.560720 0.944920 -0.663535
O15   O     O_R   0.884200 0.439290 0.115800 -0.651562
O16   O     O_R   0.176530 0.560720 0.115800 -0.594305
O17   O     O_R   0.884180 0.560710 0.944910 -0.630670
O18   O     O_R   0.055100 0.439290 0.115810 -0.650763
O19   O     O_R   0.884190 0.439280 0.823480 -0.573407
O20   O     O_2   0.964592 0.534459 0.747722 -0.624992
O21   O     O_R   0.973109 0.667809 0.759444 -0.733474
O22   O     O_2   0.881539 0.941606 0.783136 -0.548435
O23   O     O_R   0.884180 0.560710 0.115790 -0.606540
O24   O     O_R   0.802668 0.804543 0.789064 -0.727491
O25   O     O_2   0.884445 0.174966 0.067758 -0.647550
O26   O     O_R   0.735959 0.096114 0.008265 -0.777886
O27   O     O_3   0.784790 0.760031 0.357679 -0.622913
O28   O     O_2   0.827140 0.684775 0.479638 -0.674072
O29   O     O_R   0.931111 0.840561 0.507296 -0.740864
O30   O     O_2   0.710125 0.404894 0.967436 -0.640980
O31   O     O_R   0.718353 0.309387 0.831958 -0.808057
O32   O     O_3   0.436536 0.102742 0.313316 -0.617682
O33   O     O_2   0.933089 0.828478 0.136495 -0.605043
O34   O     O_R   0.176500 0.731590 0.115790 -0.640390
O35   O     O_R   0.999807 0.933597 0.287311 -0.786933
O36   O     O_3   0.165944 0.377290 0.313362 -0.600603
O37   O     O_3   0.482306 0.753473 0.361922 -0.654916
O38   O     O_3   0.480030 0.615307 0.245403 -0.657512
O39   O     O_2   0.306605 0.747108 0.268353 -0.646962
O40   O     O_R   0.450264 0.831722 0.272119 -0.815763
O41   O     O_3   0.360357 0.593942 0.127511 -0.661136
O42   O     O_2   0.068089 0.273055 0.750406 -0.624168
O43   O     O_R   0.023504 0.226568 0.609723 -0.762024
O44   O     O_2   0.207058 0.238231 0.583898 -0.642037
O45   O     O_R   0.884220 0.268420 0.944930 -0.641418
O46   O     O_R   0.151496 0.271121 0.502195 -0.738534
O47   O     O_3   0.255644 0.699215 0.864798 -0.606877
O48   O     O_2   0.442950 0.412198 0.909203 -0.658804
O49   O     O_R   0.432960 0.468763 0.827067 -0.763495
O50   O     O_3   0.507103 0.418496 0.698778 -0.627191
O51   O     O_3   0.805609 0.550427 0.634735 -0.589197
O52   O     O_2   0.630564 0.845954 0.866307 -0.557394
O53   O     O_R   0.750068 0.900161 0.965066 -0.762505
O54   O     O_3   0.499960 0.499910 0.499960 -0.499666
O55   O     O_R   0.615770 0.439200 0.384160 -0.659396
O56   O     O_R   0.444870 0.560630 0.676470 -0.590618
O57   O     O_R   0.615730 0.731500 0.555020 -0.674440
Zn1   Zn    Zn3+2 0.956630 0.413250 0.869870 1.063235
Zn2   Zn    Zn3+2 0.130130 0.586750 0.043370 1.005194
Zn3   Zn    Zn3+2 0.956630 0.413250 0.043380 1.005819
Zn4   Zn    Zn3+2 0.956610 0.586750 0.043370 1.031735
Zn5   Zn    Zn3+2 0.543330 0.586660 0.630080 1.062423
Zn6   Zn    Zn3+2 0.543320 0.586660 0.456570 0.945452
Zn7   Zn    Zn3+2 0.369830 0.413160 0.456580 0.997885
Zn8   Zn    Zn3+2 0.543350 0.413170 0.456590 0.972274

loop_
_geom_bond_atom_site_label_1
_geom_bond_atom_site_label_2
_ccdc_geom_bond_type
C40   C47   A    
C59   C60   A    
C93   H72   S    
C81   O38   S    
C74   H32   S    
C12   C29   S    
H64   O46   S    
C69   O30   D    
C62   O24   S    
C91   H66   S    
C100  H86   S    
C95   C96   S    
C85   O41   S    
C77   H40   S    
C75   C76   S    
C49   H6    S    
C81   C82   S    
C76   H36   S    
C72   H29   S    
C11   C18   A    
C13   C60   A    
O56   Zn5   S    
C77   C78   S    
C65   C66   S    
C14   H12   S    
C88   O43   S    
O55   Zn8   S    
C26   C27   A    
C56   C79   S    
C15   H23   S    
C64   O27   S    
C72   H28   S    
C1    O34   A    
C3    C9    S    
C43   C88   S    
C89   O46   S    
C36   C37   A    
H10   O24   S    
C95   H74   S    
C16   C50   S    
C39   C84   S    
C83   H52   S    
O5    Zn8   S    
C78   H42   S    
C61   O21   S    
C38   C39   S    
C98   C99   S    
C75   H35   S    
C97   H79   S    
C45   C51   S    
C15   C16   A    
C48   H4    S    
O6    Zn7   S    
C98   H83   S    
O1    Zn3   S    
C29   O15   A    
C87   H60   S    
C18   C19   S    
C85   H55   S    
C30   H89   S    
C41   O16   A    
C2    C90   A    
O16   Zn2   S    
C95   H75   S    
C17   C42   S    
C98   O51   S    
O15   Zn3   S    
C28   H67   S    
C53   O17   A    
C94   O48   D    
O13   Zn1   S    
C10   C63   S    
H30   O35   S    
C8    C9    S    
C81   H47   S    
O54   Zn8   S    
O1    Zn4   S    
C32   C41   S    
C71   H26   S    
C19   C67   S    
C70   C71   S    
C19   O27   S    
C62   O22   D    
C96   H77   S    
C50   O55   A    
C84   O40   S    
C9    C10   S    
C68   O51   S    
C74   O36   S    
C69   O31   S    
O10   Zn6   S    
C95   O50   S    
C81   H48   S    
C68   C79   A    
C40   C42   A    
C55   O6    A    
C21   C27   A    
C5    O45   A    
H90   O53   S    
C48   H5    S    
O54   Zn7   S    
C21   C22   A    
H54   O40   S    
O1    Zn1   S    
C65   H15   S    
C85   H57   S    
C26   C54   S    
C91   H65   S    
C13   O50   S    
C83   H51   S    
C45   C47   A    
C93   H70   S    
C4    H7    S    
C11   C20   S    
C10   H1    S    
C24   C35   A    
C64   H14   S    
C74   C75   S    
C73   O33   D    
C72   H27   S    
C33   H2    S    
C47   C48   S    
C7    C8    A    
C100  H87   S    
C23   H56   S    
H11   O26   S    
C4    C6    A    
C78   H41   S    
C91   C92   S    
C30   C73   S    
C50   O10   A    
C86   C87   S    
C97   H80   S    
C3    O53   S    
O7    Zn5   S    
C80   H44   S    
C25   C26   A    
C76   H37   S    
C66   H17   S    
C54   O9    A    
C31   C37   A    
C13   C24   A    
C3    O52   D    
O3    Zn6   S    
C89   O44   D    
C98   H82   S    
C17   O14   A    
C2    C4    A    
C43   C44   A    
C39   O41   S    
C37   C38   S    
H63   O43   S    
C70   H24   S    
C56   O5    A    
C70   H22   S    
C24   C79   A    
C29   O23   A    
C31   C32   A    
C92   H69   S    
C80   H43   S    
C96   C97   S    
C91   O47   S    
C75   H33   S    
C33   C34   A    
C78   C80   S    
C25   O32   S    
C20   H45   S    
C16   C18   A    
O18   Zn3   S    
C57   C61   S    
C84   O39   D    
C86   H58   S    
O19   Zn1   S    
C99   H84   S    
C82   H50   S    
C54   O2    A    
O34   Zn2   S    
O14   Zn2   S    
O57   Zn6   S    
C49   O47   S    
C48   C49   S    
C55   O3    A    
C12   C14   A    
C77   O37   S    
O2    Zn7   S    
O54   Zn6   S    
C35   C58   A    
C46   C57   A    
O54   Zn5   S    
C51   O56   A    
C63   O26   S    
C65   H16   S    
C2    C5    S    
C8    C90   A    
C42   C43   A    
C57   C68   A    
O1    Zn2   S    
C52   O57   A    
C99   H85   S    
C44   C45   A    
C38   O38   S    
C56   O7    A    
C86   H59   S    
C93   H71   S    
H21   O31   S    
C64   H13   S    
C96   H76   S    
C100  H88   S    
C14   C15   A    
C88   O42   D    
C22   C23   A    
C77   H39   S    
C85   C86   S    
C5    O13   A    
C11   C12   A    
H73   O49   S    
C58   C69   S    
C97   H81   S    
C6    C7    A    
C83   H53   S    
C76   H38   S    
C34   O36   S    
O12   Zn1   S    
C21   C30   S    
C9    C62   S    
C99   C100  S    
C7    C52   S    
C66   H19   S    
C59   H3    S    
C64   C65   S    
C19   C20   S    
C67   O29   S    
C1    O4    A    
C58   C59   A    
C71   C72   S    
C87   H61   S    
C36   C55   S    
H9    O21   S    
C32   C33   A    
C73   O35   S    
O9    Zn8   S    
C40   C49   S    
C28   H78   S    
C41   O18   A    
H20   O29   S    
C46   C53   S    
C28   C30   S    
C92   C93   S    
C70   O32   S    
C31   C39   S    
O23   Zn4   S    
C34   C36   A    
C61   O20   D    
C23   C25   A    
C17   O12   A    
C92   H68   S    
C82   H49   S    
O8    Zn5   S    
C94   O49   S    
C1    C22   S    
C87   H62   S    
C52   O8    A    
C10   C90   S    
C53   O19   A    
C82   C83   S    
C66   H18   S    
C51   O11   A    
C27   C28   S    
C67   O28   D    
C6    H8    S    
O4    Zn4   S    
C71   H25   S    
C80   H46   S    
O45   Zn3   S    
C20   H34   S    
C74   H31   S    
C35   C46   A    
O17   Zn4   S    
C63   O25   D    
C44   C89   S    
O11   Zn7   S    
C38   O37   S    
C60   C94   S    
