data_mof_unit_42256.cif
_audit_creation_date              2012-12-11T15:11:48-0500
_audit_creation_method            fapswitch 2.2
_symmetry_space_group_name_H-M    P1
_symmetry_Int_Tables_number       1
_space_group_crystal_system       triclinic
_cell_length_a                    20.057185
_cell_length_b                    7.130384
_cell_length_c                    13.75318
_cell_angle_alpha                 89.829105
_cell_angle_beta                  103.488885
_cell_angle_gamma                 90.165916
_cell_volume                      1912.64652952

loop_
_atom_site_label
_atom_site_type_symbol
_atom_type_description
_atom_site_fract_x
_atom_site_fract_y
_atom_site_fract_z
_atom_type_partial_charge
O1    O     O_R   0.449830 0.506740 0.599960 -0.536771
O2    O     O_R   0.550170 0.006740 0.400040 -0.538266
O3    O     O_R   0.588980 0.179860 0.596720 -0.546907
O4    O     O_R   0.411020 0.679860 0.403280 -0.547191
C1    C     C_R   0.616390 0.344389 0.618354 0.681170
C2    C     C_R   0.383586 0.844289 0.381738 0.680965
O5    O     O_R   0.452740 0.177340 0.612040 -0.539374
O6    O     O_R   0.547260 0.677340 0.387960 -0.538340
O7    O     O_R   0.412960 0.002070 0.415460 -0.544537
O8    O     O_R   0.587040 0.502070 0.584540 -0.544359
C3    C     C_R   0.436406 0.345396 0.637391 0.709837
C4    C     C_R   0.563547 0.846352 0.362559 0.709240
O9    O     O_3   0.487110 0.337570 0.435490 -0.376740
O10   O     O_3   0.512890 0.837570 0.564510 -0.375813
V1    V     V_3+5 0.502390 0.064650 0.511970 1.410418
V2    V     V_3+5 0.497610 0.564650 0.488030 1.411754
C5    C     C_R   0.605538 0.934426 0.115835 0.399446
C6    C     C_R   0.395446 0.346959 0.888687 0.399765
H1    H     H_    0.688407 0.933316 0.989163 0.135342
H2    H     H_    0.312175 0.399294 0.012184 0.137754
C7    C     C_R   0.602200 0.859098 0.285672 -0.109843
C8    C     C_R   0.397664 0.352157 0.714243 -0.110807
C9    C     C_R   0.931359 0.832556 0.314320 -0.204165
C10   C     C_R   0.068158 0.344017 0.684950 -0.204400
C11   C     C_R   0.895838 0.823161 0.389445 -0.112034
C12   C     C_R   0.103669 0.331099 0.609983 -0.112242
C13   C     C_R   0.824686 0.836959 0.366638 -0.140341
C14   C     C_R   0.175015 0.334051 0.633250 -0.139584
C15   C     C_R   0.786525 0.859676 0.266636 0.044671
C16   C     C_R   0.213359 0.352189 0.733421 0.044695
C17   C     C_R   0.823249 0.872756 0.189468 0.040382
C18   C     C_R   0.176706 0.366186 0.810570 0.040022
C19   C     C_R   0.713217 0.871313 0.241333 0.034876
C20   C     C_R   0.286812 0.353634 0.759205 0.034616
C21   C     C_R   0.677949 0.910223 0.140907 -0.010004
C22   C     C_R   0.322606 0.357714 0.861610 -0.012635
C23   C     C_R   0.714846 0.917038 0.066789 -0.241616
C24   C     C_R   0.285631 0.379850 0.934840 -0.232695
C25   C     C_R   0.786131 0.896801 0.089333 0.299422
C26   C     C_R   0.213968 0.384283 0.910950 0.297095
C27   C     C_R   0.673436 0.843362 0.312456 -0.208927
C28   C     C_R   0.326207 0.353160 0.686456 -0.207906
C29   C     C_R   0.568599 0.905182 0.188374 -0.145021
C30   C     C_R   0.431983 0.348196 0.814403 -0.143415
C31   C     C_R   0.896280 0.857814 0.214852 -0.076186
C32   C     C_R   0.103491 0.360600 0.784809 -0.074753
H3    H     H_    0.695860 0.808186 0.389352 0.098571
H4    H     H_    0.303320 0.356079 0.607394 0.097308
H5    H     H_    0.986778 0.821267 0.333940 0.096018
H6    H     H_    0.012597 0.339717 0.665041 0.095728
H7    H     H_    0.801393 0.832214 0.429631 0.097238
H8    H     H_    0.198357 0.318521 0.570778 0.097516
H9    H     H_    0.923755 0.805613 0.466407 0.115484
H10   H     H_    0.075620 0.316800 0.532908 0.115496
C33   C     C_3   0.227698 0.684174 0.171337 -0.366790
C34   C     C_3   0.772024 0.183903 0.829197 -0.368333
H11   H     H_    0.197668 0.558329 0.182315 0.203912
H12   H     H_    0.801771 0.058198 0.818085 0.205381
C35   C     C_3   0.298959 0.674018 0.244416 -0.328154
C36   C     C_3   0.700604 0.174332 0.756429 -0.326539
H13   H     H_    0.339221 0.659691 0.201258 0.149474
H14   H     H_    0.660423 0.160879 0.799867 0.142203
H15   H     H_    0.301166 0.545996 0.291597 0.161097
H16   H     H_    0.697892 0.046003 0.709740 0.162802
H17   H     H_    0.156679 0.726213 0.314269 0.153271
H18   H     H_    0.843225 0.226628 0.686245 0.153646
C37   C     C_3   0.183329 0.856959 0.299910 -0.404507
C38   C     C_3   0.816637 0.357092 0.700291 -0.404069
C39   C     C_3   0.233027 0.035959 0.171439 0.663529
C40   C     C_3   0.767154 0.535700 0.828449 0.666497
C41   C     C_3   0.188090 0.861929 0.188606 0.033857
C42   C     C_3   0.811864 0.361795 0.811575 0.031580
C43   C     C_3   0.312826 0.851435 0.311595 0.030530
C44   C     C_3   0.687137 0.351539 0.688558 0.027814
C45   C     C_3   0.256057 0.863097 0.371297 -0.347478
C46   C     C_3   0.743941 0.362706 0.628856 -0.347504
C47   C     C_3   0.306216 0.024664 0.241967 -0.319840
C48   C     C_3   0.694087 0.525022 0.757525 -0.317102
H19   H     H_    0.345925 0.016165 0.197422 0.145053
H20   H     H_    0.654161 0.517337 0.801763 0.151973
H21   H     H_    0.317898 0.155072 0.287084 0.119612
H22   H     H_    0.682953 0.655267 0.711867 0.119349
H23   H     H_    0.151754 0.974977 0.316688 0.136584
H24   H     H_    0.848283 0.475420 0.683245 0.135886
H25   H     H_    0.262081 0.995028 0.415554 0.134621
H26   H     H_    0.738116 0.494289 0.583971 0.133747
O11   O     O_R   0.912980 0.203550 0.915410 -0.530376
O12   O     O_R   0.087020 0.703550 0.084590 -0.530120
O13   O     O_R   0.047270 0.535570 0.887960 -0.533947
O14   O     O_R   0.952730 0.035570 0.112040 -0.535554
C49   C     C_R   0.062172 0.368118 0.860111 0.781375
C50   C     C_R   0.937706 0.867448 0.139722 0.781809
O15   O     O_R   0.911030 0.532970 0.903270 -0.523216
O16   O     O_R   0.088970 0.032970 0.096730 -0.523968
O17   O     O_R   0.949820 0.708150 0.099970 -0.539291
O18   O     O_R   0.050180 0.208150 0.900030 -0.540394
C51   C     C_R   0.883763 0.365243 0.881551 0.640789
C52   C     C_R   0.116203 0.865323 0.118548 0.641478
O19   O     O_3   0.012900 0.375230 0.064480 -0.372369
O20   O     O_3   0.987100 0.875230 0.935520 -0.371735
V3    V     V_3+5 0.997610 0.648190 0.988040 1.505663
V4    V     V_3+5 0.002390 0.148190 0.011960 1.502443
H27   H     H_    0.513408 0.923311 0.169252 0.127977
H28   H     H_    0.487525 0.342264 0.834983 0.128688
H29   H     H_    0.234489 0.685880 0.093526 0.186295
H30   H     H_    0.765525 0.184811 0.907155 0.180347
H31   H     H_    0.261470 0.744394 0.425276 0.146991
H32   H     H_    0.738375 0.243576 0.575446 0.147755
O21   O     O_3   0.201347 0.205029 0.188636 -0.662748
H33   H     H_    0.204760 0.219089 0.261335 0.254729
O22   O     O_3   0.799210 0.705013 0.811469 -0.660940
H34   H     H_    0.796257 0.719357 0.738859 0.254314
O23   O     O_3   0.241425 0.036205 0.072475 -0.660651
H35   H     H_    0.195700 0.049551 0.026384 0.303423
O24   O     O_3   0.758421 0.535087 0.927268 -0.655826
H36   H     H_    0.804108 0.546750 0.973676 0.305055
O25   O     O_3   0.568953 0.987498 0.022019 -0.631471
H37   H     H_    0.596534 0.080495 0.994717 0.285833
O26   O     O_3   0.432856 0.334374 0.986311 -0.632606
H38   H     H_    0.407197 0.254280 0.023969 0.291762
O27   O     O_3   0.819903 0.900084 0.013071 -0.646523
H39   H     H_    0.785774 0.886620 0.949260 0.326136
O28   O     O_3   0.179923 0.406519 0.986104 -0.647632
H40   H     H_    0.212958 0.389539 0.050646 0.324445

loop_
_geom_bond_atom_site_label_1
_geom_bond_atom_site_label_2
_ccdc_geom_bond_type
H18   C38   S    
C37   H23   S    
C9    C31   A    
C33   C35   S    
C40   C48   S    
C39   C47   S    
O22   H34   S    
C20   C28   A    
O2    C4    A    
C2    O7    A    
O12   V3    S    
C30   H28   S    
O28   H40   S    
C9    C11   A    
O5    C3    A    
C39   O23   S    
C44   C46   S    
C33   H29   S    
C21   C23   A    
C10   C12   A    
O18   V4    S    
C48   H20   S    
C9    H5    S    
C13   C15   A    
O16   C52   A    
O24   H36   S    
C15   C19   A    
C36   H14   S    
O6    V2    S    
C36   C44   S    
C1    C44   S    
C39   C41   S    
C31   C50   S    
O14   V4    S    
H1    C23   S    
C49   O18   A    
C7    C29   A    
C39   O21   S    
C45   H25   S    
C8    C30   A    
C17   C25   A    
C34   C42   S    
O1    C3    A    
O13   C49   A    
C35   C43   S    
C37   C41   S    
C5    O25   S    
O5    V1    S    
C46   H32   S    
C24   C26   A    
C43   C45   S    
C12   H10   S    
C12   C14   A    
C13   H7    S    
C42   C51   S    
C47   H19   S    
C10   H6    S    
C41   C52   S    
C35   H13   S    
C16   C20   A    
C38   H24   S    
C45   H31   S    
O4    C2    A    
O15   V3    S    
C32   C49   S    
H17   C37   S    
C4    C7    S    
C50   O17   A    
C34   C36   S    
C38   C42   S    
O4    V2    S    
C5    C29   A    
C6    C30   A    
O11   V4    S    
H2    C24   S    
C48   H22   S    
O14   C50   A    
C47   H21   S    
O6    C4    A    
O20   V4    S    
C27   H3    S    
O1    V2    S    
C28   H4    S    
O2    V1    S    
C34   H30   S    
O27   H39   S    
C7    C27   A    
O19   V3    S    
C33   H11   S    
C17   C31   A    
C11   C13   A    
O9    V2    S    
C37   C45   S    
O15   C51   A    
O3    V1    S    
C2    C43   S    
O23   H35   S    
C26   O28   S    
O13   V3    S    
C18   C32   A    
C11   H9    S    
O3    C1    A    
O26   H38   S    
C40   O24   S    
C38   C46   S    
C3    C8    S    
C35   H15   S    
C25   O27   S    
C36   H16   S    
C19   C27   A    
C22   C24   A    
O7    V1    S    
C10   C32   A    
C1    O8    A    
C15   C17   A    
O8    V2    S    
O21   H33   S    
C16   C18   A    
C14   H8    S    
C8    C28   A    
C14   C16   A    
O20   V3    S    
C19   C21   A    
C34   H12   S    
C20   C22   A    
C18   C26   A    
C29   H27   S    
C40   O22   S    
O12   C52   A    
O19   V4    S    
O16   V4    S    
C23   C25   A    
C44   C48   S    
C46   H26   S    
C43   C47   S    
O10   V1    S    
C40   C42   S    
C5    C21   A    
O25   H37   S    
C6    C22   A    
C6    O26   S    
C33   C41   S    
O17   V3    S    
O11   C51   A    
