data_mof_unit_30173.cif
_audit_creation_date              2012-12-10T17:32:13-0500
_audit_creation_method            fapswitch 2.2
_symmetry_space_group_name_H-M    P1
_symmetry_Int_Tables_number       1
_space_group_crystal_system       triclinic
_cell_length_a                    12.43666
_cell_length_b                    13.218543
_cell_length_c                    15.049004
_cell_angle_alpha                 75.651317
_cell_angle_beta                  101.092814
_cell_angle_gamma                 117.526788
_cell_volume                      2116.72206155

loop_
_atom_site_label
_atom_site_type_symbol
_atom_type_description
_atom_site_fract_x
_atom_site_fract_y
_atom_site_fract_z
_atom_type_partial_charge
C1    C     C_R   0.854992 0.286333 0.508644 0.934850
C2    C     C_R   0.117190 0.543441 0.101892 -0.111930
C3    C     C_R   0.784190 0.431916 0.027535 0.572900
C4    C     C_R   0.783289 0.431378 0.935025 0.553509
C5    C     C_R   0.892528 0.465424 0.897621 -0.091872
C6    C     C_R   0.004103 0.499218 0.953902 -0.027516
C7    C     C_R   0.114295 0.531248 0.916945 -0.037586
C8    C     C_R   0.225152 0.564898 0.974179 0.279495
C9    C     C_R   0.226239 0.574678 0.064530 0.700904
C10   C     C_R   0.892168 0.466938 0.804655 -0.079501
C11   C     C_R   0.000771 0.499964 0.767674 -0.097590
C12   C     C_R   0.999931 0.499875 0.670830 0.819029
C13   C     C_R   0.110955 0.532314 0.823187 -0.177444
C14   C     C_R   0.281280 0.023999 0.368306 0.478756
C15   C     C_R   0.228289 0.837454 0.469103 -0.245895
C16   C     C_R   0.810156 0.080589 0.570672 -0.290115
C17   C     C_R   0.729091 0.962664 0.586393 0.441625
C18   C     C_R   0.607761 0.928233 0.551186 -0.002313
C19   C     C_R   0.565599 0.009763 0.498365 -0.024570
C20   C     C_R   0.653080 0.123535 0.468349 -0.078059
C21   C     C_R   0.440355 0.979843 0.469917 -0.040619
C22   C     C_R   0.406813 0.056270 0.397838 -0.153869
C23   C     C_R   0.145069 0.713769 0.487178 0.783240
C24   C     C_R   0.498960 0.159164 0.354399 0.332568
C25   C     C_R   0.620800 0.192687 0.390859 0.489997
C26   C     C_R   0.347108 0.877354 0.512866 0.422167
C27   C     C_R   0.195383 0.912225 0.399252 -0.229050
C28   C     C_R   0.772730 0.161928 0.513144 -0.080051
C29   C     C_R   0.326641 0.306727 0.635278 -0.169244
C30   C     C_R   0.759841 0.643857 0.371538 0.597604
C31   C     C_R   0.656331 0.661281 0.333410 0.196143
C32   C     C_R   0.549394 0.597749 0.377416 0.694361
C33   C     C_R   0.546402 0.523776 0.463863 -0.300003
C34   C     C_R   0.002322 0.503711 0.328738 0.823060
C35   C     C_R   0.649237 0.498909 0.494505 -0.109683
C36   C     C_R   0.441998 0.466836 0.517258 -0.053867
C37   C     C_R   0.431466 0.370418 0.587644 -0.148059
C38   C     C_R   0.527342 0.340502 0.612363 0.555036
C39   C     C_R   0.635331 0.405933 0.571048 0.568990
C40   C     C_R   0.349292 0.503982 0.506532 0.662599
C41   C     C_R   0.233588 0.340842 0.615309 -0.009921
C42   C     C_R   0.117542 0.553665 0.192725 0.439680
C43   C     C_R   0.005833 0.510082 0.230905 -0.208661
C44   C     C_R   0.895892 0.470493 0.175664 -0.095353
C45   C     C_R   0.894584 0.468432 0.083422 -0.093204
C46   C     C_R   0.005303 0.502736 0.046679 -0.162973
Cu1   Cu    Cu3+1 0.098270 0.475420 0.521130 0.989487
Cu2   Cu    Cu3+1 0.901730 0.524580 0.478870 1.090971
H1    H     H_    0.902135 0.108718 0.603755 0.151492
H2    H     H_    0.549236 0.836175 0.562379 0.221785
H3    H     H_    0.151366 0.290543 0.650293 0.151477
H4    H     H_    0.316369 0.230911 0.687832 0.220170
H5    H     H_    0.810984 0.440730 0.204969 0.254504
H6    H     H_    0.807345 0.441798 0.761065 0.243374
H7    H     H_    0.193821 0.561983 0.791265 0.167145
H8    H     H_    0.102272 0.884038 0.368504 0.236713
N1    N     N_R   0.246280 0.438190 0.553160 -0.242375
N2    N     N_R   0.754320 0.561190 0.447410 -0.224084
O1    O     O_R   0.972510 0.318130 0.526570 -0.614809
O2    O     O_R   0.806530 0.359650 0.490890 -0.478582
O3    O     O_R   0.082980 0.479210 0.647590 -0.593223
O4    O     O_R   0.917000 0.520730 0.611900 -0.519108
O5    O     O_R   0.193470 0.640350 0.509110 -0.571994
O6    O     O_R   0.027490 0.681870 0.473430 -0.531961
O7    O     O_R   0.083000 0.479270 0.388100 -0.596334
O8    O     O_R   0.917020 0.520790 0.352410 -0.498487
O9    O     O_3   0.226923 0.611271 0.241232 -0.581817
H9    H     H_    0.214200 0.657216 0.277700 0.308394
O10   O     O_3   0.469080 0.222424 0.273916 -0.646233
H10   H     H_    0.541814 0.294438 0.254115 0.399945
O11   O     O_3   0.239054 0.097590 0.308099 -0.640271
H11   H     H_    0.282284 0.173948 0.327910 0.360018
O12   O     O_3   0.371728 0.821483 0.599469 -0.706140
H12   H     H_    0.294834 0.771005 0.628904 0.330248
O13   O     O_3   0.764545 0.879406 0.638116 -0.698589
H13   H     H_    0.852820 0.917471 0.657705 0.332319
F1    F     F_    0.709162 0.285490 0.343438 -0.691766
F2    F     F_    0.519676 0.249770 0.681867 -0.589026
O14   O     O_3   0.370338 0.612975 0.458744 -0.674432
H14   H     H_    0.295588 0.604580 0.418475 0.377920
F3    F     F_    0.863966 0.703394 0.328759 -0.653569
F4    F     F_    0.446091 0.597907 0.328116 -0.530736
O15   O     O_3   0.654388 0.735651 0.251112 -0.586875
H15   H     H_    0.735778 0.774077 0.227612 0.378317
F5    F     F_    0.721154 0.370986 0.610492 -0.631833
F6    F     F_    0.677117 0.398233 0.062136 -0.584891
F7    F     F_    0.675441 0.397600 0.881985 -0.579286
O16   O     O_3   0.334792 0.590465 0.944626 -0.618010
H16   H     H_    0.319691 0.537074 0.902914 0.339926
F8    F     F_    0.334890 0.610051 0.116538 -0.497332

loop_
_geom_bond_atom_site_label_1
_geom_bond_atom_site_label_2
_ccdc_geom_bond_type
C16   C28   A    
C21   C26   A    
O12   H12   S    
C19   C20   A    
C43   C44   A    
C34   O8    A    
C7    C8    A    
C4    F7    S    
C45   C46   A    
C2    C46   A    
C35   N2    A    
C25   F1    S    
C5    C6    A    
C36   C37   A    
C19   C21   A    
C1    O1    A    
Cu1   O5    S    
C38   C39   A    
Cu2   O6    S    
C20   C25   A    
C33   C36   A    
C31   O15   S    
C18   C19   A    
C14   O11   S    
C15   C27   A    
C44   H5    S    
C31   C32   A    
C8    C9    A    
C1    C28   S    
C14   C27   A    
C15   C23   S    
C21   C22   A    
C3    F6    S    
C34   O7    A    
C24   O10   S    
Cu2   O2    S    
O9    H9    S    
Cu1   Cu2   S    
C36   C40   A    
C24   C25   A    
C1    O2    A    
C27   H8    S    
C16   C17   A    
C15   C26   A    
C20   C28   A    
C26   O12   S    
C3    C45   A    
C8    O16   S    
C35   C39   A    
O13   H13   S    
C37   C38   A    
Cu1   N1    S    
C12   O4    A    
Cu2   O4    S    
O15   H15   S    
C7    C13   A    
C17   C18   A    
C40   O14   S    
C16   H1    S    
C23   O6    A    
C42   O9    S    
C22   C24   A    
C42   C43   A    
C39   F5    S    
C3    C4    A    
C44   C45   A    
C18   H2    S    
C40   N1    A    
C6    C46   A    
C29   C41   A    
C34   C43   S    
C4    C5    A    
C9    F8    S    
Cu1   O3    S    
C11   C12   S    
Cu2   N2    S    
C6    C7    A    
C32   F4    S    
C38   F2    S    
C32   C33   A    
C14   C22   A    
C30   F3    S    
C41   N1    A    
O11   H11   S    
C12   O3    A    
C11   C13   A    
C30   C31   A    
C2    C42   A    
C30   N2    A    
C23   O5    A    
C33   C35   A    
C41   H3    S    
O10   H10   S    
C10   H6    S    
C10   C11   A    
Cu1   O1    S    
O14   H14   S    
C5    C10   A    
O16   H16   S    
C29   C37   A    
C17   O13   S    
Cu2   O8    S    
C2    C9    A    
Cu1   O7    S    
C13   H7    S    
C29   H4    S    
