data_mof_unit_67714.cif
_audit_creation_date              2012-12-10T19:48:33-0500
_audit_creation_method            fapswitch 2.2
_symmetry_space_group_name_H-M    P1
_symmetry_Int_Tables_number       1
_space_group_crystal_system       triclinic
_cell_length_a                    11.574931
_cell_length_b                    10.937529
_cell_length_c                    9.751266
_cell_angle_alpha                 90.412077
_cell_angle_beta                  88.825979
_cell_angle_gamma                 87.559403
_cell_volume                      1233.10249154

loop_
_atom_site_label
_atom_site_type_symbol
_atom_type_description
_atom_site_fract_x
_atom_site_fract_y
_atom_site_fract_z
_atom_type_partial_charge
C1    C     C_R   0.505729 0.259784 0.499292 0.835746
C2    C     C_3   0.417531 0.048144 0.419675 0.516215
C3    C     C_3   0.490557 0.876779 0.496653 -0.183888
C4    C     C_3   0.506706 0.121221 0.497219 -0.224082
C5    C     C_3   0.394220 0.969526 0.546598 0.169189
C6    C     C_3   0.602473 0.027335 0.445830 0.167728
C7    C     C_3   0.576294 0.569186 0.048275 0.592295
C8    C     C_3   0.425639 0.429903 0.952634 0.561918
C9    C     C_3   0.478318 0.608870 0.953002 0.140532
C10   C     C_3   0.523158 0.391411 0.048890 0.091507
C11   C     C_3   0.599301 0.461690 0.946548 -0.214719
C12   C     C_R   0.494681 0.739573 0.499820 0.906447
C13   C     C_3   0.401391 0.537904 0.053892 -0.222007
C14   C     C_R   0.262203 0.500699 0.500354 0.804342
C15   C     C_R   0.736699 0.500846 0.500094 0.874374
C16   C     C_R   0.148166 0.761985 0.103794 0.138586
C17   C     C_R   0.876371 0.255033 0.916968 0.071003
C18   C     C_R   0.131443 0.729365 0.242381 0.358625
C19   C     C_R   0.877781 0.280964 0.774833 0.377698
C20   C     C_R   0.109205 0.607000 0.274497 -0.051550
C21   C     C_R   0.883706 0.403698 0.732309 -0.022158
C22   C     C_R   0.113300 0.515556 0.172583 0.444518
C23   C     C_R   0.870410 0.502427 0.502559 -0.076469
C24   C     C_R   0.871904 0.499986 0.828600 0.398688
C25   C     C_R   0.121124 0.551234 0.035567 -0.353808
C26   C     C_R   0.873737 0.472891 0.967708 -0.310514
C27   C     C_R   0.139373 0.671589 0.001570 0.090702
C28   C     C_R   0.876451 0.352175 0.011786 0.166430
C29   C     C_R   0.934217 0.577592 0.414851 0.080904
C30   C     C_R   0.060910 0.432191 0.592768 0.057961
C31   C     C_3   0.693369 0.737493 0.024703 -0.221715
C32   C     C_3   0.382016 0.233645 0.891541 -0.220023
C33   C     C_3   0.059575 0.900980 0.358316 -0.124213
C34   C     C_R   0.126488 0.501947 0.500025 -0.077634
C35   C     C_3   0.951072 0.110365 0.655544 -0.186233
C36   C     C_3   0.154108 0.307538 0.124282 -0.192455
C37   C     C_3   0.895855 0.695279 0.749710 -0.278202
C38   C     C_3   0.694399 0.961702 0.760367 -0.258893
C39   C     C_3   0.266334 0.191614 0.397554 -0.237785
C40   C     C_R   0.936651 0.434827 0.598647 0.033438
C41   C     C_R   0.058614 0.572799 0.407057 0.072701
C42   C     C_3   0.484232 0.041693 0.625270 -0.390013
C43   C     C_3   0.512447 0.954439 0.366999 -0.250983
C44   C     C_3   0.578884 0.949129 0.572519 0.498989
Cu1   Cu    Cu3+1 0.500030 0.499990 0.643150 1.075450
Cu2   Cu    Cu3+1 0.499970 0.500010 0.356850 1.062901
H1    H     H_    0.674410 0.415132 0.896241 0.172519
H2    H     H_    0.332901 0.182333 0.816779 0.229513
H3    H     H_    0.367410 0.187190 0.990574 0.197974
H4    H     H_    0.473763 0.225763 0.856196 0.169306
H5    H     H_    0.006121 0.882598 0.450939 0.182011
H6    H     H_    0.003480 0.909052 0.267178 0.193967
H7    H     H_    0.096585 0.991388 0.372071 0.203573
H8    H     H_    0.919342 0.017964 0.635484 0.192646
H9    H     H_    0.009705 0.100775 0.743664 0.213987
H10   H     H_    0.000278 0.138512 0.563003 0.200171
H11   H     H_    0.141702 0.215555 0.166612 0.219494
H12   H     H_    0.324842 0.577558 0.107269 0.168638
H13   H     H_    0.247860 0.321600 0.117434 0.197796
H14   H     H_    0.112331 0.304267 0.023816 0.201294
H15   H     H_    0.927505 0.743506 0.841142 0.192752
H16   H     H_    0.851345 0.762620 0.683245 0.233247
H17   H     H_    0.966476 0.656167 0.683943 0.187223
H18   H     H_    0.777605 0.925629 0.799055 0.196597
H19   H     H_    0.629814 0.956435 0.845069 0.188987
H20   H     H_    0.703069 0.058867 0.731984 0.231394
H21   H     H_    0.284092 0.204157 0.507649 0.159741
H22   H     H_    0.172728 0.177138 0.390152 0.191474
H23   H     H_    0.117485 0.486073 0.953229 0.229879
H24   H     H_    0.285823 0.277391 0.345302 0.211107
H25   H     H_    0.864620 0.545957 0.042421 0.239201
H26   H     H_    0.477628 0.062585 0.734977 0.185458
H27   H     H_    0.521549 0.920559 0.259580 0.215269
H28   H     H_    0.648956 0.821957 0.066615 0.198255
H29   H     H_    0.675410 0.725946 0.914566 0.219887
H30   H     H_    0.787312 0.751015 0.029856 0.205481
I1    I     I_    0.176275 0.693358 0.794599 -0.289914
I2    I     I_    0.774296 0.049520 0.380906 -0.277177
I3    I     I_    0.857685 0.325126 0.223029 -0.202694
I4    I     I_    0.441397 0.796105 0.900538 -0.287837
I5    I     I_    0.584333 0.212325 0.112654 -0.307620
I6    I     I_    0.185970 0.945514 0.052642 -0.263259
I7    I     I_    0.880740 0.072816 0.993044 -0.373614
I8    I     I_    0.840097 0.717157 0.314667 -0.357619
I9    I     I_    0.147761 0.313256 0.721836 -0.447116
I10   I     I_    0.227522 0.965885 0.635101 -0.345567
N1    N     N_3   0.500090 0.499970 0.858290 -0.230467
N2    N     N_3   0.499910 0.500030 0.141710 -0.233386
O1    O     O_R   0.500060 0.316850 0.620870 -0.584583
O2    O     O_3   0.340693 0.356602 0.899738 -0.566848
O3    O     O_3   0.150709 0.811264 0.347378 -0.547951
O4    O     O_3   0.855386 0.192633 0.677733 -0.579177
O5    O     O_3   0.100643 0.395068 0.213904 -0.581339
O6    O     O_3   0.816842 0.608429 0.789672 -0.572307
O7    O     O_3   0.665493 0.888396 0.648640 -0.569761
O8    O     O_3   0.330407 0.094190 0.332579 -0.547292
O9    O     O_R   0.499940 0.683150 0.379130 -0.563848
O10   O     O_R   0.500000 0.316860 0.379090 -0.548536
O11   O     O_R   0.500000 0.683140 0.620910 -0.525319
O12   O     O_R   0.319670 0.500010 0.620890 -0.495828
O13   O     O_R   0.680330 0.499990 0.379110 -0.506877
O14   O     O_R   0.319620 0.500010 0.379110 -0.615024
O15   O     O_R   0.680380 0.499990 0.620890 -0.556513
O16   O     O_3   0.664272 0.636798 0.106295 -0.542914

loop_
_geom_bond_atom_site_label_1
_geom_bond_atom_site_label_2
_ccdc_geom_bond_type
C43   H27   S    
C5    C42   S    
C8    C13   S    
C39   H22   S    
C11   H1    S    
C36   H13   S    
C20   C41   S    
Cu1   Cu2   S    
C33   H6    S    
C7    C11   S    
Cu2   O14   S    
C10   N2    S    
C18   O3    S    
C23   C29   A    
C19   C21   A    
C24   C26   A    
C33   O3    S    
C14   O14   A    
C23   C40   A    
C28   I3    S    
C9    C13   S    
C12   O11   A    
C3    C12   S    
Cu1   O15   S    
C36   O5    S    
C32   O2    S    
C38   H20   S    
C11   N1    S    
C22   C25   A    
C38   O7    S    
C19   O4    S    
Cu1   O1    S    
C38   H18   S    
C29   C41   A    
C35   O4    S    
C16   C27   A    
C15   C23   S    
Cu2   O10   S    
C6    C44   S    
C35   H8    S    
C26   H25   S    
C32   H2    S    
C34   C41   A    
C42   C44   S    
C42   H26   S    
C37   H17   S    
C37   H16   S    
Cu2   N2    S    
C33   H7    S    
C39   O8    S    
Cu2   O13   S    
C3    C44   S    
C30   C34   A    
C35   H9    S    
C29   I8    S    
C4    C6    S    
C36   H11   S    
Cu1   O11   S    
C31   H28   S    
C13   H12   S    
C27   I1    S    
C33   H5    S    
C17   I7    S    
C9    I4    S    
C2    C4    S    
C24   O6    S    
C31   H29   S    
C7    N2    S    
C38   H19   S    
C2    C43   S    
C3    C43   S    
C16   I6    S    
C30   C40   A    
C15   O13   A    
C30   I9    S    
C32   H4    S    
C12   O9    A    
C5    I10   S    
C16   C18   A    
Cu2   O9    S    
C20   C22   A    
C7    O16   S    
C22   O5    S    
C2    C5    S    
C8    O2    S    
C3    C5    S    
C7    C9    S    
C1    O1    A    
Cu1   N1    S    
C35   H10   S    
C17   C28   A    
C39   H21   S    
C36   H14   S    
Cu1   O12   S    
C1    O10   A    
C14   C34   S    
C37   H15   S    
C14   O12   A    
C25   C27   A    
C10   I5    S    
C26   C28   A    
C6    C43   S    
C1    C4    S    
C31   O16   S    
C8    N1    S    
C2    O8    S    
C44   O7    S    
C9    N1    S    
C31   H30   S    
C21   C40   S    
C4    C42   S    
C13   N2    S    
C17   C19   A    
C39   H24   S    
C37   O6    S    
C18   C20   A    
C32   H3    S    
C6    I2    S    
C10   C11   S    
C25   H23   S    
C8    C10   S    
C21   C24   A    
C15   O15   A    
