data_mof_unit_18299.cif
_audit_creation_date              2012-12-11T16:50:58-0500
_audit_creation_method            fapswitch 2.2
_symmetry_space_group_name_H-M    P1
_symmetry_Int_Tables_number       1
_space_group_crystal_system       triclinic
_cell_length_a                    6.929495
_cell_length_b                    28.805092
_cell_length_c                    32.121204
_cell_angle_alpha                 100.877452
_cell_angle_beta                  89.627309
_cell_angle_gamma                 90.372439
_cell_volume                      6296.12475881

loop_
_atom_site_label
_atom_site_type_symbol
_atom_type_description
_atom_site_fract_x
_atom_site_fract_y
_atom_site_fract_z
_atom_type_partial_charge
O1    O     O_R   0.494350 0.453170 0.452520 -0.535486
O2    O     O_R   0.820980 0.455850 0.538220 -0.540473
O3    O     O_R   0.994300 0.546830 0.547480 -0.539073
C1    C     C_R   0.651615 0.445736 0.551633 0.715462
O4    O     O_R   0.823860 0.447590 0.452270 -0.538470
O5    O     O_R   0.997200 0.538510 0.460920 -0.537785
C2    C     C_R   0.655160 0.434991 0.436711 0.688658
O6    O     O_R   0.491440 0.461490 0.539080 -0.536979
O7    O     O_3   0.661790 0.529840 0.502940 -0.369710
V1    V     V_3+5 0.935470 0.494460 0.499450 1.413908
O8    O     O_R   0.327090 0.544150 0.461780 -0.541477
C3    C     C_R   0.158917 0.554281 0.448335 0.706498
O9    O     O_R   0.324210 0.552410 0.547730 -0.543074
C4    C     C_R   0.155088 0.565126 0.563512 0.705580
V2    V     V_3+5 0.435840 0.505540 0.500550 1.408085
O10   O     O_3   0.159650 0.470160 0.497060 -0.363722
C5    C     C_R   0.189235 0.898000 0.867957 -0.236298
H1    H     H_    0.290040 0.927372 0.871752 0.131225
C6    C     C_R   0.204454 0.862337 0.831891 -0.146306
H2    H     H_    0.316760 0.864773 0.808776 0.126811
C7    C     C_R   0.073902 0.824311 0.825300 0.052535
C8    C     C_R   0.929606 0.822142 0.855746 -0.202597
H3    H     H_    0.829904 0.792495 0.851338 0.117616
C9    C     C_R   0.914595 0.857508 0.892418 0.276334
C10   C     C_R   0.045346 0.896135 0.898696 -0.082375
C11   C     C_R   0.926591 0.775735 0.760221 -0.166641
C12   C     C_R   0.938119 0.740434 0.723805 -0.100446
H4    H     H_    0.813251 0.733855 0.703432 0.134997
C13   C     C_R   0.108618 0.714201 0.713754 0.096473
C14   C     C_R   0.270017 0.725841 0.740230 -0.177479
H5    H     H_    0.403469 0.706401 0.733642 0.127730
C15   C     C_R   0.259963 0.762114 0.776035 -0.151611
H6    H     H_    0.385797 0.770121 0.796005 0.109709
C16   C     C_R   0.087290 0.786922 0.786662 0.098502
C17   C     C_R   0.285427 0.669922 0.650035 -0.206098
H7    H     H_    0.405757 0.694184 0.657467 0.130325
C18   C     C_R   0.298539 0.634196 0.613933 -0.173937
H8    H     H_    0.429166 0.631525 0.594951 0.132743
C19   C     C_R   0.143585 0.603004 0.601989 -0.084084
C20   C     C_R   0.976800 0.607720 0.627530 -0.220159
H9    H     H_    0.857215 0.583334 0.619384 0.123925
C21   C     C_R   0.964200 0.642448 0.664658 0.306842
C22   C     C_R   0.118766 0.674938 0.675835 0.062291
C23   C     C_R   0.969347 0.671755 0.297455 0.579161
N1    N     N_R   0.122287 0.676154 0.325057 -0.554074
C24   C     C_R   0.265232 0.709088 0.323211 0.576744
C25   C     C_R   0.258783 0.738515 0.292806 -0.030586
C26   C     C_R   0.101335 0.734737 0.264876 -0.021339
C27   C     C_R   0.954608 0.701326 0.267310 -0.024206
C28   C     C_R   0.405276 0.771797 0.289875 -0.148054
C29   C     C_R   0.394670 0.801090 0.259867 -0.144255
C30   C     C_R   0.237265 0.797871 0.232013 -0.025105
C31   C     C_R   0.090565 0.764451 0.234439 -0.021351
C32   C     C_R   0.933106 0.760678 0.206513 -0.029864
C33   C     C_R   0.786643 0.727385 0.209434 -0.149225
C34   C     C_R   0.797238 0.698096 0.239446 -0.145555
C35   C     C_R   0.222418 0.827480 0.201902 0.581053
N2    N     N_R   0.069406 0.823106 0.174319 -0.554019
C36   C     C_R   0.926566 0.790137 0.176134 0.575367
O11   O     O_2   0.832752 0.638434 0.298666 -0.533162
O12   O     O_2   0.412185 0.713958 0.351076 -0.527362
H10   H     H_    0.528926 0.775299 0.310713 0.170890
H11   H     H_    0.510515 0.826207 0.258552 0.168583
O13   O     O_2   0.358949 0.860821 0.200715 -0.531699
O14   O     O_2   0.779600 0.785275 0.148273 -0.528302
H12   H     H_    0.662994 0.723884 0.188597 0.170326
H13   H     H_    0.681385 0.672981 0.240764 0.167894
C37   C     C_R   0.893153 0.880611 0.140032 -0.087257
H14   H     H_    0.772044 0.879350 0.161270 0.164611
C38   C     C_R   0.882927 0.909827 0.109842 -0.204682
H15   H     H_    0.753440 0.930296 0.108336 0.134326
C39   C     C_R   0.040069 0.913525 0.082701 -0.056133
C40   C     C_R   0.206227 0.886664 0.085924 -0.209064
H16   H     H_    0.329193 0.888490 0.065290 0.136700
C41   C     C_R   0.214491 0.856559 0.115381 -0.088578
H17   H     H_    0.342797 0.835622 0.116653 0.156524
C42   C     C_R   0.058814 0.853475 0.143087 0.354484
C43   C     C_R   0.298030 0.618742 0.359554 -0.088583
H18   H     H_    0.419186 0.619859 0.338299 0.163577
C44   C     C_R   0.308037 0.589706 0.389895 -0.208989
H19   H     H_    0.437373 0.569205 0.391482 0.131447
C45   C     C_R   0.150879 0.586231 0.417094 -0.056494
C46   C     C_R   0.984817 0.613068 0.413721 -0.208598
H20   H     H_    0.861775 0.611375 0.434362 0.136376
C47   C     C_R   0.976765 0.642990 0.384107 -0.087747
H21   H     H_    0.848568 0.663936 0.382736 0.157051
C48   C     C_R   0.132548 0.645900 0.356386 0.354936
C49   C     C_R   0.635639 0.222749 0.837247 0.571989
N3    N     N_R   0.576257 0.176636 0.825187 -0.558707
C50   C     C_R   0.523731 0.159086 0.784058 0.570334
C51   C     C_R   0.529923 0.188126 0.753296 -0.027759
C52   C     C_R   0.590150 0.235530 0.765278 -0.015620
C53   C     C_R   0.643396 0.253119 0.807584 -0.028355
C54   C     C_R   0.477876 0.170908 0.710920 -0.138524
C55   C     C_R   0.486248 0.200275 0.680878 -0.148229
C56   C     C_R   0.546203 0.247666 0.692468 -0.037500
C57   C     C_R   0.597377 0.265397 0.734872 -0.014539
C58   C     C_R   0.656199 0.312895 0.746922 -0.027151
C59   C     C_R   0.708327 0.330113 0.789290 -0.145442
C60   C     C_R   0.702372 0.300583 0.819214 -0.143042
C61   C     C_R   0.556827 0.277822 0.662673 0.597026
N4    N     N_R   0.614375 0.324078 0.674813 -0.544134
C62   C     C_R   0.662573 0.341918 0.716161 0.550013
O15   O     O_2   0.685322 0.239353 0.877893 -0.521493
O16   O     O_2   0.467112 0.113567 0.772826 -0.522708
H22   H     H_    0.430915 0.134625 0.700774 0.170663
O17   O     O_2   0.509712 0.261013 0.621910 -0.527712
O18   O     O_2   0.719399 0.387423 0.727391 -0.528634
H23   H     H_    0.754478 0.366454 0.799472 0.169442
C63   C     C_R   0.496650 0.392126 0.645823 -0.178076
H24   H     H_    0.389694 0.398651 0.670944 0.144963
C64   C     C_R   0.502136 0.421119 0.615417 -0.204499
C65   C     C_R   0.641107 0.413883 0.582867 -0.079328
C66   C     C_R   0.772069 0.376453 0.580789 -0.270804
H25   H     H_    0.879308 0.370249 0.555676 0.129703
C67   C     C_R   0.764617 0.346431 0.610664 0.332234
C68   C     C_R   0.625944 0.354398 0.643661 0.354849
C69   C     C_R   0.736934 0.132361 0.874103 -0.086970
H26   H     H_    0.875930 0.144407 0.864638 0.118354
C70   C     C_R   0.728161 0.102601 0.903949 -0.199046
H27   H     H_    0.861624 0.092414 0.917000 0.129509
C71   C     C_R   0.549225 0.086301 0.916757 -0.058339
C72   C     C_R   0.379618 0.100589 0.898836 -0.198026
H28   H     H_    0.239373 0.088723 0.907742 0.127986
C73   C     C_R   0.388811 0.130129 0.868870 -0.086283
C74   C     C_R   0.567378 0.146255 0.856246 0.380638
C75   C     C_R   0.716938 0.128552 0.112953 -0.160627
H29   H     H_    0.845731 0.120731 0.093682 0.124593
C76   C     C_R   0.724905 0.164470 0.149027 -0.135574
H30   H     H_    0.859290 0.183625 0.156023 0.102804
C77   C     C_R   0.561302 0.175911 0.175189 0.111257
C78   C     C_R   0.389122 0.150467 0.163806 -0.137743
H31   H     H_    0.260980 0.157098 0.183402 0.101787
C79   C     C_R   0.380369 0.115175 0.127329 -0.157120
H32   H     H_    0.245550 0.096320 0.119758 0.120399
C80   C     C_R   0.544321 0.103594 0.101548 -0.054305
C81   C     C_R   0.407625 0.241698 0.228191 -0.155714
H33   H     H_    0.273822 0.235351 0.210876 0.113023
C82   C     C_R   0.413260 0.277297 0.264922 0.318198
C83   C     C_R   0.588270 0.286128 0.288074 -0.001761
C84   C     C_R   0.749206 0.257805 0.274139 -0.191185
C85   C     C_R   0.740751 0.222420 0.237862 -0.150020
C86   C     C_R   0.570367 0.213991 0.214081 0.024242
C87   C     C_R   0.703188 0.316437 0.362813 -0.128488
H34   H     H_    0.759791 0.281774 0.364030 0.116204
C88   C     C_R   0.722827 0.352602 0.398497 -0.160227
H35   H     H_    0.794555 0.345281 0.426401 0.109216
C89   C     C_R   0.644440 0.397394 0.398616 -0.036616
C90   C     C_R   0.552774 0.406069 0.362087 -0.161164
H36   H     H_    0.494067 0.440673 0.361351 0.108064
C91   C     C_R   0.539533 0.370499 0.325928 -0.141106
H37   H     H_    0.474301 0.378789 0.297772 0.129468
C92   C     C_R   0.608795 0.324732 0.326200 0.078004
O19   O     O_R   0.699170 0.038480 0.960880 -0.540179
O20   O     O_R   0.366800 0.052460 0.047690 -0.540792
O21   O     O_R   0.193520 0.961530 0.039110 -0.539606
C93   C     C_R   0.535427 0.065298 0.063386 0.694483
O22   O     O_R   0.369630 0.044100 0.961740 -0.542227
O23   O     O_R   0.196370 0.953120 0.952550 -0.548398
C94   C     C_R   0.538972 0.054273 0.948185 0.702312
O24   O     O_R   0.696320 0.046890 0.047450 -0.539986
O25   O     O_3   0.528890 0.970170 0.997080 -0.364016
V3    V     V_3+5 0.255190 0.005530 0.000540 1.396069
O26   O     O_R   0.866460 0.947530 0.952310 -0.520649
C95   C     C_R   0.035367 0.934467 0.936841 0.727426
O27   O     O_R   0.863630 0.955880 0.038270 -0.536387
C96   C     C_R   0.031859 0.945672 0.051633 0.710562
V4    V     V_3+5 0.754830 0.994440 0.999470 1.423068
O28   O     O_3   0.031000 0.029830 0.002920 -0.370638
N5    N     N_2   0.796864 0.643640 0.690812 -0.552798
H38   H     H_    0.673364 0.631286 0.674518 0.254950
C97   C     C_3   0.822797 0.623102 0.728141 -0.535925
H39   H     H_    0.688817 0.627705 0.747603 0.199590
H40   H     H_    0.942982 0.640815 0.747818 0.212438
H41   H     H_    0.853611 0.584709 0.718820 0.201016
H42   H     H_    0.445538 0.185685 0.648537 0.169661
H43   H     H_    0.743991 0.315118 0.851508 0.170717
H44   H     H_    0.400027 0.449830 0.617815 0.135850
N6    N     N_2   0.892973 0.307496 0.606762 -0.496329
H45   H     H_    0.933987 0.293991 0.575943 0.264845
C98   C     C_3   0.056232 0.315129 0.635028 -0.502917
H46   H     H_    0.136873 0.281597 0.632647 0.230692
H47   H     H_    0.008866 0.326475 0.668436 0.205882
H48   H     H_    0.153326 0.342394 0.625994 0.192756
H49   H     H_    0.256663 0.140600 0.855475 0.119384
N7    N     N_2   0.775606 0.852464 0.924024 -0.528324
H50   H     H_    0.779015 0.819585 0.932321 0.249866
C99   C     C_3   0.582000 0.865306 0.914358 -0.473062
H51   H     H_    0.525889 0.840171 0.886445 0.175143
H52   H     H_    0.580069 0.901770 0.907725 0.204952
H53   H     H_    0.485893 0.864094 0.941932 0.194108
N8    N     N_2   0.238017 0.300538 0.280041 -0.546128
H54   H     H_    0.232576 0.316085 0.311650 0.264665
C100  C     C_3   0.144713 0.327297 0.252020 -0.563008
H55   H     H_    0.015558 0.345310 0.268032 0.207838
H56   H     H_    0.095668 0.303594 0.222637 0.208361
H57   H     H_    0.244713 0.354425 0.243666 0.195200
H58   H     H_    0.883605 0.263225 0.291361 0.165503
H59   H     H_    0.868012 0.201203 0.228901 0.119922
H60   H     H_    0.792725 0.794873 0.767451 0.113980

loop_
_geom_bond_atom_site_label_1
_geom_bond_atom_site_label_2
_ccdc_geom_bond_type
C23   C27   A    
C61   O17   S    
C100  H56   S    
C33   C34   A    
C61   N4    A    
C12   C13   A    
C85   H59   S    
C55   C56   A    
C90   H36   S    
C1    O6    A    
C69   C70   A    
N1    C48   S    
C66   H25   S    
C50   C51   A    
C77   C86   S    
C72   H28   S    
C34   H13   S    
C47   H21   S    
C70   H27   S    
C76   C77   A    
C81   C82   A    
C11   C12   A    
C13   C14   A    
C99   H53   S    
C9    N7    S    
O26   C95   A    
C17   C18   A    
C2    C89   S    
C90   C91   A    
O5    C3    A    
C14   H5    S    
C43   C44   A    
C72   C73   A    
C100  H57   S    
O20   C93   A    
N5    H38   S    
V2    O10   S    
C59   H23   S    
C98   H46   S    
C67   C68   A    
C73   H49   S    
C40   H16   S    
C87   C92   A    
C69   H26   S    
C65   C66   A    
C21   N5    S    
N2    C42   S    
C4    C19   S    
C63   H24   S    
O8    V2    S    
O22   C94   A    
C17   H7    S    
C99   H52   S    
C97   H40   S    
C78   H31   S    
C58   C62   A    
C91   H37   S    
C38   H15   S    
O1    V2    S    
N8    H54   S    
C17   C22   A    
O7    V1    S    
C97   H41   S    
C83   C92   S    
C32   C36   A    
C20   C21   A    
C100  H55   S    
C81   C86   A    
N4    C68   S    
C55   H42   S    
O9    C4    A    
C13   C22   S    
O27   V4    S    
C40   C41   A    
O19   V4    S    
C54   C55   A    
C60   H43   S    
C63   C68   A    
C64   C65   A    
C49   O15   S    
C70   C71   A    
C52   C57   A    
C57   C58   A    
C25   C28   A    
C88   C89   A    
N3    C74   S    
C47   C48   A    
C83   C84   A    
C26   C31   A    
C88   H35   S    
C24   O12   S    
C29   C30   A    
V4    O28   S    
C1    C65   S    
O26   V4    S    
C29   H11   S    
C9    C10   A    
O21   V3    S    
C44   C45   A    
C82   N8    S    
C98   H47   S    
N3    C50   A    
C19   C20   A    
O4    C2    A    
C49   C53   A    
C43   H18   S    
C39   C40   A    
C79   C80   A    
C7    C16   S    
O21   C96   A    
O20   V3    S    
N2    C36   A    
N1    C24   A    
N6    H45   S    
C99   H51   S    
N8    C100  S    
O2    C1    A    
C41   H17   S    
C75   C76   A    
O19   C94   A    
C18   H8    S    
C25   C26   A    
C82   C83   A    
C56   C57   A    
C5    H1    S    
C3    C45   S    
C28   C29   A    
C24   C25   A    
C30   C31   A    
C75   C80   A    
C41   C42   A    
C53   C60   A    
C62   O18   S    
O3    C4    A    
O22   V3    S    
O25   V4    S    
C80   C93   S    
C87   C88   A    
C20   H9    S    
C46   C47   A    
C45   C46   A    
O6    V2    S    
O9    V2    S    
O27   C96   A    
C28   H10   S    
C39   C96   S    
C8    C9    A    
C46   H20   S    
C84   H58   S    
N7    C99   S    
C75   H29   S    
O2    V1    S    
C43   C48   A    
C93   O24   A    
C51   C52   A    
C33   H12   S    
C11   H60   S    
C23   N1    A    
C35   O13   S    
C64   H44   S    
C76   H30   S    
C98   H48   S    
C37   C42   A    
C32   C33   A    
C54   H22   S    
C11   C16   A    
O1    C2    A    
C37   H14   S    
C8    H3    S    
C50   O16   S    
C44   H19   S    
O5    V1    S    
C66   C67   A    
O8    C3    A    
C31   C32   A    
C79   H32   S    
O25   V3    S    
C27   C34   A    
C81   H33   S    
C7    C8    A    
C59   C60   A    
C87   H34   S    
C10   C95   S    
C15   H6    S    
C6    H2    S    
N7    H50   S    
C5    C10   A    
O4    V1    S    
C18   C19   A    
O3    V1    S    
V1    O10   S    
C84   C85   A    
C36   O14   S    
C51   C54   A    
C14   C15   A    
C35   N2    A    
C73   C74   A    
N5    C97   S    
C23   O11   S    
C26   C27   A    
C52   C53   A    
C5    C6    A    
O23   V3    S    
C89   C90   A    
C91   C92   A    
O7    V2    S    
N4    C62   A    
V3    O28   S    
C63   C64   A    
O24   V4    S    
C30   C35   A    
C97   H39   S    
O23   C95   A    
C49   N3    A    
C78   C79   A    
C58   C59   A    
C21   C22   A    
C67   N6    S    
C12   H4    S    
C37   C38   A    
C71   C94   S    
C85   C86   A    
C38   C39   A    
C69   C74   A    
N6    C98   S    
C71   C72   A    
C56   C61   A    
C77   C78   A    
C15   C16   A    
C6    C7    A    
