data_mof_unit_46746.cif
_audit_creation_date              2012-12-10T20:36:41-0500
_audit_creation_method            fapswitch 2.2
_symmetry_space_group_name_H-M    P1
_symmetry_Int_Tables_number       1
_space_group_crystal_system       triclinic
_cell_length_a                    10.518138
_cell_length_b                    10.63301
_cell_length_c                    9.879904
_cell_angle_alpha                 90.652928
_cell_angle_beta                  90.443599
_cell_angle_gamma                 89.191439
_cell_volume                      1104.7496681

loop_
_atom_site_label
_atom_site_type_symbol
_atom_type_description
_atom_site_fract_x
_atom_site_fract_y
_atom_site_fract_z
_atom_type_partial_charge
C1    C     C_R   0.492857 0.259773 0.499068 0.918316
C2    C     C_R   0.465019 0.938011 0.623752 0.148753
C3    C     C_3   0.555976 0.931441 0.740349 -0.484346
C4    C     C_R   0.257462 0.498826 0.499390 0.884362
C5    C     C_3   0.557217 0.073903 0.737487 -0.465426
C6    C     C_R   0.434976 0.411047 0.069592 0.255087
C7    C     C_R   0.572717 0.581476 0.073531 -0.138577
C8    C     C_R   0.572557 0.581643 0.929624 -0.141102
C9    C     C_R   0.435789 0.410060 0.927158 0.194348
C10   C     C_3   0.296401 0.387149 0.919941 -0.509101
C11   C     C_3   0.295533 0.391388 0.073376 -0.526537
C12   C     C_3   0.955796 0.603109 0.441404 -0.225234
C13   C     C_R   0.491596 0.739832 0.500745 0.902122
C14   C     C_R   0.742563 0.498987 0.500612 0.910580
C15   C     C_3   0.043304 0.392389 0.558973 -0.063591
C16   C     C_3   0.959267 0.397577 0.432357 0.499745
C17   C     C_3   0.877412 0.497742 0.502041 -0.044714
C18   C     C_3   0.960737 0.493191 0.630305 -0.236278
C19   C     C_3   0.041901 0.598611 0.569090 -0.157962
C20   C     C_3   0.998495 0.214786 0.306100 0.079625
C21   C     C_3   0.992733 0.221939 0.151612 -0.346352
C22   C     C_3   0.070337 0.115545 0.085504 -0.958395
C23   C     C_3   0.038877 0.501588 0.369734 -0.238245
C24   C     C_1   0.094107 0.277369 0.621502 0.129463
C25   C     C_3   0.488633 0.076327 0.149033 0.080437
C26   C     C_3   0.632568 0.072235 0.180081 -0.354751
C27   C     C_3   0.707039 0.018424 0.060501 -0.982917
C28   C     C_3   0.122638 0.496783 0.498240 -0.076193
C29   C     C_R   0.465868 0.065997 0.621271 0.096300
C30   C     C_R   0.464605 0.128601 0.498226 -0.219581
C31   C     C_R   0.433343 0.062517 0.377558 0.484798
C32   C     C_R   0.426121 0.931332 0.383229 -0.350042
C33   C     C_R   0.461312 0.870467 0.502876 -0.177081
H1    H     H_    0.648844 0.887099 0.713074 0.201118
H2    H     H_    0.925272 0.489956 0.735770 0.161780
H3    H     H_    0.080746 0.681146 0.624535 0.146678
H4    H     H_    0.915061 0.689321 0.394633 0.145583
H5    H     H_    0.072760 0.504914 0.264000 0.140753
H6    H     H_    0.404264 0.876771 0.293289 0.176819
H7    H     H_    0.510782 0.893811 0.832526 0.200618
H8    H     H_    0.977428 0.117207 0.337177 0.172169
H9    H     H_    0.097552 0.234536 0.340816 0.131697
H10   H     H_    0.892505 0.216000 0.116425 0.245952
H11   H     H_    0.029880 0.313899 0.119017 0.213784
H12   H     H_    0.512673 0.119088 0.827475 0.199275
H13   H     H_    0.169602 0.114376 0.124193 0.280148
H14   H     H_    0.071503 0.128306 0.974115 0.278258
H15   H     H_    0.027970 0.023112 0.107622 0.256951
H16   H     H_    0.473166 0.138655 0.061084 0.154095
H17   H     H_    0.453513 0.982946 0.115718 0.127340
H18   H     H_    0.666017 0.168684 0.204140 0.250386
H19   H     H_    0.653202 0.011778 0.268695 0.215457
H20   H     H_    0.666705 0.927394 0.026236 0.263726
H21   H     H_    0.806971 0.000888 0.091720 0.271066
H22   H     H_    0.705786 0.086052 0.975861 0.275316
H23   H     H_    0.650834 0.112430 0.708542 0.206372
H24   H     H_    0.629540 0.648959 0.128999 0.149740
H25   H     H_    0.629168 0.649287 0.876727 0.144329
H26   H     H_    0.241835 0.465979 0.873226 0.227725
H27   H     H_    0.275398 0.292375 0.877739 0.219282
H28   H     H_    0.243306 0.474498 0.114876 0.207178
H29   H     H_    0.272506 0.300706 0.120363 0.239616
N1    N     N_R   0.499140 0.499140 0.142800 -0.108809
N2    N     N_R   0.499140 0.499180 0.857150 -0.103041
N3    N     N_1   0.134027 0.186402 0.670121 -0.236437
O1    O     O_R   0.500020 0.316790 0.614690 -0.621889
O2    O     O_3   0.415265 0.127265 0.257106 -0.650002
O3    O     O_R   0.500000 0.316760 0.385350 -0.566941
O4    O     O_R   0.313960 0.499990 0.614650 -0.622307
O5    O     O_R   0.313940 0.499950 0.385310 -0.629483
O6    O     O_R   0.500000 0.683240 0.614650 -0.621084
O7    O     O_R   0.499980 0.683210 0.385310 -0.631357
O8    O     O_R   0.686060 0.500050 0.614690 -0.634308
O9    O     O_R   0.686040 0.500010 0.385350 -0.604907
O10   O     O_3   0.904003 0.294828 0.363163 -0.662594
Zn1   Zn    Zn3+2 0.500010 0.500020 0.653130 0.940161
Zn2   Zn    Zn3+2 0.499990 0.499980 0.346870 0.962283

loop_
_geom_bond_atom_site_label_1
_geom_bond_atom_site_label_2
_ccdc_geom_bond_type
C15   C18   S    
C22   H15   S    
C16   O10   S    
C5    H23   S    
C25   O2    S    
C11   H29   S    
C6    C9    A    
C4    O5    A    
C20   H8    S    
C27   H21   S    
C7    C8    A    
C31   O2    S    
C12   C23   S    
C26   C27   S    
O7    Zn2   S    
C2    C29   A    
C14   O9    A    
C19   H3    S    
C30   C31   A    
C27   H22   S    
C15   C16   S    
C9    N2    A    
C1    O3    A    
O4    Zn1   S    
C18   C19   S    
C32   H6    S    
C12   H4    S    
C25   H17   S    
C8    H25   S    
C21   H10   S    
C16   C17   S    
O9    Zn2   S    
C12   C17   S    
C18   H2    S    
C22   H14   S    
C21   C22   S    
O5    Zn2   S    
C14   C17   S    
C9    C10   S    
C4    O4    A    
C4    C28   S    
C17   C18   S    
C5    C29   S    
C14   O8    A    
C6    C11   S    
C13   O6    A    
C3    H1    S    
C3    C5    S    
C25   C26   S    
C5    H12   S    
C20   O10   S    
C6    N1    A    
C10   H27   S    
C13   C33   S    
C29   C30   A    
C26   H19   S    
C21   H11   S    
C31   C32   A    
O1    Zn1   S    
C1    O1    A    
N2    Zn1   S    
C23   C28   S    
C19   C28   S    
C7    N1    A    
C24   N3    T    
C8    N2    A    
C2    C33   A    
C15   C24   S    
C22   H13   S    
C3    H7    S    
C16   C23   S    
O8    Zn1   S    
N1    Zn2   S    
O3    Zn2   S    
C11   H28   S    
C20   H9    S    
C27   H20   S    
C13   O7    A    
C23   H5    S    
C32   C33   A    
C10   H26   S    
C26   H18   S    
C15   C28   S    
O6    Zn1   S    
C12   C19   S    
C1    C30   S    
C2    C3    S    
C25   H16   S    
C10   C11   S    
C20   C21   S    
C7    H24   S    
