data_mof_unit_35434.cif
_audit_creation_date              2012-10-26T19:52:26-0400
_audit_creation_method            fapswitch 2.2
_symmetry_space_group_name_H-M    P1
_symmetry_Int_Tables_number       1
_space_group_crystal_system       triclinic
_cell_length_a                    9.5727
_cell_length_b                    10.817582
_cell_length_c                    13.383643
_cell_angle_alpha                 90.889381
_cell_angle_beta                  72.332452
_cell_angle_gamma                 90.325158
_cell_volume                      1320.3937915

loop_
_atom_site_label
_atom_site_type_symbol
_atom_type_description
_atom_site_fract_x
_atom_site_fract_y
_atom_site_fract_z
_atom_type_partial_charge
C1    C     C_R   0.500686 0.737499 0.499140 0.588985
C2    C     C_R   0.375020 0.504283 0.815549 0.051161
C3    C     C_R   0.377248 0.936278 0.496493 0.041250
C4    C     C_R   0.421185 0.497563 0.700276 0.599494
C5    C     C_R   0.504281 0.870578 0.491715 0.060166
C6    C     C_R   0.636957 0.935779 0.473473 -0.132527
C7    C     C_R   0.636925 0.064736 0.472790 -0.141349
C8    C     C_R   0.504407 0.129327 0.489125 0.031864
C9    C     C_R   0.377980 0.062879 0.492484 -0.003625
C10   C     C_3   0.224152 0.073684 0.563531 -0.255285
C11   C     C_3   0.222538 0.932753 0.568813 -0.104079
C12   C     C_R   0.460010 0.530211 0.969317 0.035596
C13   C     C_R   0.944510 0.403896 0.455668 0.125772
C14   C     C_R   0.905181 0.588416 0.554691 0.108391
C15   C     C_R   0.054327 0.587509 0.553304 0.057549
C16   C     C_R   0.500582 0.262495 0.498173 0.579445
C17   C     C_R   0.091372 0.403665 0.456020 0.142772
C18   C     C_3   0.144368 0.359687 0.344832 -0.259657
C19   C     C_3   0.986143 0.361418 0.344175 -0.261440
C20   C     C_R   0.578929 0.497997 0.299636 0.543627
C21   C     C_R   0.797997 0.408065 0.023232 0.032764
C22   C     C_R   0.626131 0.487505 0.184762 -0.024311
C23   C     C_R   0.473047 0.470896 0.871649 0.025783
C24   C     C_R   0.248755 0.572150 0.865817 -0.058434
C25   C     C_R   0.233086 0.627701 0.962530 -0.118036
C26   C     C_R   0.344506 0.618504 0.009506 0.014925
C27   C     C_2   0.201434 0.887699 0.678760 0.243918
C28   C     C_2   0.811747 0.687845 0.618028 0.250359
C29   C     C_2   0.862730 0.386910 0.782553 0.182864
C30   C     C_2   0.927606 0.326757 0.979854 0.283473
C31   C     C_2   0.345594 0.716963 0.087768 0.213203
C32   C     C_2   0.580259 0.281925 0.758497 0.261130
C33   C     C_R   0.561716 0.496753 0.022754 0.032496
C34   C     C_R   0.696230 0.436780 0.967643 0.025667
C35   C     C_R   0.716063 0.398249 0.862448 -0.047475
C36   C     C_R   0.591349 0.387830 0.828624 -0.012244
C37   C     C_R   0.525892 0.512216 0.131464 -0.077566
C38   C     C_R   0.763940 0.440728 0.129752 -0.119845
Cu1   Cu    Cu3+1 0.359330 0.500020 0.500010 0.989518
Cu2   Cu    Cu3+1 0.640670 0.499980 0.499990 0.941134
H1    H     H_    0.218106 0.122785 0.638465 0.180076
H2    H     H_    0.838659 0.416216 0.172633 0.152164
H3    H     H_    0.739227 0.113266 0.463692 0.128877
H4    H     H_    0.148904 0.110207 0.522038 0.119726
H5    H     H_    0.092712 0.891404 0.735097 0.143215
H6    H     H_    0.695739 0.676467 0.653367 0.185608
H7    H     H_    0.095340 0.657497 0.595814 0.162100
H8    H     H_    0.191440 0.265070 0.337579 0.133427
H9    H     H_    0.879561 0.328162 0.713677 0.089124
H10   H     H_    0.928344 0.256830 0.920853 0.124802
H11   H     H_    0.242900 0.756053 0.136647 0.103535
H12   H     H_    0.146062 0.888904 0.530747 0.134309
H13   H     H_    0.676683 0.231137 0.713781 0.092582
H14   H     H_    0.213558 0.428760 0.291464 0.150378
H15   H     H_    0.965788 0.433201 0.291944 0.155414
H16   H     H_    0.941981 0.268052 0.335241 0.129003
H17   H     H_    0.416195 0.538870 0.176591 0.134775
H18   H     H_    0.171199 0.596006 0.824838 0.189809
H19   H     H_    0.142118 0.690646 0.994203 0.123320
H20   H     H_    0.739371 0.887984 0.464043 0.156182
N1    N     N_R   0.852320 0.499070 0.499340 -0.270337
N2    N     N_R   0.148230 0.499110 0.499340 -0.252137
O1    O     O_R   0.381190 0.680360 0.500000 -0.501389
O2    O     O_2   0.865587 0.785949 0.634058 -0.575129
O3    O     O_2   0.965232 0.450621 0.789205 -0.508440
O4    O     O_2   0.034272 0.335125 0.011612 -0.500083
O5    O     O_2   0.460678 0.760499 0.094031 -0.484760
O6    O     O_2   0.461070 0.245301 0.754611 -0.485104
O7    O     O_R   0.618780 0.680320 0.499990 -0.531303
O8    O     O_R   0.323230 0.500000 0.650990 -0.463537
O9    O     O_R   0.560820 0.499960 0.650980 -0.539076
O10   O     O_R   0.381220 0.319680 0.500010 -0.494913
O11   O     O_R   0.618810 0.319640 0.500000 -0.509686
O12   O     O_R   0.439180 0.500040 0.349020 -0.513460
O13   O     O_R   0.676770 0.500000 0.349010 -0.507216
O14   O     O_2   0.303064 0.847822 0.706017 -0.499292

loop_
_geom_bond_atom_site_label_1
_geom_bond_atom_site_label_2
_ccdc_geom_bond_type
C19   H16   S    
Cu2   O9    S    
C35   C36   A    
C16   O10   A    
C15   H7    S    
C4    O8    A    
C7    C8    A    
C29   H9    S    
C31   O5    D    
C12   C23   A    
C28   H6    S    
C1    C5    S    
C32   C36   S    
C38   H2    S    
C5    C6    A    
C22   C38   A    
Cu2   O11   S    
C34   C35   A    
Cu1   O12   S    
C11   H12   S    
C15   N2    A    
C21   C38   A    
C8    C9    A    
Cu1   O10   S    
C7    H3    S    
C9    C10   S    
C32   O6    D    
C27   H5    S    
C30   H10   S    
C26   C31   S    
C8    C16   S    
C10   H1    S    
C1    O1    A    
C17   C18   S    
Cu2   O7    S    
C13   C19   S    
C10   H4    S    
C16   O11   A    
C6    H20   S    
C24   C25   A    
Cu1   Cu2   S    
C18   C19   S    
C21   C34   A    
C25   C26   A    
C14   N1    A    
C33   C37   A    
Cu2   N1    S    
C20   O13   A    
C12   C26   A    
C2    C4    S    
C3    C9    A    
C17   N2    A    
C11   C27   S    
C33   C34   A    
C20   O12   A    
C30   O4    D    
C29   O3    D    
C28   O2    D    
C20   C22   S    
C2    C24   A    
C27   O14   D    
C32   H13   S    
C19   H15   S    
Cu1   N2    S    
C31   H11   S    
C3    C5    A    
C18   H8    S    
C6    C7    A    
Cu1   O1    S    
C21   C30   S    
C29   C35   S    
Cu2   O13   S    
C13   C17   A    
C22   C37   A    
Cu1   O8    S    
C1    O7    A    
C3    C11   S    
C10   C11   S    
C18   H14   S    
C13   N1    A    
C24   H18   S    
C23   C36   A    
C2    C23   A    
C14   C15   A    
C25   H19   S    
C14   C28   S    
C12   C33   A    
C4    O9    A    
C37   H17   S    
