data_mof_unit_59542.cif
_audit_creation_date              2013-03-05T16:42:23-0500
_audit_creation_method            fapswitch 2.2
_symmetry_space_group_name_H-M    P1
_symmetry_Int_Tables_number       1
_space_group_crystal_system       triclinic
_cell_length_a                    9.9423
_cell_length_b                    10.771521
_cell_length_c                    15.684324
_cell_angle_alpha                 91.297899
_cell_angle_beta                  70.952217
_cell_angle_gamma                 90.83934
_cell_volume                      1587.26940402

loop_
_atom_site_label
_atom_site_type_symbol
_atom_site_description
_atom_site_fract_x
_atom_site_fract_y
_atom_site_fract_z
_atom_type_partial_charge
O1    O     O_R   0.385310 0.683210 0.499990 -0.623437
O2    O     O_R   0.614650 0.683240 0.500000 -0.623317
C1    C     C_R   0.501842 0.739124 0.498633 0.890023
O3    O     O_R   0.319830 0.499970 0.632240 -0.559012
O4    O     O_R   0.549170 0.500000 0.632250 -0.637484
C2    C     C_R   0.413417 0.492362 0.673584 0.870691
Zn1   Zn    Zn3+2 0.346870 0.499980 0.499990 1.045146
Zn2   Zn    Zn3+2 0.653130 0.500020 0.500010 0.967908
O5    O     O_R   0.385350 0.316760 0.500000 -0.622675
O6    O     O_R   0.614690 0.316790 0.500010 -0.634707
O7    O     O_R   0.450830 0.500000 0.367750 -0.549375
O8    O     O_R   0.680170 0.500030 0.367760 -0.621187
C3    C     C_R   0.498675 0.260591 0.501379 0.891405
C4    C     C_R   0.586448 0.497655 0.325528 0.912551
C5    C     C_R   0.369545 0.451791 0.766358 -0.033861
C6    C     C_R   0.633368 0.480851 0.227484 -0.162142
C7    C     C_R   0.228128 0.316359 0.883931 -0.129419
C8    C     C_R   0.261785 0.362642 0.796780 -0.042019
C9    C     C_R   0.456132 0.481447 0.817838 -0.247680
C10   C     C_R   0.433046 0.425689 0.900863 0.125094
C11   C     C_R   0.309566 0.352659 0.938102 0.125766
C12   C     C_R   0.532040 0.438273 0.946788 0.010650
C13   C     C_R   0.488674 0.413648 0.039409 0.081000
C14   C     C_R   0.360654 0.346943 0.078224 -0.089610
C15   C     C_R   0.274534 0.312753 0.026867 -0.232515
C16   C     C_R   0.677117 0.457568 0.900267 -0.277596
C17   C     C_R   0.776034 0.453136 0.945547 0.351301
C18   C     C_R   0.730345 0.451021 0.039895 -0.020129
C19   C     C_R   0.582912 0.443752 0.087482 -0.054300
C20   C     C_R   0.827433 0.454826 0.087746 -0.129740
C21   C     C_R   0.778897 0.466819 0.180832 -0.219964
C22   C     C_R   0.533945 0.472054 0.180181 0.299982
H1    H     H_    0.180866 0.255718 0.056514 0.166366
H2    H     H_    0.856456 0.469671 0.215909 0.198346
H3    H     H_    0.140891 0.250942 0.908364 0.170488
H4    H     H_    0.205941 0.328011 0.752275 0.198803
H5    H     H_    0.542812 0.547070 0.792055 0.153123
H6    H     H_    0.333912 0.309805 0.145031 0.218347
H7    H     H_    0.716973 0.460948 0.827349 0.192151
H8    H     H_    0.941039 0.449693 0.054349 0.197033
C23   C     C_R   0.402505 0.934609 0.476131 0.016845
C24   C     C_R   0.506196 0.870246 0.496846 -0.063729
C25   C     C_R   0.612688 0.937526 0.519205 -0.197970
H9    H     H_    0.696784 0.891245 0.535578 0.162459
C26   C     C_R   0.609567 0.066730 0.521594 -0.202545
H10   H     H_    0.692777 0.117016 0.538652 0.171233
C27   C     C_R   0.498766 0.128970 0.502886 -0.108757
C28   C     C_R   0.395349 0.058723 0.482238 0.081160
C29   C     C_3   0.259143 0.059701 0.460052 0.349335
C30   C     C_3   0.273089 0.917334 0.449251 -0.474998
H11   H     H_    0.187860 0.864068 0.498147 0.173364
H12   H     H_    0.300417 0.881993 0.378509 0.239233
C31   C     C_R   0.915266 0.602283 0.528819 0.185860
N1    N     N_R   0.856900 0.500860 0.500610 -0.104226
C32   C     C_R   0.947338 0.406303 0.459961 -0.092668
H13   H     H_    0.908794 0.329119 0.428886 0.164047
C33   C     C_R   0.091265 0.407592 0.458788 -0.019848
H14   H     H_    0.161012 0.333744 0.424613 0.201908
N2    N     N_R   0.142540 0.500820 0.500610 -0.098386
C34   C     C_R   0.057253 0.602795 0.528509 0.124245
C35   C     C_3   0.013141 0.667561 0.618946 0.079379
C36   C     C_3   0.860304 0.665527 0.618544 -0.557829
H15   H     H_    0.056972 0.762720 0.618173 0.094584
H16   H     H_    0.786451 0.605743 0.670460 0.231008
H17   H     H_    0.819381 0.759637 0.613894 0.172219
C37   C     C_3   0.126268 0.103761 0.538359 -0.452361
C38   C     C_3   0.121750 0.065454 0.633343 -0.403209
C39   C     C_3   0.977522 0.095217 0.702981 -0.753134
H18   H     H_    0.952744 0.195089 0.701005 0.303348
H19   H     H_    0.892667 0.038229 0.689113 0.239096
H20   H     H_    0.979460 0.073924 0.771509 0.268085
H21   H     H_    0.141467 0.964818 0.635485 0.230885
H22   H     H_    0.205683 0.116928 0.652467 0.226107
H23   H     H_    0.122738 0.206031 0.539573 0.215565
H24   H     H_    0.029610 0.068187 0.524632 0.217809
N3    N     N_R   0.272851 0.118005 0.373954 0.203496
O9    O     O_R   0.172313 0.102946 0.338335 -0.402448
O10   O     O_R   0.386060 0.181686 0.330887 -0.391188
N4    N     N_R   0.033067 0.592568 0.689742 0.259298
O11   O     O_R   0.090759 0.642810 0.745673 -0.336539
O12   O     O_R   0.999632 0.475135 0.694969 -0.378088
N5    N     N_R   0.391306 0.517642 0.219917 0.204513
O13   O     O_R   0.357605 0.623692 0.194671 -0.371820
O14   O     O_R   0.291322 0.447420 0.271197 -0.391247
N6    N     N_R   0.921239 0.438092 0.893936 0.217351
O15   O     O_R   0.016513 0.518567 0.900177 -0.351859
O16   O     O_R   0.957266 0.340503 0.841672 -0.435591

loop_
_geom_bond_atom_site_label_1
_geom_bond_atom_site_label_2
_geom_bond_distance
_ccdc_geom_bond_type
C5    C8    1.398065 A    
C32   H13   1.081585 S    
C1    C24   1.413040 S    
C23   C24   1.377961 A    
C9    C10   1.394775 A    
C31   N1    1.361290 A    
C6    C21   1.400748 A    
Zn1   O7    1.992721 S    
C16   C17   1.390189 A    
C13   C19   1.411606 A    
C18   C19   1.413158 A    
N3    O10   1.302225 A    
C19   C22   1.402187 A    
O4    C2    1.294907 A    
O7    C4    1.294084 A    
C16   H7    1.082587 S    
C33   N2    1.368219 A    
C37   H23   1.102213 S    
C17   N6    1.415575 S    
C38   H21   1.107607 S    
C35   H15   1.106666 S    
O5    C3    1.293240 A    
C36   H16   1.111993 S    
C9    H5    1.083285 S    
C2    C5    1.451721 S    
C39   H18   1.110488 S    
C30   H12   1.112188 S    
C13   C14   1.412156 A    
C38   H22   1.111772 S    
C26   C27   1.410905 A    
C37   C38   1.541205 S    
N2    C34   1.371263 A    
O3    Zn1   2.002706 S    
Zn1   N2    2.028509 S    
C31   C34   1.410025 A    
C30   H11   1.103128 S    
N6    O16   1.298303 A    
C29   N3    1.467083 S    
C29   C37   1.553008 S    
C38   C39   1.525551 S    
N3    O9    1.301239 A    
O3    C2    1.300558 A    
Zn2   N1    2.028921 S    
N4    O12   1.300724 A    
N6    O15   1.300331 A    
C7    C11   1.398217 A    
C34   C35   1.499708 S    
O1    C1    1.292124 A    
C5    C9    1.388900 A    
C25   H9    1.082456 S    
C31   C36   1.486155 S    
C14   H6    1.078270 S    
C27   C28   1.384943 A    
Zn2   O8    2.002703 S    
C7    C8    1.398707 A    
C21   H2    1.083362 S    
C20   H8    1.080535 S    
C14   C15   1.394663 A    
C25   C26   1.391910 A    
C39   H19   1.111049 S    
C28   C29   1.504394 S    
O8    C4    1.307316 A    
C29   C30   1.542306 S    
N5    O14   1.300341 A    
C32   C33   1.424931 A    
C4    C6    1.461756 S    
C24   C25   1.406254 A    
C23   C30   1.487096 S    
C3    C27   1.418511 S    
Zn1   O5    2.015806 S    
C11   C15   1.396637 A    
N1    C32   1.369527 A    
C36   H17   1.110521 S    
O1    Zn1   2.004824 S    
O2    Zn2   2.015806 S    
C10   C12   1.400112 A    
O6    C3    1.288930 A    
O4    Zn2   1.992721 S    
C6    C22   1.417493 A    
C22   N5    1.438876 S    
C18   C20   1.402497 A    
O2    C1    1.287168 A    
C33   H14   1.074784 S    
C20   C21   1.383683 A    
C35   N4    1.453835 S    
C39   H20   1.110411 S    
C37   H24   1.112305 S    
C23   C28   1.339430 A    
C35   C36   1.521455 S    
N4    O11   1.299710 A    
C26   H10   1.083586 S    
C10   C11   1.411250 A    
Zn2   O6    2.004824 S    
N5    O13   1.300860 A    
C12   C16   1.402585 A    
C17   C18   1.399690 A    
C12   C13   1.404233 A    
C7    H3    1.083062 S    
C8    H4    1.081557 S    
C15   H1    1.083729 S    
