data_mof_unit_15177.cif
_audit_creation_date              2012-12-10T18:33:44-0500
_audit_creation_method            fapswitch 2.2
_symmetry_space_group_name_H-M    P1
_symmetry_Int_Tables_number       1
_space_group_crystal_system       triclinic
_cell_length_a                    10.498409
_cell_length_b                    14.933162
_cell_length_c                    15.593234
_cell_angle_alpha                 81.786385
_cell_angle_beta                  89.558591
_cell_angle_gamma                 104.043228
_cell_volume                      2344.9447818

loop_
_atom_site_label
_atom_site_type_symbol
_atom_type_description
_atom_site_fract_x
_atom_site_fract_y
_atom_site_fract_z
_atom_type_partial_charge
C1    C     C_R   0.482974 0.441410 0.661747 0.864183
C2    C     C_R   0.526464 0.487004 0.044398 -0.002430
C3    C     C_R   0.514211 0.389971 0.074765 -0.009586
C4    C     C_R   0.537326 0.614597 0.923751 -0.011460
C5    C     C_R   0.467897 0.323729 0.020733 -0.287849
C6    C     C_R   0.578558 0.680088 0.979411 -0.275900
C7    C     C_R   0.733637 0.848112 0.608234 -0.253612
C8    C     C_R   0.342212 0.171804 0.342307 -0.257829
C9    C     C_R   0.681696 0.755532 0.599771 0.009076
C10   C     C_R   0.356428 0.254544 0.375497 0.004007
C11   C     C_R   0.513100 0.795352 0.513561 0.044476
C12   C     C_R   0.518731 0.558643 0.338206 0.858548
C13   C     C_R   0.479912 0.202597 0.490198 0.037961
C14   C     C_R   0.565704 0.891466 0.514812 -0.019258
C15   C     C_R   0.478512 0.119988 0.456043 -0.014225
C16   C     C_R   0.742434 0.500421 0.499855 0.853878
C17   C     C_R   0.257625 0.499704 0.499826 0.851478
C18   C     C_R   0.676050 0.916864 0.565826 -0.005537
C19   C     C_R   0.403837 0.104063 0.382008 -0.017393
C20   C     C_R   0.514087 0.962500 0.467156 -0.161118
C21   C     C_R   0.549425 0.054130 0.491462 -0.145351
C22   C     C_R   0.659434 0.078065 0.545115 0.369658
C23   C     C_R   0.523818 0.470231 0.809565 -0.234478
C24   C     C_R   0.435769 0.947190 0.393161 0.359445
C25   C     C_R   0.730229 0.010562 0.572347 0.326532
C26   C     C_R   0.394683 0.022304 0.346442 0.338021
C27   C     C_3   0.930966 0.418889 0.478108 -0.122972
C28   C     C_3   0.069209 0.581380 0.521119 -0.127303
C29   C     C_3   0.016549 0.428603 0.557854 -0.176056
C30   C     C_3   0.983515 0.571621 0.441438 -0.177968
C31   C     C_3   0.122398 0.499913 0.499606 0.034229
C32   C     C_3   0.877745 0.500321 0.499702 0.021070
C33   C     C_3   0.039509 0.490411 0.419914 -0.191944
C34   C     C_R   0.506404 0.530030 0.188552 -0.233063
C35   C     C_3   0.960673 0.509860 0.579350 -0.192531
C36   C     C_R   0.475697 0.406072 0.754070 -0.061102
C37   C     C_R   0.536833 0.594506 0.245931 -0.069755
C38   C     C_R   0.415886 0.284679 0.877525 -0.190515
C39   C     C_R   0.606511 0.717906 0.124926 -0.198356
C40   C     C_R   0.419689 0.312613 0.788043 -0.215133
C41   C     C_R   0.589036 0.689100 0.214247 -0.198442
C42   C     C_3   0.741548 0.178233 0.645067 0.142653
C43   C     C_3   0.707697 0.264259 0.671500 -0.906232
C44   C     C_3   0.290945 0.818906 0.352596 0.109286
C45   C     C_R   0.498780 0.447552 0.898517 0.088844
C46   C     C_3   0.283187 0.727788 0.317657 -0.845592
C47   C     C_1   0.563976 0.355937 0.156160 0.133759
C48   C     C_1   0.493830 0.650916 0.841031 0.143898
C49   C     C_3   0.948841 0.065750 0.539838 0.101206
C50   C     C_3   0.083188 0.095654 0.577448 -0.842916
C51   C     C_3   0.446765 0.045222 0.202075 0.131069
C52   C     C_3   0.391265 0.036209 0.113068 -0.858967
C53   C     C_R   0.541495 0.555119 0.100763 0.090040
C54   C     C_R   0.457090 0.351686 0.932920 0.160185
C55   C     C_R   0.579993 0.651386 0.067912 0.155658
C56   C     C_R   0.522130 0.516963 0.954001 -0.005464
H1    H     H_    0.034338 0.370245 0.605018 0.138525
H2    H     H_    0.129448 0.647839 0.538501 0.139173
H3    H     H_    0.076483 0.482547 0.355195 0.136602
H4    H     H_    0.923711 0.517757 0.644063 0.134703
H5    H     H_    0.450456 0.249970 0.045837 0.149965
H6    H     H_    0.596200 0.754047 0.954858 0.149809
H7    H     H_    0.450173 0.460213 0.212805 0.162427
H8    H     H_    0.584743 0.537641 0.782482 0.161607
H9    H     H_    0.612408 0.740501 0.257894 0.185014
H10   H     H_    0.382829 0.261387 0.745816 0.151582
H11   H     H_    0.380780 0.211301 0.903385 0.137390
H12   H     H_    0.964495 0.629706 0.394521 0.133443
H13   H     H_    0.638686 0.791806 0.100439 0.140465
H14   H     H_    0.849098 0.187443 0.651301 0.199902
H15   H     H_    0.688380 0.116722 0.692151 0.142535
H16   H     H_    0.599806 0.252669 0.679840 0.248564
H17   H     H_    0.751491 0.278133 0.734336 0.219619
H18   H     H_    0.746646 0.326072 0.621940 0.276241
H19   H     H_    0.234947 0.858800 0.308830 0.207185
H20   H     H_    0.241309 0.802853 0.418353 0.102093
H21   H     H_    0.327772 0.681138 0.362917 0.265933
H22   H     H_    0.179042 0.692050 0.310208 0.203329
H23   H     H_    0.521523 0.216444 0.550663 0.181864
H24   H     H_    0.336001 0.741936 0.253297 0.268410
H25   H     H_    0.931711 0.126593 0.495241 0.165876
H26   H     H_    0.950274 0.007885 0.502215 0.141722
H27   H     H_    0.104126 0.036367 0.621848 0.254918
H28   H     H_    0.160227 0.118301 0.524253 0.216958
H29   H     H_    0.085920 0.154763 0.613865 0.249193
H30   H     H_    0.519418 0.001715 0.212314 0.168519
H31   H     H_    0.497650 0.119835 0.202843 0.145268
H32   H     H_    0.318210 0.078809 0.100831 0.252151
H33   H     H_    0.471807 0.061176 0.062289 0.203918
H34   H     H_    0.424222 0.768649 0.482753 0.164315
H35   H     H_    0.342745 0.962027 0.109519 0.264804
H36   H     H_    0.314673 0.309045 0.343011 0.134313
H37   H     H_    0.728988 0.702486 0.628749 0.133386
H38   H     H_    0.819232 0.865526 0.646651 0.187951
H39   H     H_    0.285748 0.162088 0.285037 0.186675
H40   H     H_    0.870911 0.352427 0.460603 0.185787
N1    N     N_R   0.574200 0.731700 0.552740 -0.111959
N2    N     N_R   0.425800 0.268300 0.447260 -0.117061
N3    N     N_1   0.604222 0.328551 0.220992 -0.198884
N4    N     N_1   0.458709 0.680391 0.775154 -0.196740
O1    O     O_R   0.462600 0.383110 0.605620 -0.629661
O2    O     O_3   0.424969 0.867080 0.355240 -0.616651
O3    O     O_3   0.851742 0.036028 0.608071 -0.635616
O4    O     O_3   0.342852 0.014914 0.265653 -0.629009
O5    O     O_R   0.537400 0.616890 0.394380 -0.614779
O6    O     O_R   0.510210 0.531900 0.639510 -0.607499
O7    O     O_R   0.489790 0.468100 0.360490 -0.613946
O8    O     O_R   0.662240 0.425610 0.483080 -0.605049
O9    O     O_R   0.337760 0.574390 0.516920 -0.633921
O10   O     O_R   0.709860 0.574400 0.516970 -0.628118
O11   O     O_R   0.290140 0.425600 0.483030 -0.622611
O12   O     O_3   0.710568 0.170539 0.557311 -0.640151
Zn1   Zn    Zn3+2 0.468210 0.400660 0.477370 0.945085
Zn2   Zn    Zn3+2 0.531790 0.599340 0.522630 0.945617

loop_
_geom_bond_atom_site_label_1
_geom_bond_atom_site_label_2
_ccdc_geom_bond_type
C43   H17   S    
C30   C32   S    
C13   H23   S    
C43   H16   S    
C23   C45   A    
C1    O1    A    
C27   C29   S    
C34   C37   A    
O1    Zn1   S    
C14   C18   A    
C6    C55   A    
C52   H33   S    
C16   O10   A    
C39   C41   A    
C27   C33   S    
C15   C19   A    
C18   C25   A    
O6    Zn2   S    
C24   C26   A    
C12   O5    A    
C11   C14   A    
C49   H26   S    
C42   H14   S    
C47   N3    T    
C10   N2    A    
C49   H25   S    
C13   N2    A    
C44   H20   S    
C19   C26   A    
C42   O12   S    
O7    Zn1   S    
C50   H29   S    
C26   O4    S    
C39   C55   A    
C20   C24   A    
C45   C56   A    
C42   H15   S    
C22   C25   A    
C31   C33   S    
O10   Zn2   S    
C1    O6    A    
C43   H18   S    
C10   H36   S    
C33   H3    S    
C40   H10   S    
C21   C22   A    
C4    C56   A    
C27   H40   S    
C8    H39   S    
C17   O11   A    
C51   H30   S    
C44   C46   S    
C50   H27   S    
C53   C55   A    
C48   N4    T    
C8    C19   A    
C50   H28   S    
C51   C52   S    
C32   C35   S    
C14   C20   A    
O5    Zn2   S    
C36   C40   A    
C28   C35   S    
C4    C6    A    
C51   H31   S    
C46   H22   S    
C44   O2    S    
C25   O3    S    
N2    Zn1   S    
C41   H9    S    
C51   O4    S    
C35   H4    S    
O8    Zn1   S    
C44   H19   S    
C46   H21   S    
C5    C54   A    
C38   C54   A    
C52   H32   S    
C7    C18   A    
C39   H13   S    
C5    H5    S    
O11   Zn1   S    
C38   H11   S    
O9    Zn2   S    
C23   H8    S    
C29   H1    S    
C45   C54   A    
C23   C36   A    
C22   O12   S    
C13   C15   A    
C17   C31   S    
C42   C43   S    
C9    H37   S    
C4    C48   S    
C7    C9    A    
C7    H38   S    
C9    N1    A    
C30   C33   S    
C27   C32   S    
C28   C31   S    
C3    C5    A    
C2    C53   A    
C17   O9    A    
C49   O3    S    
C12   O7    A    
C28   H2    S    
C16   C32   S    
C29   C35   S    
C11   N1    A    
C6    H6    S    
C28   C30   S    
C2    C3    A    
C29   C31   S    
C2    C56   A    
C38   C40   A    
C11   H34   S    
C3    C47   S    
C34   H7    S    
C24   O2    S    
C37   C41   A    
C16   O8    A    
C15   C21   A    
C20   C21   A    
C34   C53   A    
C8    C10   A    
C49   C50   S    
C12   C37   S    
C52   H35   S    
C46   H24   S    
N1    Zn2   S    
C30   H12   S    
C1    C36   S    
