data_mof_unit_51867.cif
_audit_creation_date              2012-12-11T15:17:46-0500
_audit_creation_method            fapswitch 2.2
_symmetry_space_group_name_H-M    P1
_symmetry_Int_Tables_number       1
_space_group_crystal_system       triclinic
_cell_length_a                    15.689996
_cell_length_b                    15.686548
_cell_length_c                    34.405288
_cell_angle_alpha                 89.97989
_cell_angle_beta                  89.95564
_cell_angle_gamma                 120.06608
_cell_volume                      7328.51851324

loop_
_atom_site_label
_atom_site_type_symbol
_atom_type_description
_atom_site_fract_x
_atom_site_fract_y
_atom_site_fract_z
_atom_type_partial_charge
C1    C     C_R   0.577492 0.441982 0.554891 0.550555
C2    C     C_R   0.558157 0.136422 0.555113 0.565629
C3    C     C_R   0.863422 0.421956 0.555254 0.559254
C4    C     C_R   0.441493 0.577278 0.054949 0.553046
C5    C     C_R   0.135887 0.558044 0.054868 0.568442
C6    C     C_R   0.422113 0.863504 0.055247 0.557583
C7    C     C_R   0.942552 0.487137 0.716914 0.343295
C8    C     C_R   0.508510 0.467166 0.714857 0.338238
C9    C     C_R   0.549091 0.051679 0.715588 0.340440
C10   C     C_R   0.476740 0.938622 0.218133 0.350671
C11   C     C_R   0.476992 0.510440 0.215344 0.355917
C12   C     C_R   0.021032 0.511334 0.212599 0.336182
C13   C     C_R   0.981683 0.418496 0.857554 0.137556
C14   C     C_R   0.580320 0.561981 0.857855 0.133219
C15   C     C_R   0.457860 0.030426 0.858574 0.136326
C16   C     C_R   0.413518 0.957275 0.362782 0.144026
C17   C     C_R   0.564711 0.586359 0.359564 0.132765
C18   C     C_R   0.023369 0.449583 0.358036 0.133336
C19   C     C_R   0.022834 0.435247 0.895199 0.142021
C20   C     C_R   0.564425 0.582391 0.896397 0.138486
C21   C     C_R   0.429354 0.987348 0.895898 0.123272
C22   C     C_R   0.433818 0.007719 0.398846 0.109889
C23   C     C_R   0.586063 0.568188 0.397448 0.134382
C24   C     C_R   0.988956 0.431406 0.396812 0.125132
C25   C     C_R   0.046378 0.601417 0.894254 0.085910
C26   C     C_R   0.391906 0.452419 0.892023 0.086905
C27   C     C_R   0.543652 0.925080 0.890003 0.082585
C28   C     C_R   0.608053 0.060460 0.390864 0.083359
C29   C     C_R   0.449417 0.399399 0.393727 0.090008
C30   C     C_R   0.908890 0.528840 0.386306 0.082138
C31   C     C_R   0.004946 0.583427 0.857295 -0.132200
C32   C     C_R   0.408765 0.432369 0.854258 -0.150510
C33   C     C_R   0.570902 0.967767 0.853368 -0.160942
C34   C     C_R   0.587027 0.013128 0.355145 -0.137749
C35   C     C_R   0.431567 0.416915 0.355643 -0.151841
C36   C     C_R   0.943192 0.546287 0.348306 -0.156259
C37   C     C_R   0.978834 0.495854 0.837549 -0.017160
C38   C     C_R   0.499709 0.490109 0.835891 -0.010490
C39   C     C_R   0.525108 0.015157 0.836292 -0.015262
C40   C     C_R   0.492430 0.968870 0.339312 -0.009038
C41   C     C_R   0.493210 0.506988 0.337082 -0.008604
C42   C     C_R   0.994966 0.502942 0.333189 -0.015373
C43   C     C_R   0.064749 0.530607 0.912181 0.014631
C44   C     C_R   0.467516 0.534082 0.912023 0.030067
C45   C     C_R   0.466973 0.928399 0.910613 0.031476
C46   C     C_R   0.532886 0.066231 0.411743 0.024712
C47   C     C_R   0.534733 0.471284 0.412981 0.031197
C48   C     C_R   0.924580 0.463993 0.409932 0.032208
C49   C     C_R   0.576689 0.443879 0.446248 0.566745
C50   C     C_R   0.557335 0.134379 0.445526 0.564502
C51   C     C_R   0.865642 0.423275 0.445762 0.576944
C52   C     C_R   0.443078 0.576809 0.945900 0.567662
C53   C     C_R   0.133639 0.556801 0.945800 0.555355
C54   C     C_R   0.423157 0.865245 0.945511 0.578576
C55   C     C_R   0.914314 0.455161 0.593397 -0.024951
C56   C     C_R   0.542029 0.462019 0.592002 -0.025247
C57   C     C_R   0.538544 0.083689 0.592754 -0.006110
C58   C     C_R   0.455370 0.913350 0.093602 -0.013108
C59   C     C_R   0.459273 0.540401 0.092132 -0.010646
C60   C     C_R   0.079800 0.536946 0.091637 0.000440
C61   C     C_R   0.934123 0.391180 0.615843 0.093249
C62   C     C_R   0.603768 0.548697 0.613423 0.099717
C63   C     C_R   0.461962 0.075561 0.617129 0.086504
C64   C     C_R   0.398780 0.946011 0.114211 0.093694
C65   C     C_R   0.551761 0.590895 0.110950 0.088653
C66   C     C_R   0.044090 0.444928 0.110594 0.090467
C67   C     C_R   0.944798 0.405209 0.656260 -0.136607
C68   C     C_R   0.588922 0.548292 0.653687 -0.132572
C69   C     C_R   0.467165 0.063424 0.656998 -0.153470
C70   C     C_R   0.409216 0.955882 0.154932 -0.158831
C71   C     C_R   0.556161 0.575094 0.151041 -0.164276
C72   C     C_R   0.020893 0.437122 0.150096 -0.173919
C73   C     C_R   0.939082 0.482154 0.674243 -0.032759
C74   C     C_R   0.512908 0.466006 0.672282 -0.035197
C75   C     C_R   0.544537 0.055430 0.673078 -0.028513
C76   C     C_R   0.475443 0.936226 0.174988 -0.021668
C77   C     C_R   0.471082 0.511963 0.172365 -0.025793
C78   C     C_R   0.030442 0.518043 0.170581 -0.027028
C79   C     C_R   0.932048 0.552903 0.651392 0.155412
C80   C     C_R   0.443251 0.385331 0.650194 0.150643
C81   C     C_R   0.613782 0.049780 0.648501 0.152908
C82   C     C_R   0.540121 0.916067 0.153544 0.138303
C83   C     C_R   0.381637 0.453804 0.152409 0.135101
C84   C     C_R   0.055240 0.606383 0.151189 0.135811
C85   C     C_R   0.923949 0.541762 0.610854 0.259312
C86   C     C_R   0.455310 0.385625 0.609724 0.260368
C87   C     C_R   0.608571 0.060450 0.608082 0.259354
C88   C     C_R   0.533791 0.910478 0.112879 0.227139
C89   C     C_R   0.377728 0.463371 0.112049 0.226557
C90   C     C_R   0.076155 0.614499 0.111332 0.245337
C91   C     C_R   0.959285 0.492538 0.795402 0.340396
C92   C     C_R   0.503507 0.478155 0.793360 0.342316
C93   C     C_R   0.539844 0.034058 0.794040 0.345424
C94   C     C_R   0.481283 0.947032 0.297109 0.346420
C95   C     C_R   0.484798 0.512321 0.294314 0.343755
C96   C     C_R   0.006343 0.506185 0.290798 0.339033
Cr1   Cr    Cr6+3 0.522350 0.263930 0.500020 1.049516
Cr2   Cr    Cr6+3 0.736070 0.258420 0.500020 1.030227
Cr3   Cr    Cr6+3 0.741580 0.477650 0.500020 1.048298
Cr4   Cr    Cr6+3 0.263930 0.522350 0.000020 1.046837
Cr5   Cr    Cr6+3 0.258420 0.736070 0.000020 1.018211
Cr6   Cr    Cr6+3 0.477650 0.741580 0.000020 1.045642
H1    H     H_    0.956790 0.355791 0.674358 0.136283
H2    H     H_    0.637212 0.611438 0.671267 0.134382
H3    H     H_    0.410998 0.062133 0.675791 0.134128
H4    H     H_    0.364457 0.977204 0.171556 0.141572
H5    H     H_    0.625334 0.614714 0.166365 0.144758
H6    H     H_    0.998958 0.368606 0.165299 0.120087
H7    H     H_    0.997455 0.641040 0.843074 0.148008
H8    H     H_    0.348336 0.373122 0.838483 0.135849
H9    H     H_    0.626140 0.959920 0.837354 0.136209
H10   H     H_    0.647721 0.016996 0.338637 0.161489
H11   H     H_    0.370746 0.357707 0.340078 0.141317
H12   H     H_    0.925712 0.591497 0.329836 0.137594
N1    N     N_R   0.899520 0.406601 0.776861 -0.226958
N2    N     N_R   0.588274 0.499759 0.774784 -0.233913
N3    N     N_R   0.527843 0.104592 0.776399 -0.233151
N4    N     N_R   0.402513 0.938043 0.277156 -0.178104
N5    N     N_R   0.557640 0.585523 0.273110 -0.234742
N6    N     N_R   0.089900 0.519701 0.273504 -0.247449
N7    N     N_R   0.891584 0.403827 0.738330 -0.225708
N8    N     N_R   0.590923 0.494872 0.736234 -0.222582
N9    N     N_R   0.531925 0.112976 0.737861 -0.222939
N10   N     N_R   0.399952 0.933205 0.238494 -0.258295
N11   N     N_R   0.553536 0.585126 0.234493 -0.262150
N12   N     N_R   0.097039 0.522094 0.234929 -0.250695
N13   N     N_R   0.000457 0.573540 0.735419 -0.230109
N14   N     N_R   0.423355 0.443980 0.733314 -0.236854
N15   N     N_R   0.563129 0.982546 0.733163 -0.238016
N16   N     N_R   0.555023 0.947158 0.238147 -0.179787
N17   N     N_R   0.404911 0.436503 0.236514 -0.178570
N18   N     N_R   0.937813 0.498206 0.229747 -0.228706
N19   N     N_R   0.008601 0.576124 0.773924 -0.241111
N20   N     N_R   0.420984 0.449421 0.771811 -0.236003
N21   N     N_R   0.558651 0.974039 0.771621 -0.237717
N22   N     N_R   0.557308 0.951293 0.276699 -0.259940
N23   N     N_R   0.408708 0.437348 0.275091 -0.242246
N24   N     N_R   0.930672 0.495568 0.268212 -0.227454
O1    O     O_R   0.498680 0.159540 0.541860 -0.471987
O2    O     O_R   0.840460 0.339140 0.541860 -0.485625
O3    O     O_R   0.660860 0.501320 0.541860 -0.487940
O4    O     O_R   0.159540 0.498680 0.041860 -0.470635
O5    O     O_R   0.339140 0.840460 0.041860 -0.488472
O6    O     O_R   0.501320 0.660860 0.041860 -0.487617
O7    O     O_R   0.532760 0.358060 0.540030 -0.464039
O8    O     O_R   0.641940 0.174700 0.540030 -0.464509
O9    O     O_R   0.825300 0.467240 0.540030 -0.461453
O10   O     O_R   0.358060 0.532760 0.040030 -0.465767
O11   O     O_R   0.174700 0.641940 0.040030 -0.468153
O12   O     O_R   0.467240 0.825300 0.040030 -0.460125
O13   O     O_R   0.498590 0.161190 0.456930 -0.486776
O14   O     O_R   0.838810 0.337400 0.456930 -0.522566
O15   O     O_R   0.662600 0.501410 0.456930 -0.483401
O16   O     O_R   0.161190 0.498590 0.956930 -0.473693
O17   O     O_R   0.337400 0.838810 0.956930 -0.516658
O18   O     O_R   0.501410 0.662600 0.956930 -0.483662
O19   O     O_R   0.532680 0.359580 0.461300 -0.482052
O20   O     O_R   0.640420 0.173100 0.461300 -0.521176
O21   O     O_R   0.826900 0.467320 0.461300 -0.478956
O22   O     O_R   0.359580 0.532680 0.961300 -0.479122
O23   O     O_R   0.173100 0.640420 0.961300 -0.521852
O24   O     O_R   0.467320 0.826900 0.961300 -0.476614
O25   O     O_3   0.666667 0.333333 0.499990 -0.261086
O26   O     O_3   0.333333 0.666667 0.999990 -0.260043
N25   N     N_2   0.940654 0.312787 0.597321 -0.468430
H13   H     H_    0.984398 0.333549 0.572793 0.247663
C97   C     C_3   0.943591 0.236813 0.620187 -0.275022
H14   H     H_    0.937667 0.177855 0.600586 0.147957
H15   H     H_    0.880394 0.203101 0.640669 0.196232
H16   H     H_    0.014336 0.267929 0.636255 0.107135
N26   N     N_2   0.680667 0.633453 0.594063 -0.460693
H17   H     H_    0.659693 0.650744 0.568181 0.242443
C98   C     C_3   0.751109 0.718335 0.616096 -0.282273
H18   H     H_    0.808172 0.772614 0.596141 0.130283
H19   H     H_    0.788662 0.696259 0.637874 0.194339
H20   H     H_    0.713789 0.754133 0.630542 0.106877
N27   N     N_2   0.383148 0.086566 0.602377 -0.442854
H21   H     H_    0.353816 0.114390 0.622134 0.281430
C99   C     C_3   0.307746 0.000477 0.582481 -0.293231
H22   H     H_    0.252814 0.017396 0.569800 0.136613
H23   H     H_    0.269626 0.938168 0.603234 0.113493
H24   H     H_    0.340256 0.978529 0.558504 0.151742
N28   N     N_2   0.331587 0.966536 0.093566 -0.470685
H25   H     H_    0.356283 0.997982 0.066562 0.251897
C100  C     C_3   0.277274 0.005004 0.113960 -0.303436
H26   H     H_    0.229960 0.016391 0.093067 0.123522
H27   H     H_    0.328836 0.077017 0.127551 0.133280
H28   H     H_    0.228354 0.951592 0.136215 0.164326
N29   N     N_2   0.637703 0.657868 0.089252 -0.473644
H29   H     H_    0.642129 0.633564 0.061869 0.244603
C101  C     C_3   0.731866 0.714638 0.108457 -0.302470
H30   H     H_    0.787595 0.764950 0.087127 0.124174
H31   H     H_    0.756763 0.664933 0.120389 0.132149
H32   H     H_    0.726621 0.760516 0.131883 0.160549
N30   N     N_2   0.037145 0.361730 0.090941 -0.461285
H33   H     H_    0.042485 0.311842 0.108857 0.247420
C102  C     C_3   0.955166 0.314345 0.064277 -0.302716
H34   H     H_    0.959320 0.254937 0.048373 0.123823
H35   H     H_    0.957309 0.367963 0.042645 0.142402
H36   H     H_    0.884416 0.281459 0.080513 0.124317
O27   O     O_3   0.910255 0.608953 0.589597 -0.499906
C103  C     C_3   0.995260 0.667126 0.566960 0.004987
H37   H     H_    0.009682 0.621355 0.546202 0.107619
H38   H     H_    0.061125 0.708831 0.585767 0.103260
C104  C     C_3   0.980092 0.740704 0.543549 -0.362781
H39   H     H_    0.968129 0.789483 0.563445 0.140388
H40   H     H_    0.046161 0.786592 0.525408 0.070314
H41   H     H_    0.915021 0.701092 0.524259 0.159151
O28   O     O_3   0.388664 0.303345 0.588987 -0.509051
C105  C     C_3   0.333484 0.329427 0.564194 0.001338
H42   H     H_    0.380196 0.379617 0.540605 0.111560
H43   H     H_    0.299525 0.366322 0.580482 0.097513
C106  C     C_3   0.251521 0.236504 0.545590 -0.370920
H44   H     H_    0.202296 0.185451 0.568420 0.142724
H45   H     H_    0.207611 0.255720 0.525898 0.073867
H46   H     H_    0.283446 0.199084 0.528532 0.157410
O29   O     O_3   0.681328 0.061494 0.584870 -0.511686
C107  C     C_3   0.638627 0.979060 0.559746 -0.005119
H47   H     H_    0.594988 0.988647 0.536492 0.119234
H48   H     H_    0.589762 0.909467 0.575761 0.097816
C108  C     C_3   0.720248 0.968624 0.540503 -0.376533
H49   H     H_    0.763591 0.955864 0.562908 0.143200
H50   H     H_    0.687911 0.905281 0.520094 0.074764
H51   H     H_    0.770050 0.036737 0.524075 0.150571
O30   O     O_3   0.596470 0.887608 0.092996 -0.525776
C109  C     C_3   0.670090 0.973832 0.074680 -0.002857
H52   H     H_    0.715733 0.030603 0.096690 0.110322
H53   H     H_    0.637485 0.005024 0.054332 0.110218
C110  C     C_3   0.736840 0.948684 0.051296 -0.357453
H54   H     H_    0.693165 0.892202 0.029026 0.165057
H55   H     H_    0.794738 0.015787 0.036493 0.064260
H56   H     H_    0.772632 0.919663 0.070875 0.149685
O31   O     O_3   0.288335 0.406223 0.093580 -0.528896
C111  C     C_3   0.291518 0.328952 0.073831 -0.001405
H57   H     H_    0.298726 0.278920 0.094868 0.108740
H58   H     H_    0.353933 0.357751 0.052782 0.109172
C112  C     C_3   0.196374 0.269586 0.051154 -0.355222
H59   H     H_    0.186947 0.317942 0.030095 0.177856
H60   H     H_    0.198649 0.209527 0.034964 0.064458
H61   H     H_    0.132620 0.236664 0.071384 0.144789
O32   O     O_3   0.103620 0.703122 0.093032 -0.508569
C113  C     C_3   0.020792 0.694715 0.073395 0.015234
H62   H     H_    0.962271 0.683779 0.094520 0.130710
H63   H     H_    0.990314 0.632399 0.052301 0.094748
C114  C     C_3   0.051406 0.789067 0.050794 -0.356618
H64   H     H_    0.110087 0.801997 0.029555 0.164122
H65   H     H_    0.987072 0.782931 0.034831 0.061692
H66   H     H_    0.079492 0.852499 0.071069 0.156197
N31   N     N_2   0.026414 0.357298 0.915190 -0.472887
H67   H     H_    0.031776 0.306595 0.897851 0.267449
C115  C     C_3   0.954323 0.311979 0.945912 -0.297864
H68   H     H_    0.959645 0.368342 0.966845 0.142301
H69   H     H_    0.878865 0.272188 0.933537 0.123903
H70   H     H_    0.968061 0.258578 0.961939 0.126097
N32   N     N_2   0.644594 0.656127 0.918532 -0.484170
H71   H     H_    0.703174 0.709158 0.902808 0.270840
C116  C     C_3   0.674972 0.619329 0.951180 -0.303652
H72   H     H_    0.704494 0.572131 0.940889 0.118544
H73   H     H_    0.612313 0.575951 0.971209 0.144576
H74   H     H_    0.733452 0.682268 0.967699 0.126505
N33   N     N_2   0.367686 0.008395 0.919636 -0.496689
H75   H     H_    0.393543 0.082625 0.923417 0.250296
C117  C     C_3   0.263022 0.952344 0.911640 -0.260048
H76   H     H_    0.237142 0.001517 0.900026 0.123040
H77   H     H_    0.222730 0.919196 0.939085 0.149836
H78   H     H_    0.244951 0.892586 0.890261 0.153491
N34   N     N_2   0.354734 0.995546 0.423088 -0.510514
H79   H     H_    0.302995 0.923198 0.428930 0.238256
C118  C     C_3   0.312256 0.056558 0.413745 -0.274883
H80   H     H_    0.312049 0.097012 0.440151 0.174457
H81   H     H_    0.354517 0.110587 0.390457 0.162901
H82   H     H_    0.234795 0.010174 0.403993 0.093465
N35   N     N_2   0.660778 0.647113 0.419638 -0.483876
H83   H     H_    0.716426 0.702905 0.403676 0.262739
C119  C     C_3   0.623972 0.683457 0.450190 -0.299242
H84   H     H_    0.582841 0.717362 0.437482 0.132870
H85   H     H_    0.686729 0.740095 0.467374 0.124632
H86   H     H_    0.574887 0.622789 0.470147 0.139037
N36   N     N_2   0.025732 0.388368 0.423631 -0.502749
H87   H     H_    0.101545 0.424669 0.425357 0.249356
C120  C     C_3   0.981580 0.282335 0.422261 -0.268068
H88   H     H_    0.032990 0.262114 0.408397 0.129264
H89   H     H_    0.911494 0.247598 0.405762 0.162257
H90   H     H_    0.966204 0.252833 0.452346 0.142932
N37   N     N_2   0.922951 0.630428 0.668768 -0.476078
H91   H     H_    0.882061 0.613091 0.694003 0.262691
C121  C     C_3   0.010481 0.727122 0.668517 -0.272964
H92   H     H_    0.030845 0.754897 0.698737 0.146686
H93   H     H_    0.995233 0.778700 0.651927 0.144212
H94   H     H_    0.074458 0.726046 0.655124 0.135396
N38   N     N_2   0.367966 0.298404 0.668534 -0.478945
H95   H     H_    0.387106 0.282117 0.695020 0.262953
C122  C     C_3   0.270957 0.287947 0.668597 -0.286646
H96   H     H_    0.219033 0.220114 0.684701 0.130216
H97   H     H_    0.242877 0.280758 0.638580 0.158867
H98   H     H_    0.272590 0.352218 0.682888 0.159684
N39   N     N_2   0.695250 0.044482 0.664057 -0.482357
H99   H     H_    0.721617 0.080214 0.690198 0.258659
C123  C     C_3   0.685714 0.947857 0.663066 -0.286762
H100  H     H_    0.752428 0.951670 0.675929 0.128663
H101  H     H_    0.679096 0.921544 0.632762 0.158994
H102  H     H_    0.620227 0.894251 0.679950 0.161306
N40   N     N_2   0.607904 0.894927 0.172688 -0.481262
H103  H     H_    0.675679 0.924581 0.159270 0.265935
C124  C     C_3   0.567483 0.791818 0.181977 -0.260488
H104  H     H_    0.623577 0.781359 0.197512 0.155921
H105  H     H_    0.545981 0.747399 0.154910 0.179072
H106  H     H_    0.501855 0.765433 0.201060 0.165589
N41   N     N_2   0.293182 0.390270 0.172927 -0.483480
H107  H     H_    0.249631 0.323275 0.159579 0.263646
C125  C     C_3   0.237555 0.436996 0.184373 -0.255404
H108  H     H_    0.171835 0.384235 0.201346 0.149645
H109  H     H_    0.212914 0.460397 0.158268 0.173628
H110  H     H_    0.283140 0.502415 0.202852 0.172632
N42   N     N_2   0.064327 0.689557 0.171618 -0.497916
H111  H     H_    0.014440 0.672914 0.193888 0.262053
C126  C     C_3   0.164026 0.760151 0.183015 -0.267020
H112  H     H_    0.165755 0.825632 0.196150 0.140889
H113  H     H_    0.213602 0.784649 0.157338 0.200570
H114  H     H_    0.191282 0.727035 0.204753 0.164487
N43   N     N_2   0.949603 0.325435 0.839661 -0.523445
H115  H     H_    0.978170 0.325735 0.812649 0.270376
C127  C     C_3   0.847690 0.250605 0.845971 -0.285818
H116  H     H_    0.806187 0.233461 0.818227 0.175549
H117  H     H_    0.811082 0.274407 0.867598 0.144485
H118  H     H_    0.844600 0.182493 0.856834 0.135209
N44   N     N_2   0.675527 0.620092 0.841056 -0.527072
H119  H     H_    0.677105 0.649545 0.814124 0.272973
C128  C     C_3   0.740502 0.580022 0.845013 -0.286707
H120  H     H_    0.709515 0.507933 0.829974 0.178071
H121  H     H_    0.751831 0.570083 0.876115 0.142952
H122  H     H_    0.813300 0.631767 0.832031 0.145074
N45   N     N_2   0.415948 0.086124 0.843853 -0.510433
H123  H     H_    0.465233 0.155968 0.834064 0.268677
C129  C     C_3   0.327397 0.032909 0.820683 -0.279051
H124  H     H_    0.343321 0.055354 0.789729 0.166394
H125  H     H_    0.271387 0.050959 0.831111 0.134983
H126  H     H_    0.296092 0.951832 0.822592 0.151138
N46   N     N_2   0.314693 0.896244 0.349747 -0.492322
H127  H     H_    0.264587 0.916019 0.358913 0.257717
C130  C     C_3   0.278132 0.791621 0.353314 -0.297983
H128  H     H_    0.203560 0.749996 0.340193 0.155087
H129  H     H_    0.273171 0.770773 0.384468 0.118575
H130  H     H_    0.327228 0.770848 0.337791 0.161350
N47   N     N_2   0.615240 0.684882 0.345293 -0.525936
H131  H     H_    0.664778 0.698763 0.323174 0.274493
C131  C     C_3   0.556056 0.731402 0.341135 -0.286851
H132  H     H_    0.500609 0.695497 0.317739 0.166136
H133  H     H_    0.604306 0.810299 0.333595 0.154608
H134  H     H_    0.517902 0.727070 0.368909 0.139706
N48   N     N_2   0.084033 0.411923 0.344704 -0.513187
H135  H     H_    0.148312 0.463541 0.331447 0.268681
C132  C     C_3   0.033289 0.319690 0.323685 -0.283920
H136  H     H_    0.008796 0.330413 0.294776 0.169404
H137  H     H_    0.968034 0.264351 0.340124 0.149818
H138  H     H_    0.083996 0.290400 0.319371 0.142933
N49   N     N_2   0.072218 0.693486 0.911545 -0.522422
H139  H     H_    0.145669 0.737897 0.917808 0.278743
C133  C     C_3   0.005501 0.689417 0.941475 -0.305811
H140  H     H_    0.028437 0.765226 0.951435 0.118836
H141  H     H_    0.006293 0.645730 0.966750 0.142073
H142  H     H_    0.929394 0.655773 0.929790 0.142901
N50   N     N_2   0.296391 0.393855 0.908507 -0.469826
H143  H     H_    0.239867 0.365464 0.888479 0.249366
C134  C     C_3   0.288977 0.319700 0.935515 -0.289262
H144  H     H_    0.300446 0.264031 0.920047 0.122592
H145  H     H_    0.214596 0.282160 0.948968 0.129572
H146  H     H_    0.344424 0.353749 0.959076 0.142460
N51   N     N_2   0.590445 0.873955 0.904733 -0.463947
H147  H     H_    0.604138 0.834997 0.883894 0.255264
C135  C     C_3   0.676420 0.934276 0.928259 -0.283157
H148  H     H_    0.735395 0.993073 0.910211 0.111505
H149  H     H_    0.704361 0.887658 0.940766 0.141246
H150  H     H_    0.657622 0.968503 0.952602 0.143066
N52   N     N_2   0.707144 0.104919 0.403797 -0.520126
H151  H     H_    0.740732 0.178821 0.410155 0.284891
C136  C     C_3   0.726382 0.045509 0.430632 -0.296744
H152  H     H_    0.805910 0.083563 0.437889 0.115274
H153  H     H_    0.706061 0.973361 0.417194 0.145175
H154  H     H_    0.683592 0.032746 0.457868 0.148975
N53   N     N_2   0.383165 0.307771 0.411635 -0.488926
H155  H     H_    0.342484 0.252082 0.392149 0.232420
C137  C     C_3   0.321003 0.314527 0.441133 -0.297900
H156  H     H_    0.275092 0.241251 0.454839 0.115395
H157  H     H_    0.271557 0.338166 0.427875 0.129530
H158  H     H_    0.366081 0.367741 0.464143 0.144631
N54   N     N_2   0.854029 0.572966 0.399691 -0.464208
H159  H     H_    0.809435 0.577781 0.378805 0.253300
C138  C     C_3   0.913064 0.665561 0.419677 -0.280189
H160  H     H_    0.864387 0.691237 0.431953 0.148876
H161  H     H_    0.965778 0.722171 0.399119 0.113838
H162  H     H_    0.954549 0.656657 0.444001 0.143269

loop_
_geom_bond_atom_site_label_1
_geom_bond_atom_site_label_2
_ccdc_geom_bond_type
N32   C116  S    
N49   H139  S    
C128  H121  S    
C6    C58   S    
C36   C42   A    
N38   H95   S    
C7    C73   S    
Cr2   O14   S    
N45   H123  S    
C120  H90   S    
N26   C98   S    
C93   N3    A    
C49   O15   A    
C1    C56   S    
C10   N10   A    
C12   N12   A    
Cr5   O17   S    
C4    O10   A    
C38   C92   S    
C5    O11   A    
C102  H35   S    
C136  H154  S    
C80   C86   A    
C64   N28   S    
C66   C72   A    
C113  H63   S    
C121  H93   S    
C33   H9    S    
C130  H129  S    
C114  H64   S    
C25   N49   S    
C15   N45   S    
C111  H58   S    
C132  H137  S    
Cr2   O25   S    
C106  H45   S    
C113  C114  S    
N42   C126  S    
C103  H37   S    
C101  H30   S    
C68   H2    S    
C115  H68   S    
N40   C124  S    
C129  H125  S    
C69   H3    S    
C95   N5    A    
C31   C37   A    
C111  C112  S    
C126  H114  S    
N28   H25   S    
C110  H54   S    
C14   C38   A    
C56   C86   A    
N40   H103  S    
C8    C74   S    
N47   H131  S    
N4    N10   A    
C92   N2    A    
C15   C39   A    
N2    N8    A    
C16   C40   A    
C65   N29   S    
C51   O14   A    
C118  H81   S    
N53   H155  S    
C56   C62   A    
C137  H156  S    
C79   C85   A    
C20   N32   S    
C117  H77   S    
Cr3   O9    S    
C12   N18   A    
Cr1   O7    S    
Cr3   O3    S    
C58   C88   A    
C4    O6    A    
N52   H151  S    
N41   H107  S    
C60   C90   A    
C122  H98   S    
C29   C35   A    
C30   C36   A    
C101  H32   S    
N37   C121  S    
C134  H144  S    
C23   N35   S    
C9    N9    A    
C35   H11   S    
N36   C120  S    
C129  H124  S    
N39   H99   S    
C57   C87   A    
C135  H149  S    
N43   H115  S    
C114  H66   S    
C133  H140  S    
C25   C31   A    
C3    O9    A    
N1    N7    A    
Cr3   O21   S    
C34   H10   S    
C1    O7    A    
N48   H135  S    
C86   O28   S    
C36   H12   S    
C25   C43   A    
C2    C57   S    
C67   H1    S    
C97   H15   S    
C50   O20   A    
C28   C46   A    
N31   H67   S    
C17   C23   A    
C29   C47   A    
C18   C24   A    
C30   C48   A    
N38   C122  S    
C110  H56   S    
C29   N53   S    
C18   C42   A    
C96   N24   A    
N33   H75   S    
C100  H27   S    
C68   C74   A    
O32   C113  S    
C59   C89   A    
C89   O31   S    
N29   C101  S    
C72   C78   A    
C11   C77   S    
N15   N21   A    
C3    C55   S    
C50   O13   A    
C8    N14   A    
C72   H6    S    
N27   C99   S    
C28   N52   S    
C91   N19   A    
C26   N50   S    
C138  H162  S    
O31   C111  S    
C44   C52   S    
N25   C97   S    
C112  H59   S    
N39   C123  S    
C49   O19   A    
C84   C90   A    
C7    N7    A    
C20   C44   A    
C57   C63   A    
C21   C45   A    
C98   H19   S    
C58   C64   A    
C83   C89   A    
C95   N23   A    
C23   C47   A    
C24   C48   A    
C119  H86   S    
C134  H146  S    
C76   C82   A    
N44   C128  S    
C115  H70   S    
O29   C107  S    
N30   H33   S    
C127  H117  S    
C64   C70   A    
C122  H96   S    
N14   N20   A    
C61   C67   A    
C107  H48   S    
N36   H87   S    
C135  H150  S    
O28   C105  S    
C73   C79   A    
C13   N43   S    
Cr3   O25   S    
N27   H21   S    
C105  H43   S    
C125  H109  S    
Cr6   O18   S    
C71   C77   A    
C107  C108  S    
N53   C137  S    
Cr4   O16   S    
C5    C60   S    
C92   N20   A    
C40   C94   S    
C93   N21   A    
N34   H79   S    
C120  H89   S    
C105  C106  S    
C116  H74   S    
C137  H158  S    
C59   C65   A    
C131  H134  S    
C94   N4    A    
C8    N8    A    
C5    O4    A    
C82   C88   A    
C55   C61   A    
N35   C119  S    
C133  H142  S    
C61   N25   S    
C62   C68   A    
C102  H34   S    
C35   C41   A    
C123  H102  S    
C136  H153  S    
C28   C34   A    
C17   N47   S    
Cr6   O26   S    
C109  H52   S    
C112  H61   S    
C7    N13   A    
Cr1   O1    S    
N30   C102  S    
C79   N37   S    
C52   O22   A    
C71   H5    S    
C119  H84   S    
N26   H17   S    
C132  H136  S    
C117  H76   S    
C106  H44   S    
C26   C32   A    
C62   N26   S    
C103  H38   S    
C42   C96   S    
C2    O1    A    
C11   N11   A    
O30   C109  S    
C108  H51   S    
N6    N12   A    
C130  H130  S    
N18   N24   A    
C135  H148  S    
C128  H120  S    
C126  H113  S    
C39   C93   S    
C22   N34   S    
C43   C53   S    
Cr2   O20   S    
Cr1   O25   S    
C103  C104  S    
N50   H143  S    
C67   C73   A    
N47   C131  S    
C85   O27   S    
C99   H24   S    
C27   C45   A    
C60   C66   A    
N42   H111  S    
N49   C133  S    
C74   C80   A    
C118  H80   S    
C19   C43   A    
N45   C129  S    
C13   C19   A    
C26   C44   A    
C14   C20   A    
C70   H4    S    
C54   O17   A    
C19   N31   S    
N54   C138  S    
C104  H39   S    
C27   C33   A    
C127  H116  S    
C55   C85   A    
C102  H36   S    
C123  H100  S    
C10   N16   A    
N37   H91   S    
N17   N23   A    
C14   N44   S    
N46   H127  S    
Cr6   O24   S    
C113  H62   S    
Cr1   O13   S    
C121  H94   S    
Cr4   O26   S    
C81   C87   A    
Cr6   O12   S    
N5    N11   A    
C22   C46   A    
C114  H65   S    
C2    O8    A    
C111  H57   S    
C30   N54   S    
C97   H14   S    
C132  H138  S    
C106  H46   S    
C66   N30   S    
C16   C22   A    
Cr5   O26   S    
N13   N19   A    
C129  H126  S    
N48   C132  S    
C24   N36   S    
N28   C100  S    
N44   H119  S    
C110  H55   S    
C18   N48   S    
N34   C118  S    
C100  H26   S    
C41   C95   S    
Cr3   O15   S    
C91   N1    A    
C69   C75   A    
N29   H29   S    
C1    O3    A    
C99   H22   S    
C6    O12   A    
C83   N41   S    
C108  H50   S    
C124  H104  S    
C32   H8    S    
C118  H82   S    
C138  H161  S    
Cr4   O4    S    
C117  H78   S    
C125  H108  S    
N25   H13   S    
O27   C103  S    
C101  H31   S    
C47   C49   S    
C98   H18   S    
C33   C39   A    
C34   C40   A    
C27   N51   S    
C119  H85   S    
C116  H72   S    
C134  H145  S    
C115  H69   S    
C77   C83   A    
Cr5   O11   S    
C84   N42   S    
C10   C76   S    
C48   C51   S    
C121  H92   S    
N43   C127  S    
C12   C78   S    
C94   N22   A    
C32   C38   A    
C13   C37   A    
C53   O16   A    
N50   C134  S    
C97   H16   S    
N52   C136  S    
C31   H7    S    
N31   C115  S    
C37   C91   S    
C63   C69   A    
N33   C117  S    
C75   C81   A    
C100  H28   S    
Cr2   O8    S    
C124  H105  S    
C120  H88   S    
C65   C71   A    
Cr2   O2    S    
C116  H73   S    
Cr1   O19   S    
C137  H157  S    
C81   N39   S    
C131  H133  S    
C108  H49   S    
Cr4   O22   S    
C88   O30   S    
Cr6   O6    S    
C124  H106  S    
N35   H83   S    
C133  H141  S    
C54   O24   A    
C123  H101  S    
C136  H152  S    
C21   N33   S    
N46   C130  S    
C45   C54   S    
C109  H53   S    
C112  H60   S    
C70   C76   A    
C128  H122  S    
C125  H110  S    
N32   H71   S    
C82   N40   S    
N51   H147  S    
C104  H41   S    
C96   N6    A    
N16   N22   A    
C11   N17   A    
C80   N38   S    
C9    N15   A    
C52   O18   A    
C109  C110  S    
C46   C50   S    
C63   N27   S    
C127  H118  S    
Cr5   O23   S    
N3    N9    A    
C122  H97   S    
C131  H132  S    
Cr5   O5    S    
C53   O23   A    
C107  H47   S    
C138  H160  S    
N41   C125  S    
Cr4   O10   S    
C4    C59   S    
C51   O21   A    
C98   H20   S    
C87   O29   S    
C126  H112  S    
C17   C41   A    
C78   C84   A    
C15   C21   A    
C105  H42   S    
C90   O32   S    
C130  H128  S    
C3    O2    A    
C9    C75   S    
N51   C135  S    
C6    O5    A    
C104  H40   S    
C16   N46   S    
N54   H159  S    
C99   H23   S    
