data_mof_unit_37323.cif
_audit_creation_date              2012-12-10T16:49:25-0500
_audit_creation_method            fapswitch 2.2
_symmetry_space_group_name_H-M    P1
_symmetry_Int_Tables_number       1
_space_group_crystal_system       triclinic
_cell_length_a                    7.790793
_cell_length_b                    8.577148
_cell_length_c                    12.829418
_cell_angle_alpha                 89.653769
_cell_angle_beta                  87.020065
_cell_angle_gamma                 92.8522
_cell_volume                      855.045625083

loop_
_atom_site_label
_atom_site_type_symbol
_atom_type_description
_atom_site_fract_x
_atom_site_fract_y
_atom_site_fract_z
_atom_type_partial_charge
C1    C     C_R   0.455336 0.205633 0.497700 0.945544
C2    C     C_R   0.697359 0.417786 0.138331 0.522489
C3    C     C_R   0.565456 0.439064 0.868585 -0.348212
C4    C     C_R   0.434543 0.560933 0.131415 -0.348213
C5    C     C_R   0.565494 0.458345 0.974737 0.123976
C6    C     C_R   0.434504 0.541651 0.025264 0.123971
C7    C     C_2   0.431258 0.042613 0.497886 -0.370267
C8    C     C_2   0.568741 0.957386 0.502108 -0.370264
C9    C     C_3   0.983732 0.415013 0.168856 -0.226189
C10   C     C_3   0.016269 0.584954 0.831135 -0.226199
C11   C     C_3   0.071068 0.754560 0.372242 -0.187026
C12   C     C_R   0.544664 0.794366 0.502298 0.945541
C13   C     C_3   0.928911 0.245425 0.627746 -0.186995
C14   C     C_R   0.464228 0.502594 0.699870 0.892709
C15   C     C_R   0.535772 0.497406 0.300130 0.892704
C16   C     C_R   0.560205 0.494126 0.188376 -0.149516
C17   C     C_R   0.439794 0.505871 0.811624 -0.149520
C18   C     C_R   0.303498 0.602456 0.969429 -0.326917
C19   C     C_R   0.696498 0.397537 0.030572 -0.326926
C20   C     C_R   0.302639 0.582208 0.861669 0.522484
H1    H     H_    0.332710 0.624221 0.170269 0.167748
H2    H     H_    0.967064 0.627653 0.908065 0.136866
H3    H     H_    0.014073 0.454926 0.831025 0.154652
H4    H     H_    0.926617 0.621331 0.772191 0.215938
H5    H     H_    0.202206 0.740074 0.337525 0.173603
H6    H     H_    0.073544 0.825290 0.444533 0.145403
H7    H     H_    0.000613 0.820173 0.314725 0.139944
H8    H     H_    0.926329 0.174731 0.555441 0.145423
H9    H     H_    0.797812 0.259935 0.662521 0.173567
H10   H     H_    0.999413 0.179756 0.685212 0.139944
H11   H     H_    0.667290 0.375779 0.829731 0.167740
H12   H     H_    0.204762 0.668251 0.009038 0.144739
H13   H     H_    0.795232 0.331739 0.990962 0.144737
H14   H     H_    0.300503 0.993312 0.495374 0.164882
H15   H     H_    0.699496 0.006686 0.504619 0.164868
H16   H     H_    0.985947 0.545040 0.168947 0.154634
H17   H     H_    0.032931 0.372286 0.091933 0.136863
H18   H     H_    0.073377 0.378645 0.227805 0.215944
N1    N     N_2   0.054030 0.541640 0.471970 0.197977
N2    N     N_2   0.945970 0.458360 0.528030 0.197975
O1    O     O_R   0.609680 0.261530 0.506880 -0.642444
O2    O     O_3   0.181735 0.652113 0.803796 -0.596074
O3    O     O_3   0.982925 0.609999 0.391172 -0.521482
O4    O     O_3   0.017083 0.389975 0.608816 -0.521491
O5    O     O_R   0.390320 0.738470 0.493120 -0.642447
O6    O     O_R   0.323330 0.288220 0.488910 -0.606553
O7    O     O_R   0.676670 0.711780 0.511090 -0.606570
O8    O     O_R   0.619510 0.488830 0.661140 -0.658374
O9    O     O_R   0.380490 0.511170 0.338860 -0.658371
O10   O     O_R   0.333160 0.515520 0.643180 -0.526509
O11   O     O_R   0.666840 0.484480 0.356820 -0.526505
O12   O     O_3   0.818258 0.347876 0.196206 -0.596071
Zn1   Zn    Zn3+2 0.691200 0.482180 0.511990 1.033132
Zn2   Zn    Zn3+2 0.308800 0.517820 0.488010 1.033138

loop_
_geom_bond_atom_site_label_1
_geom_bond_atom_site_label_2
_ccdc_geom_bond_type
C4    C16   A    
C9    H16   S    
C20   O2    S    
C13   H8    S    
C11   O3    S    
C5    C19   A    
C15   O11   A    
C10   H3    S    
C10   O2    S    
C2    C16   A    
C11   H7    S    
C8    C12   S    
O6    Zn2   S    
C9    H17   S    
C7    C8    D    
O10   Zn2   S    
C10   H2    S    
C3    H11   S    
C4    H1    S    
C14   C17   S    
O1    Zn1   S    
C14   O10   A    
C9    O12   S    
C2    O12   S    
C12   O7    A    
C5    C6    A    
O7    Zn1   S    
C1    O1    A    
C9    H18   S    
O5    Zn2   S    
C3    C17   A    
C18   C20   A    
C15   O9    A    
O8    Zn1   S    
C6    C18   A    
C7    H14   S    
C1    O6    A    
N1    Zn2   S    
C18   H12   S    
C11   H5    S    
C15   C16   S    
C3    C5    A    
C13   H10   S    
N2    O4    S    
C17   C20   A    
C4    C6    A    
N2    Zn1   S    
C19   H13   S    
C13   H9    S    
N1    N2    D    
C14   O8    A    
N1    O3    S    
C11   H6    S    
C10   H4    S    
C2    C19   A    
C1    C7    S    
C13   O4    S    
O9    Zn2   S    
C12   O5    A    
O11   Zn1   S    
C8    H15   S    
