data_mof_unit_60466.cif
_audit_creation_date              2012-12-10T19:08:02-0500
_audit_creation_method            fapswitch 2.2
_symmetry_space_group_name_H-M    P1
_symmetry_Int_Tables_number       1
_space_group_crystal_system       triclinic
_cell_length_a                    13.047826
_cell_length_b                    13.669999
_cell_length_c                    23.41164
_cell_angle_alpha                 90.060077
_cell_angle_beta                  92.678018
_cell_angle_gamma                 85.481721
_cell_volume                      4158.25019764

loop_
_atom_site_label
_atom_site_type_symbol
_atom_type_description
_atom_site_fract_x
_atom_site_fract_y
_atom_site_fract_z
_atom_type_partial_charge
C1    C     C_R   0.480978 0.684903 0.499362 0.941776
C2    C     C_R   0.470557 0.415723 0.297349 0.085671
C3    C     C_R   0.527486 0.585493 0.762343 0.180097
C4    C     C_R   0.472532 0.414489 0.237660 0.180107
C5    C     C_R   0.494006 0.504762 0.791104 0.139141
C6    C     C_R   0.505999 0.495224 0.208896 0.139134
C7    C     C_1   0.534429 0.212483 0.501350 -0.018900
C8    C     C_1   0.465568 0.787517 0.498659 -0.018965
C9    C     C_2   0.545187 0.021459 0.502298 -0.124455
C10   C     C_2   0.454784 0.978543 0.497735 -0.124491
C11   C     C_1   0.457167 0.874616 0.498229 0.076301
C12   C     C_R   0.519022 0.315097 0.500638 0.941773
C13   C     C_1   0.542819 0.125384 0.501791 0.076330
C14   C     C_2   0.033302 0.472735 0.484014 -0.216871
C15   C     C_2   0.966698 0.527265 0.515986 -0.216861
C16   C     C_R   0.499171 0.501032 0.610576 0.953593
C17   C     C_R   0.500829 0.498968 0.389424 0.953598
C18   C     C_1   0.854696 0.519684 0.511664 0.201289
C19   C     C_1   0.145304 0.480315 0.488336 0.201296
C20   C     C_R   0.414551 0.528611 0.118774 0.579989
C21   C     C_R   0.585453 0.471366 0.881226 0.579982
C22   C     C_R   0.590131 0.463484 0.121109 0.581885
C23   C     C_R   0.460775 0.423088 0.761267 0.162063
C24   C     C_R   0.409875 0.536495 0.878892 0.581886
C25   C     C_R   0.590734 0.466265 0.061620 -0.037115
C26   C     C_R   0.409272 0.533710 0.938380 -0.037129
C27   C     C_R   0.499657 0.498091 0.030055 -0.003293
C28   C     C_R   0.500348 0.501883 0.969946 -0.003291
C29   C     C_R   0.408183 0.526021 0.058544 -0.095212
C30   C     C_R   0.591823 0.473950 0.941457 -0.095198
C31   C     C_R   0.681298 0.440429 0.033634 -0.159821
C32   C     C_R   0.318707 0.559539 0.966366 -0.159820
C33   C     C_R   0.684134 0.446780 0.974298 -0.045563
C34   C     C_R   0.539212 0.576909 0.238731 0.162067
C35   C     C_R   0.315871 0.553183 0.025702 -0.045558
C36   C     C_2   0.786892 0.430861 0.949942 1.017459
C37   C     C_2   0.213113 0.569075 0.050058 1.017485
C38   C     C_2   0.429333 0.334331 0.669616 0.979967
C39   C     C_2   0.570626 0.665683 0.330380 0.979940
C40   C     C_2   0.350864 0.032806 0.490132 0.968111
C41   C     C_2   0.649098 0.967188 0.509908 0.968061
C42   C     C_R   0.462026 0.421298 0.701496 -0.137503
C43   C     C_R   0.537958 0.578704 0.298503 -0.137497
C44   C     C_R   0.497568 0.501789 0.672536 -0.228385
C45   C     C_R   0.502432 0.498207 0.327464 -0.228370
C46   C     C_R   0.529459 0.584263 0.702654 0.085684
H1    H     H_    0.751933 0.419000 0.058288 0.219669
H2    H     H_    0.735764 0.845644 0.537007 0.361745
H3    H     H_    0.248072 0.580963 0.941712 0.219686
H4    H     H_    0.996199 0.579341 0.546419 0.183508
H5    H     H_    0.003801 0.420658 0.453581 0.183507
H6    H     H_    0.920725 0.346617 0.948057 0.368745
H7    H     H_    0.079257 0.653269 0.051934 0.368748
H8    H     H_    0.318284 0.242514 0.652569 0.358863
H9    H     H_    0.681644 0.757536 0.347423 0.358865
H10   H     H_    0.264188 0.154391 0.463104 0.361737
I1    I     I_    0.417282 0.300148 0.808450 -0.141799
I2    I     I_    0.582684 0.699855 0.191544 -0.141781
I3    I     I_    0.575720 0.708809 0.657703 -0.194214
I4    I     I_    0.424314 0.291172 0.342303 -0.194273
I5    I     I_    0.574832 0.707781 0.811096 -0.129768
I6    I     I_    0.425207 0.292186 0.188911 -0.129768
N1    N     N_R   0.503446 0.495355 0.148012 -0.342170
N2    N     N_R   0.496559 0.504627 0.851988 -0.342167
N3    N     N_1   0.234540 0.484780 0.490870 -0.080174
N4    N     N_1   0.765460 0.515220 0.509130 -0.080178
O1    O     O_R   0.402510 0.634760 0.496660 -0.613531
O2    O     O_2   0.665386 0.433531 0.851606 -0.492273
O3    O     O_2   0.675724 0.430671 0.152180 -0.508662
O4    O     O_2   0.324282 0.569311 0.847821 -0.508659
O5    O     O_2   0.816882 0.492000 0.917861 -0.539271
O6    O     O_R   0.851871 0.348603 0.966560 -0.762038
O7    O     O_2   0.183145 0.507938 0.082146 -0.539282
O8    O     O_R   0.148109 0.651304 0.033432 -0.762062
O9    O     O_2   0.487429 0.291569 0.636677 -0.641613
O10   O     O_R   0.331726 0.302074 0.676811 -0.744229
O11   O     O_2   0.512519 0.708433 0.363318 -0.641613
O12   O     O_R   0.597490 0.365240 0.503340 -0.613559
O13   O     O_R   0.668222 0.697968 0.323183 -0.744224
O14   O     O_2   0.274697 0.993054 0.503619 -0.582655
O15   O     O_R   0.338700 0.126836 0.466059 -0.782974
O16   O     O_2   0.725261 0.006884 0.496360 -0.582672
O17   O     O_R   0.661258 0.873216 0.534057 -0.782923
O18   O     O_R   0.572960 0.644530 0.502520 -0.586319
O19   O     O_R   0.427040 0.355470 0.497480 -0.586271
O20   O     O_R   0.414760 0.495140 0.580910 -0.615773
O21   O     O_R   0.585240 0.504860 0.419090 -0.615775
O22   O     O_R   0.585200 0.504910 0.586770 -0.585173
O23   O     O_R   0.414800 0.495090 0.413230 -0.585169
O24   O     O_2   0.334617 0.566450 0.148393 -0.492264
Zn1   Zn    Zn3+2 0.386190 0.493470 0.496090 1.049922
Zn2   Zn    Zn3+2 0.613810 0.506530 0.503910 1.049897

loop_
_geom_bond_atom_site_label_1
_geom_bond_atom_site_label_2
_ccdc_geom_bond_type
C25   C31   A    
C15   C18   S    
C37   O8    S    
C26   C32   A    
C46   I3    S    
C27   C29   A    
C1    C8    S    
H7    O8    S    
O19   Zn1   S    
C24   O4    S    
H10   O15   S    
C38   O10   S    
C1    O18   A    
C23   C42   A    
C12   O19   A    
C39   O11   D    
C35   C37   S    
C24   C26   A    
C38   C42   S    
O20   Zn1   S    
C2    I4    S    
C41   O17   S    
C4    I6    S    
C33   C36   S    
C10   C40   S    
C15   H4    S    
C9    C13   S    
C21   N2    A    
C22   N1    A    
O22   Zn2   S    
C22   C25   A    
C12   O12   A    
C40   O14   D    
O23   Zn1   S    
C9    C10   D    
C16   C44   S    
C22   O3    S    
C36   O5    D    
C38   O9    D    
C24   N2    A    
N3    Zn1   S    
O21   Zn2   S    
C16   O20   A    
C42   C44   A    
C14   C19   S    
O1    Zn1   S    
C44   C46   A    
C20   C29   A    
C3    I5    S    
C2    C45   A    
C7    C12   S    
C32   C35   A    
C17   O23   A    
C4    C6    A    
C39   C43   S    
O12   Zn2   S    
C20   O24   S    
C6    C34   A    
C5    N2    S    
C39   O13   S    
C6    N1    S    
C2    C4    A    
H6    O6    S    
H9    O13   S    
C14   H5    S    
C5    C23   A    
C31   C33   A    
C43   C45   A    
H8    O10   S    
C21   O2    S    
C18   N4    T    
C34   I2    S    
C23   I1    S    
C37   O7    D    
C30   C33   A    
C17   O21   A    
C9    C41   S    
C40   O15   S    
C34   C43   A    
C17   C45   S    
C3    C5    A    
N4    Zn2   S    
C25   C27   A    
C21   C30   A    
C29   C35   A    
C3    C46   A    
C26   C28   A    
H2    O17   S    
C20   N1    A    
C28   C30   A    
C8    C11   T    
C41   O16   D    
C1    O1    A    
C19   N3    T    
C32   H3    S    
C10   C11   S    
C7    C13   T    
C27   C28   A    
C16   O22   A    
C14   C15   D    
C31   H1    S    
O18   Zn2   S    
C36   O6    S    
