data_mof_unit_65386.cif
_audit_creation_date              2013-03-05T15:46:49-0500
_audit_creation_method            fapswitch 2.2
_symmetry_space_group_name_H-M    P1
_symmetry_Int_Tables_number       1
_space_group_crystal_system       triclinic
_cell_length_a                    13.266384
_cell_length_b                    13.269561
_cell_length_c                    26.792137
_cell_angle_alpha                 96.657863
_cell_angle_beta                  96.862391
_cell_angle_gamma                 61.227935
_cell_volume                      4095.29694037

loop_
_atom_site_label
_atom_site_type_symbol
_atom_site_description
_atom_site_fract_x
_atom_site_fract_y
_atom_site_fract_z
_atom_type_partial_charge
O1    O     O_R   0.700650 0.499560 0.456090 -0.501440
O2    O     O_R   0.479220 0.682850 0.457510 -0.492195
C1    C     C_R   0.378988 0.723080 0.434921 0.554288
O3    O     O_R   0.304230 0.696360 0.445090 -0.500490
O4    O     O_R   0.337790 0.472640 0.439840 -0.487980
C2    C     C_R   0.394817 0.373307 0.417846 0.549347
O5    O     O_R   0.493310 0.300190 0.435520 -0.506559
O6    O     O_R   0.681220 0.340950 0.451270 -0.492027
C3    C     C_R   0.724582 0.399162 0.437063 0.554539
O7    O     O_R   0.701870 0.502110 0.564940 -0.502518
O8    O     O_R   0.480360 0.685220 0.558410 -0.498067
C4    C     C_R   0.381434 0.724615 0.575476 0.542305
O9    O     O_R   0.305450 0.698920 0.553940 -0.499157
O10   O     O_R   0.338920 0.475010 0.540740 -0.493965
C5    C     C_R   0.395351 0.375752 0.557981 0.541683
O11   O     O_R   0.494530 0.302750 0.544370 -0.506850
O12   O     O_R   0.682350 0.343320 0.552170 -0.495106
C6    C     C_R   0.724202 0.403612 0.577643 0.543225
Cr1   Cr    Cr6+3 0.585520 0.589730 0.508860 1.047471
Cr2   Cr    Cr6+3 0.329140 0.580910 0.495080 1.052598
Cr3   Cr    Cr6+3 0.585350 0.329380 0.496090 1.044764
O13   O     O_3   0.500010 0.500010 0.500010 -0.256585
C7    C     C_1   0.305377 0.303227 0.125035 0.002787
C8    C     C_1   0.315044 0.321015 0.169902 -0.021444
C9    C     C_1   0.323600 0.333861 0.222816 0.027808
C10   C     C_1   0.331692 0.341042 0.268089 0.027132
C11   C     C_1   0.345198 0.348272 0.321010 -0.017365
C12   C     C_1   0.363170 0.356850 0.365924 0.011463
C13   C     C_3   0.923247 0.229087 0.267970 -0.110524
C14   C     C_3   0.836553 0.221782 0.225337 -0.110502
H1    H     H_    0.837850 0.141497 0.207368 0.117050
C15   C     C_1   0.893225 0.293519 0.103029 -0.005323
C16   C     C_1   0.774393 0.364708 0.389927 0.005372
C17   C     C_3   0.933659 0.318411 0.239518 -0.105328
C18   C     C_3   0.846494 0.311454 0.197831 0.040266
C19   C     C_3   0.832334 0.418002 0.266865 -0.101029
C20   C     C_3   0.822295 0.328532 0.294473 0.045029
C21   C     C_3   0.745664 0.410822 0.224404 -0.069314
C22   C     C_3   0.735101 0.321541 0.252825 -0.061003
C23   C     C_1   0.865994 0.302647 0.144987 -0.048449
C24   C     C_1   0.802368 0.343974 0.347557 -0.038067
H2    H     H_    0.831001 0.498387 0.284734 0.116406
C25   C     C_3   0.417610 0.860373 0.269220 -0.140429
C26   C     C_3   0.452252 0.760965 0.227007 -0.094910
H3    H     H_    0.538962 0.708259 0.212533 0.110046
H4    H     H_    0.475782 0.891271 0.290428 0.119902
C27   C     C_1   0.307269 0.885626 0.100647 -0.001979
C28   C     C_1   0.362970 0.770554 0.388007 0.022698
C29   C     C_3   0.305943 0.935347 0.236911 -0.116655
C30   C     C_3   0.340428 0.835562 0.195793 0.019501
C31   C     C_3   0.239516 0.886318 0.261020 -0.143896
C32   C     C_3   0.350756 0.812061 0.292728 0.034286
C33   C     C_3   0.273392 0.787115 0.218975 -0.085476
C34   C     C_3   0.384321 0.714954 0.251088 0.259665
C35   C     C_1   0.327574 0.856430 0.142881 -0.040362
C36   C     C_1   0.355545 0.795607 0.345746 -0.007635
H5    H     H_    0.215917 0.755136 0.197929 0.131195
H6    H     H_    0.273213 0.027321 0.230138 0.118329
C37   C     C_3   0.355003 0.236559 0.721845 -0.104264
C38   C     C_3   0.421761 0.271840 0.765961 -0.182579
H7    H     H_    0.507646 0.213355 0.783749 0.134967
C39   C     C_1   0.296070 0.309585 0.887698 0.049725
C40   C     C_1   0.360960 0.359074 0.603144 0.004892
C41   C     C_3   0.244096 0.306215 0.749619 0.213473
C42   C     C_3   0.309726 0.340121 0.793509 0.020394
C43   C     C_3   0.211810 0.416250 0.723227 -0.079513
C44   C     C_3   0.324847 0.347126 0.696585 -0.015421
C45   C     C_3   0.280643 0.447759 0.767005 0.214353
C46   C     C_3   0.392580 0.382211 0.739703 -0.108293
C47   C     C_1   0.303549 0.328777 0.846147 0.051517
C48   C     C_1   0.340164 0.351392 0.644339 -0.024121
H8    H     H_    0.125651 0.474828 0.705701 0.147373
C49   C     C_1   0.889165 0.294389 0.864721 0.025324
C50   C     C_1   0.861669 0.306111 0.820382 0.005616
C51   C     C_1   0.838782 0.320057 0.768086 0.052236
C52   C     C_1   0.821676 0.333517 0.723540 0.048627
C53   C     C_1   0.798948 0.352521 0.671663 -0.008755
C54   C     C_1   0.771669 0.372947 0.627958 0.007104
C55   C     C_1   0.293152 0.894075 0.863085 0.036311
C56   C     C_1   0.312706 0.866669 0.819404 0.021227
C57   C     C_1   0.330250 0.843314 0.767501 0.060618
C58   C     C_1   0.342397 0.825383 0.722920 0.041119
C59   C     C_1   0.355056 0.801364 0.670652 -0.018855
C60   C     C_1   0.366191 0.772999 0.626430 0.005764
O14   O     O_R   0.170670 0.959150 0.034900 -0.501657
O15   O     O_R   0.983710 0.178390 0.033850 -0.496172
C61   C     C_R   0.941797 0.278266 0.056537 0.542666
O16   O     O_R   0.965940 0.354890 0.046440 -0.507059
O17   O     O_R   0.187770 0.326880 0.051460 -0.495623
C62   C     C_R   0.288063 0.271433 0.073242 0.542971
O18   O     O_R   0.362310 0.174000 0.055490 -0.505481
O19   O     O_R   0.326800 0.983030 0.039600 -0.497002
C63   C     C_R   0.270996 0.936893 0.053714 0.546076
O20   O     O_R   0.165220 0.960770 0.926060 -0.484073
O21   O     O_R   0.978660 0.179890 0.932950 -0.492657
C64   C     C_R   0.936882 0.279366 0.915915 0.551261
O22   O     O_R   0.960490 0.356500 0.937600 -0.493364
O23   O     O_R   0.182720 0.328380 0.950570 -0.479125
C65   C     C_R   0.281764 0.274391 0.933179 0.553276
O24   O     O_R   0.356860 0.175610 0.946640 -0.509560
O25   O     O_R   0.321740 0.984530 0.938700 -0.497542
C66   C     C_R   0.262681 0.941103 0.913293 0.555949
Cr4   Cr    Cr6+3 0.077110 0.074680 0.982320 1.060110
Cr5   Cr    Cr6+3 0.079190 0.334150 0.996330 1.060856
Cr6   Cr    Cr6+3 0.334370 0.081620 0.994860 1.045527
O26   O     O_3   0.163560 0.163490 0.991170 -0.261793
H9    H     H_    0.152685 0.938129 0.275476 0.110992
H10   H     H_    0.383898 0.149364 0.702646 0.141811
H11   H     H_    0.453403 0.415162 0.735122 0.136890
N1    N     N_R   0.241232 0.563514 0.790906 0.086811
O27   O     O_R   0.220494 0.647976 0.764093 -0.334488
O28   O     O_R   0.226847 0.583163 0.838898 -0.325769
N2    N     N_R   0.162585 0.263774 0.753641 0.082617
O29   O     O_R   0.113865 0.237275 0.712967 -0.340625
O30   O     O_R   0.138264 0.251694 0.797437 -0.348194
H12   H     H_    0.996021 0.155141 0.286658 0.104995
H13   H     H_    0.653417 0.322647 0.259267 0.172829
H14   H     H_    0.673133 0.484920 0.205713 0.145790
H15   H     H_    0.015473 0.317176 0.233179 0.112032
N3    N     N_R   0.427335 0.592994 0.257574 0.066681
O31   O     O_R   0.446573 0.520833 0.218185 -0.376865
O32   O     O_R   0.446964 0.555380 0.302282 -0.358456

loop_
_geom_bond_atom_site_label_1
_geom_bond_atom_site_label_2
_geom_bond_distance
_ccdc_geom_bond_type
C43   C45   1.543449 S    
C61   O16   1.267894 A    
O25   C66   1.274954 A    
C34   N3    1.458558 S    
C49   C50   1.205463 T    
O18   Cr6   2.027451 S    
C19   H2    1.110302 S    
O21   C64   1.277840 A    
C51   C52   1.205601 T    
Cr5   O26   1.981056 S    
C57   C58   1.205140 T    
O4    Cr2   1.912196 S    
C53   C54   1.205576 T    
N3    O31   1.300206 A    
O8    Cr1   1.914432 S    
C37   C41   1.538142 S    
O11   Cr3   2.034216 S    
C14   C18   1.534274 S    
C19   C20   1.534197 S    
O4    C2    1.274150 A    
C25   C32   1.539069 S    
C5    O11   1.268202 A    
O23   C65   1.272613 A    
C1    C28   1.418716 S    
C39   C47   1.196026 T    
C17   C18   1.537317 S    
N1    O27   1.300212 A    
C37   C44   1.539851 S    
C45   C46   1.538005 S    
O14   C63   1.268294 A    
C43   H8    1.110079 S    
C65   O24   1.267822 A    
N3    O32   1.300267 A    
O6    C3    1.273080 A    
C29   C31   1.549990 S    
C7    C8    1.201536 T    
C55   C66   1.433463 S    
C44   C48   1.449600 S    
O14   Cr4   2.031378 S    
C32   C34   1.528508 S    
C43   C44   1.542554 S    
C37   C38   1.556021 S    
Cr3   O13   1.981146 S    
C3    C16   1.419589 S    
C46   H11   1.110446 S    
O15   Cr4   1.913631 S    
O16   Cr5   2.033166 S    
O21   Cr4   1.914304 S    
O6    Cr3   1.918031 S    
O25   Cr6   1.910477 S    
C21   C22   1.548395 S    
C2    C12   1.427369 S    
O1    Cr1   2.031720 S    
C30   C33   1.537809 S    
C50   C51   1.412077 S    
C31   C32   1.537906 S    
O10   Cr2   1.916577 S    
C18   C21   1.531920 S    
O1    C3    1.268685 A    
C52   C53   1.412189 S    
C33   H5    1.110256 S    
O15   C61   1.272660 A    
C25   C29   1.551820 S    
C4    C60   1.433358 S    
C9    C10   1.201588 T    
O5    Cr3   2.027425 S    
C15   C61   1.419712 S    
C13   C17   1.548342 S    
O12   Cr3   1.910589 S    
C29   H6    1.110564 S    
C39   C65   1.418267 S    
C38   H7    1.110140 S    
C44   C46   1.545533 S    
O3    Cr2   2.032885 S    
C25   C26   1.557253 S    
C13   C14   1.550663 S    
C59   C60   1.205065 T    
O7    Cr1   2.028573 S    
C6    C54   1.434245 S    
C42   C45   1.527207 S    
C64   O22   1.269043 A    
Cr1   O13   1.982648 S    
O12   C6    1.274584 A    
O24   Cr6   2.034099 S    
C7    C62   1.427470 S    
C45   N1    1.456573 S    
C8    C9    1.405667 S    
C13   H12   1.109975 S    
C40   C48   1.196068 T    
C38   C42   1.544499 S    
C58   C59   1.411380 S    
O17   Cr5   1.912262 S    
C10   C11   1.405666 S    
C1    O3    1.268476 A    
C26   H3    1.109962 S    
C27   C35   1.196411 T    
N2    O29   1.300211 A    
C26   C30   1.536836 S    
C17   H15   1.110608 S    
C28   C36   1.196388 T    
C41   N2    1.458183 S    
C27   C63   1.419195 S    
O9    Cr2   2.027282 S    
O2    Cr1   1.913486 S    
C37   H10   1.110147 S    
Cr2   O13   1.981698 S    
C56   C57   1.411384 S    
O20   Cr4   2.028540 S    
O8    C4    1.277586 A    
C33   C34   1.534518 S    
C2    O5    1.269312 A    
Cr6   O26   1.981522 S    
C30   C35   1.450263 S    
C16   C24   1.196677 T    
C41   C42   1.533930 S    
C19   C21   1.546956 S    
C18   C23   1.450900 S    
C20   C22   1.537090 S    
C22   H13   1.110446 S    
C62   O18   1.269417 A    
C14   H1    1.110157 S    
C32   C36   1.451360 S    
C38   C46   1.554930 S    
O7    C6    1.272085 A    
O23   Cr5   1.916969 S    
O19   C63   1.273870 A    
C14   C22   1.549788 S    
O2    C1    1.272271 A    
Cr4   O26   1.982838 S    
C17   C19   1.546259 S    
C15   C23   1.196754 T    
C20   C24   1.450779 S    
C25   H4    1.110089 S    
N1    O28   1.300256 A    
O22   Cr5   2.027339 S    
C55   C56   1.205071 T    
C21   H14   1.109805 S    
C26   C34   1.536598 S    
O19   Cr6   1.917626 S    
C4    O9    1.269478 A    
O20   C66   1.271619 A    
C31   H9    1.110010 S    
C29   C30   1.541175 S    
C13   C20   1.532269 S    
C11   C12   1.201522 T    
C5    C40   1.418624 S    
O10   C5    1.271937 A    
C49   C64   1.433934 S    
C31   C33   1.552853 S    
O17   C62   1.274305 A    
C42   C47   1.451564 S    
C41   C43   1.542840 S    
N2    O30   1.300195 A    
