data_mof_unit_38132.cif
_audit_creation_date              2012-10-26T17:11:21-0400
_audit_creation_method            fapswitch 2.2
_symmetry_space_group_name_H-M    P1
_symmetry_Int_Tables_number       1
_space_group_crystal_system       triclinic
_cell_length_a                    27.911665
_cell_length_b                    18.792539
_cell_length_c                    16.799669
_cell_angle_alpha                 89.837351
_cell_angle_beta                  62.633773
_cell_angle_gamma                 90.095407
_cell_volume                      7825.69678611

loop_
_atom_site_label
_atom_site_type_symbol
_atom_type_description
_atom_site_fract_x
_atom_site_fract_y
_atom_site_fract_z
_atom_type_partial_charge
C1    C     C_R   0.294799 0.727672 0.329649 0.541323
C2    C     C_R   0.595440 0.000274 0.517948 -0.006674
C3    C     C_R   0.685173 0.723217 0.908092 0.060969
C4    C     C_R   0.926386 0.903065 0.067025 0.560290
C5    C     C_R   0.073385 0.096732 0.932686 0.560718
C6    C     C_R   0.073812 0.903331 0.932617 0.553914
C7    C     C_R   0.925823 0.096175 0.066822 0.562383
C8    C     C_R   0.425204 0.405274 0.068546 0.559018
C9    C     C_R   0.572578 0.598655 0.933786 0.560010
C10   C     C_R   0.573704 0.403110 0.932787 0.565910
C11   C     C_R   0.426252 0.596700 0.066487 0.549932
C12   C     C_R   0.043390 0.628907 0.523257 0.019407
C13   C     C_R   0.906884 0.500883 0.474060 0.002303
C14   C     C_R   0.953908 0.370839 0.484336 0.027796
C15   C     C_R   0.956190 0.630622 0.480730 0.024915
C16   C     C_R   0.046741 0.371778 0.507462 0.012765
C17   C     C_R   0.541696 0.128913 0.528037 0.021133
C18   C     C_R   0.459404 0.871027 0.469190 0.025979
C19   C     C_R   0.453162 0.130031 0.489545 0.012848
C20   C     C_R   0.554276 0.872896 0.487985 0.018954
C21   C     C_R   0.024766 0.694671 0.506882 0.029836
C22   C     C_R   0.972289 0.305711 0.504700 0.034206
C23   C     C_R   0.977753 0.695756 0.493985 0.035758
C24   C     C_R   0.094574 0.499407 0.519198 -0.006258
C25   C     C_R   0.016449 0.308327 0.525015 0.033990
C26   C     C_R   0.520787 0.194684 0.516397 0.034266
C27   C     C_R   0.481709 0.805340 0.479809 0.030468
C28   C     C_R   0.472446 0.194862 0.507797 0.029483
C29   C     C_R   0.527244 0.807484 0.496908 0.032834
C30   C     C_R   0.976717 0.565743 0.493724 -0.004466
C31   C     C_R   0.022035 0.435981 0.506910 -0.008829
C32   C     C_R   0.021653 0.565115 0.510549 -0.005408
C33   C     C_R   0.975264 0.435860 0.495883 -0.002610
C34   C     C_R   0.476067 0.065259 0.496300 -0.008875
C35   C     C_R   0.609152 0.877497 0.468285 0.022222
C36   C     C_R   0.526411 0.936227 0.495690 -0.008845
C37   C     C_R   0.521447 0.064993 0.511825 -0.005382
C38   C     C_R   0.479016 0.935597 0.486179 -0.004165
C39   C     C_R   0.454369 0.000479 0.484779 -0.007582
C40   C     C_R   0.547459 0.000512 0.509226 -0.006812
C41   C     C_R   0.953378 0.500883 0.486785 -0.003449
C42   C     C_R   0.045786 0.500176 0.512978 -0.006277
C43   C     C_R   0.385410 0.935962 0.462908 0.010031
C44   C     C_R   0.614113 0.063839 0.538947 0.005076
C45   C     C_R   0.625157 0.936733 0.503006 -0.015521
C46   C     C_R   0.416243 0.127811 0.453584 0.039648
C47   C     C_R   0.384510 0.065583 0.466703 0.000017
C48   C     C_R   0.884833 0.435911 0.464405 0.007202
C49   C     C_R   0.114850 0.563483 0.535876 0.006705
C50   C     C_R   0.123159 0.434919 0.506421 -0.013342
C51   C     C_R   0.885304 0.565699 0.463652 0.012628
C52   C     C_R   0.333702 0.935553 0.464937 -0.032458
C53   C     C_R   0.665771 0.064636 0.537190 -0.038801
C54   C     C_R   0.671501 0.935881 0.517839 -0.034633
C55   C     C_R   0.333550 0.065362 0.465815 -0.037062
C56   C     C_R   0.833837 0.435491 0.464121 -0.031370
C57   C     C_R   0.419527 0.875694 0.439040 0.043686
C58   C     C_R   0.166599 0.564203 0.533531 -0.036160
C59   C     C_R   0.171279 0.435051 0.516666 -0.033110
C60   C     C_R   0.834119 0.565448 0.463507 -0.030284
C61   C     C_R   0.308675 0.000377 0.467019 -0.177682
C62   C     C_R   0.691700 0.000018 0.532361 -0.182156
C63   C     C_R   0.809260 0.500393 0.464560 -0.169032
C64   C     C_R   0.192625 0.499579 0.527692 -0.177546
C65   C     C_3   0.541118 0.745400 0.541110 -0.274702
C66   C     C_3   0.504480 0.745109 0.642219 -0.441994
C67   C     C_3   0.437453 0.261408 0.532427 -0.278651
C68   C     C_R   0.580025 0.124151 0.561103 0.038416
C69   C     C_3   0.415696 0.278576 0.632049 -0.444455
C70   C     C_3   0.455606 0.734251 0.478864 -0.263693
C71   C     C_3   0.490165 0.691131 0.394234 -0.458199
C72   C     C_3   0.555085 0.262193 0.494944 -0.284284
C73   C     C_3   0.577576 0.282125 0.396126 -0.433869
C74   C     C_3   0.023555 0.252549 0.584678 -0.279355
C75   C     C_3   0.982169 0.263019 0.682742 -0.434619
C76   C     C_3   0.946393 0.764871 0.509494 -0.274124
C77   C     C_3   0.923693 0.787820 0.607206 -0.446288
C78   C     C_3   0.943270 0.235518 0.511154 -0.261327
C79   C     C_R   0.102276 0.373227 0.483042 0.013845
C80   C     C_3   0.977522 0.184620 0.435084 -0.462018
C81   C     C_3   0.060353 0.761008 0.486240 -0.294704
C82   C     C_3   0.089211 0.775207 0.385640 -0.417336
C83   C     C_3   0.650174 0.855434 0.373584 -0.220107
C84   C     C_3   0.642288 0.781474 0.343759 -0.403848
C85   C     C_3   0.432401 0.168593 0.366468 -0.251122
C86   C     C_3   0.484117 0.138353 0.290898 -0.455943
C87   C     C_3   0.432769 0.844134 0.348012 -0.255151
C88   C     C_3   0.485597 0.875480 0.275342 -0.453173
C89   C     C_3   0.568111 0.163190 0.647444 -0.252758
C90   C     C_R   0.918203 0.627425 0.446555 0.043916
C91   C     C_3   0.514774 0.138156 0.724619 -0.456076
C92   C     C_3   0.138663 0.336156 0.394383 -0.202704
C93   C     C_3   0.132207 0.254945 0.395000 -0.358707
C94   C     C_3   0.933606 0.664928 0.357581 -0.261994
C95   C     C_3   0.982407 0.629410 0.281601 -0.459193
C96   C     C_3   0.931845 0.335948 0.360278 -0.255914
C97   C     C_3   0.989550 0.354321 0.290548 -0.453314
C98   C     C_3   0.066867 0.660088 0.645833 -0.262098
C99   C     C_3   0.022541 0.618308 0.722630 -0.451868
C100  C     C_3   0.122196 0.724041 0.090908 -0.234529
C101  C     C_R   0.917121 0.374345 0.448156 0.043185
C102  C     C_3   0.090022 0.781144 0.159342 -0.416751
C103  C     C_3   0.852169 0.270607 0.949767 -0.241516
C104  C     C_3   0.857826 0.325485 0.011879 -0.432868
C105  C     C_3   0.854497 0.694374 0.936782 -0.236782
C106  C     C_3   0.894647 0.735553 0.854664 -0.428370
C107  C     C_3   0.149386 0.177769 0.110396 -0.241233
C108  C     C_3   0.094701 0.210502 0.173326 -0.408285
C109  C     C_3   0.620288 0.218143 0.088909 -0.237599
C110  C     C_3   0.587857 0.273146 0.160114 -0.410481
C111  C     C_3   0.355230 0.772974 0.942652 -0.241832
C112  C     C_R   0.702227 0.265587 0.671854 0.561550
C113  C     C_R   0.081572 0.624418 0.556480 0.040271
C114  C     C_3   0.363065 0.827331 0.003215 -0.437526
C115  C     C_3   0.348292 0.321558 0.896544 -0.249713
C116  C     C_3   0.357534 0.398092 0.860808 -0.384903
C117  C     C_3   0.635650 0.809595 0.077964 -0.245297
C118  C     C_3   0.627381 0.872172 0.027629 -0.432318
C119  C     C_3   0.083513 0.805419 0.783803 -0.224245
C120  C     C_3   0.082597 0.863686 0.719904 -0.354503
C121  C     C_3   0.913563 0.216138 0.195367 -0.259691
C122  C     C_3   0.954918 0.256311 0.112554 -0.440111
C123  C     C_3   0.915968 0.803576 0.214507 -0.228425
C124  C     C_R   0.213519 0.762228 0.962204 -0.012663
C125  C     C_3   0.918774 0.860666 0.277826 -0.350296
C126  C     C_3   0.149385 0.081020 0.736711 -0.219111
C127  C     C_3   0.108283 0.089204 0.700054 -0.356720
C128  C     C_3   0.583949 0.306058 0.783180 -0.229731
C129  C     C_3   0.583073 0.364926 0.719877 -0.345248
C130  C     C_3   0.413766 0.710275 0.203195 -0.251702
C131  C     C_3   0.461738 0.744965 0.123910 -0.444475
C132  C     C_3   0.416671 0.302191 0.211890 -0.227876
C133  C     C_3   0.421102 0.357911 0.275243 -0.351122
C134  C     C_3   0.581750 0.701607 0.784878 -0.249609
C135  C     C_R   0.763440 0.210632 0.066963 -0.004413
C136  C     C_3   0.529516 0.733617 0.857429 -0.451977
C137  C     C_3   0.228544 0.674993 0.802913 -0.258806
C138  C     C_3   0.198918 0.617597 0.873613 -0.465637
C139  C     C_3   0.729729 0.132069 0.271951 -0.225144
C140  C     C_3   0.752502 0.069115 0.302041 -0.454004
C141  C     C_3   0.766809 0.680358 0.199596 -0.264716
C142  C     C_3   0.802458 0.618649 0.199414 -0.437334
C143  C     C_3   0.280848 0.196570 0.764670 -0.235812
C144  C     C_3   0.297624 0.124734 0.716986 -0.461983
C145  C     C_3   0.728116 0.173926 0.802659 -0.258244
C146  C     C_R   0.778015 0.772704 0.046821 -0.024552
C147  C     C_3   0.697859 0.115747 0.871809 -0.474822
C148  C     C_3   0.231633 0.634507 0.266284 -0.224443
C149  C     C_3   0.253853 0.570711 0.295976 -0.460782
C150  C     C_3   0.277564 0.178887 0.186281 -0.253277
C151  C     C_3   0.310434 0.136245 0.100989 -0.466422
C152  C     C_3   0.731506 0.823955 0.797660 -0.256842
C153  C     C_3   0.792166 0.812012 0.755046 -0.371859
C154  C     C_R   0.210249 0.248354 0.962870 -0.017150
C155  C     C_R   0.711889 0.258618 0.964108 -0.013726
C156  C     C_R   0.266244 0.716186 0.063809 -0.003962
C157  C     C_R   0.269907 0.291939 0.054524 -0.007716
C158  C     C_R   0.715330 0.739871 0.959209 -0.013018
C159  C     C_R   0.269242 0.771892 0.928847 0.342481
C160  C     C_R   0.702013 0.734698 0.672000 0.565108
C161  C     C_R   0.706439 0.209176 0.102194 0.351767
C162  C     C_R   0.726463 0.802373 0.076402 0.338755
C163  C     C_R   0.254213 0.296266 0.923295 0.349466
C164  C     C_R   0.767356 0.268994 0.932648 0.347313
C165  C     C_R   0.209185 0.716651 0.101012 0.342686
C166  C     C_R   0.216508 0.267865 0.101484 0.351732
C167  C     C_R   0.766920 0.710238 0.929711 0.354444
C168  C     C_R   0.296128 0.751025 0.978848 -0.014437
C169  C     C_R   0.680745 0.230506 0.050990 -0.014023
C170  C     C_R   0.693818 0.784348 0.035638 -0.023247
C171  C     C_R   0.297406 0.266623 0.328155 0.548595
C172  C     C_R   0.289528 0.306102 0.961171 -0.022607
C173  C     C_R   0.793575 0.247329 0.983387 -0.017750
C174  C     C_R   0.182809 0.736575 0.050467 -0.015320
C175  C     C_R   0.191029 0.233888 0.056473 -0.011989
C176  C     C_R   0.798638 0.726308 0.972522 -0.028309
C177  C     C_R   0.151115 0.838743 0.932670 -0.146077
C178  C     C_R   0.841099 0.142442 0.070712 -0.162348
C179  C     C_R   0.848662 0.840039 0.065754 -0.127979
C180  C     C_R   0.134323 0.190215 0.939643 -0.171797
C181  C     C_R   0.649926 0.336534 0.934634 -0.134987
C182  C     C_R   0.794566 0.227319 0.329750 0.542349
C183  C     C_R   0.343875 0.647904 0.067552 -0.168283
C184  C     C_R   0.339725 0.357233 0.082057 -0.169881
C185  C     C_R   0.645669 0.670033 0.940169 -0.131452
C186  C     C_R   0.117618 0.850865 0.892452 -0.026582
C187  C     C_R   0.878295 0.142905 0.106005 -0.002707
C188  C     C_R   0.882220 0.851010 0.106453 -0.023268
C189  C     C_R   0.119215 0.144724 0.888697 -0.017449
C190  C     C_R   0.617311 0.350184 0.893078 -0.020520
C191  C     C_R   0.380154 0.645649 0.104584 -0.001305
C192  C     C_R   0.378965 0.357602 0.112037 -0.021327
C193  C     C_R   0.202180 0.765529 0.671848 0.558348
C194  C     C_R   0.614195 0.655036 0.896627 -0.002795
C195  C     C_R   0.127664 0.814240 0.812877 -0.022217
C196  C     C_R   0.867596 0.186871 0.180176 -0.021418
C197  C     C_R   0.871488 0.814778 0.186615 -0.022797
C198  C     C_R   0.150278 0.143482 0.794748 -0.023441
C199  C     C_R   0.627846 0.314413 0.812815 -0.020536
C200  C     C_R   0.369029 0.687612 0.180641 -0.023193
C201  C     C_R   0.371267 0.315981 0.186979 -0.020448
C202  C     C_R   0.624711 0.692336 0.816679 -0.013050
C203  C     C_R   0.174931 0.772760 0.771270 -0.011722
C204  C     C_R   0.209949 0.218901 0.666325 0.575357
C205  C     C_R   0.812979 0.204311 0.236616 -0.007128
C206  C     C_R   0.823223 0.775353 0.229525 0.002088
C207  C     C_R   0.192444 0.192111 0.757920 0.000480
C208  C     C_R   0.675005 0.272729 0.771312 -0.009245
C209  C     C_R   0.314334 0.706088 0.235714 -0.009050
C210  C     C_R   0.323362 0.276637 0.229227 -0.017746
C211  C     C_R   0.674139 0.729408 0.772123 -0.010473
C212  C     C_R   0.198133 0.745623 0.825120 0.049848
C213  C     C_R   0.773500 0.183770 0.209819 0.058012
C214  C     C_R   0.797812 0.750881 0.177830 0.025277
C215  C     C_R   0.797352 0.766464 0.328324 0.550843
C216  C     C_R   0.219858 0.207516 0.808804 0.081249
C217  C     C_R   0.697753 0.244644 0.825425 0.049819
C218  C     C_R   0.275541 0.687273 0.206854 0.066695
C219  C     C_R   0.297621 0.255546 0.177003 0.067339
C220  C     C_R   0.698904 0.755195 0.823989 0.038499
C221  C     C_R   0.197206 0.631326 0.525091 0.531772
C222  C     C_R   0.802722 0.368620 0.474961 0.563169
C223  C     C_R   0.802764 0.631630 0.474762 0.556435
C224  C     C_R   0.199426 0.368780 0.517368 0.571654
C225  C     C_R   0.696790 0.131594 0.526796 0.531255
C226  C     C_R   0.407041 0.000592 0.474297 -0.004538
C227  C     C_R   0.302693 0.868643 0.475184 0.557897
C228  C     C_R   0.302546 0.131556 0.475592 0.528033
C229  C     C_R   0.699397 0.868965 0.517809 0.550338
C230  C     C_R   0.187663 0.782262 0.905099 0.064243
C231  C     C_R   0.791335 0.176717 0.116905 0.019341
C232  C     C_R   0.808429 0.787890 0.097957 0.049727
C233  C     C_R   0.188018 0.215212 0.903800 0.033914
C234  C     C_R   0.686714 0.280195 0.906359 0.065453
C235  C     C_R   0.294306 0.682536 0.113525 0.014724
C236  C     C_R   0.302520 0.301239 0.105110 0.046321
Cu1   Cu    Cu3+1 0.209920 0.785290 0.495070 0.864118
Cu2   Cu    Cu3+1 0.504760 0.500000 0.075850 0.872874
Cu3   Cu    Cu3+1 0.995240 0.000000 0.924150 0.851781
Cu4   Cu    Cu3+1 0.004760 0.000000 0.075850 0.865119
Cu5   Cu    Cu3+1 0.790080 0.214710 0.504930 0.873190
Cu6   Cu    Cu3+1 0.790080 0.785290 0.504930 0.860686
Cu7   Cu    Cu3+1 0.209920 0.214710 0.495070 0.828886
Cu8   Cu    Cu3+1 0.709920 0.285290 0.495070 0.871896
Cu9   Cu    Cu3+1 0.290080 0.714710 0.504930 0.882614
Cu10  Cu    Cu3+1 0.290080 0.285290 0.504930 0.880070
Cu11  Cu    Cu3+1 0.709920 0.714710 0.495070 0.859127
Cu12  Cu    Cu3+1 0.495240 0.500000 0.924150 0.860246
F1    F     F_    0.297181 0.803311 0.847142 -0.657319
F2    F     F_    0.674222 0.188333 0.187264 -0.704266
F3    F     F_    0.708469 0.850146 0.144480 -0.675322
F4    F     F_    0.266270 0.327343 0.843178 -0.669241
F5    F     F_    0.795674 0.302154 0.852209 -0.649898
F6    F     F_    0.177536 0.699317 0.187607 -0.710784
F7    F     F_    0.190150 0.274015 0.191677 -0.705102
F8    F     F_    0.786449 0.665435 0.858347 -0.644289
H1    H     H_    0.268872 0.000236 0.470795 0.156391
H2    H     H_    0.354142 0.623932 0.003183 0.129192
H3    H     H_    0.900562 0.342948 0.983624 0.128823
H4    H     H_    0.879446 0.225236 0.939299 0.127740
H5    H     H_    0.868521 0.295810 0.882495 0.211617
H6    H     H_    0.885048 0.728217 0.798094 0.187390
H7    H     H_    0.893633 0.793156 0.869811 0.138343
H8    H     H_    0.936006 0.715812 0.834295 0.125340
H9    H     H_    0.869174 0.694371 0.987955 0.126701
H10   H     H_    0.853613 0.637709 0.918719 0.194328
H11   H     H_    0.095851 0.233618 0.233127 0.195430
H12   H     H_    0.083467 0.253333 0.139502 0.142982
H13   H     H_    0.341343 0.397391 0.035035 0.138382
H14   H     H_    0.062999 0.168634 0.196489 0.119996
H15   H     H_    0.145451 0.135938 0.067591 0.136363
H16   H     H_    0.163929 0.147636 0.152133 0.149783
H17   H     H_    0.590803 0.262169 0.222339 0.196521
H18   H     H_    0.602744 0.327879 0.137324 0.147070
H19   H     H_    0.544766 0.270451 0.175420 0.115326
H20   H     H_    0.607060 0.219076 0.035978 0.121394
H21   H     H_    0.609863 0.163961 0.118861 0.177270
H22   H     H_    0.337815 0.875006 0.011090 0.162378
H23   H     H_    0.352265 0.804637 0.070288 0.163454
H24   H     H_    0.638287 0.642207 0.001371 0.131095
H25   H     H_    0.406054 0.844067 0.972533 0.125837
H26   H     H_    0.382089 0.726919 0.931017 0.125958
H27   H     H_    0.370834 0.798153 0.875471 0.211318
H28   H     H_    0.345587 0.403897 0.806616 0.204109
H29   H     H_    0.334095 0.436760 0.914432 0.150938
H30   H     H_    0.401076 0.411535 0.832264 0.117081
H31   H     H_    0.375584 0.309015 0.925888 0.131859
H32   H     H_    0.361442 0.284772 0.838621 0.143095
H33   H     H_    0.658472 0.913873 0.014097 0.173980
H34   H     H_    0.628791 0.854128 0.963833 0.137230
H35   H     H_    0.511021 0.794367 0.672414 0.156619
H36   H     H_    0.586986 0.895738 0.068947 0.128557
H37   H     H_    0.608364 0.765181 0.081906 0.116699
H38   H     H_    0.622400 0.826264 0.148405 0.194761
H39   H     H_    0.113065 0.905882 0.708412 0.171203
H40   H     H_    0.090506 0.840418 0.654320 0.126248
H41   H     H_    0.042047 0.888502 0.747812 0.129136
H42   H     H_    0.088073 0.753024 0.751748 0.116121
H43   H     H_    0.043396 0.801734 0.843798 0.138744
H44   H     H_    0.991524 0.267863 0.119980 0.126135
H45   H     H_    0.968229 0.224875 0.050306 0.158951
H46   H     H_    0.461330 0.741957 0.657977 0.161977
H47   H     H_    0.937396 0.307154 0.104380 0.140631
H48   H     H_    0.898531 0.254564 0.251147 0.144512
H49   H     H_    0.933552 0.172911 0.213916 0.174936
H50   H     H_    0.960178 0.883244 0.249669 0.129556
H51   H     H_    0.889824 0.904589 0.288681 0.179914
H52   H     H_    0.909928 0.837095 0.343816 0.126065
H53   H     H_    0.910581 0.750747 0.246302 0.116928
H54   H     H_    0.955754 0.799461 0.153923 0.136234
H55   H     H_    0.081076 0.042163 0.718850 0.128825
H56   H     H_    0.083373 0.137844 0.726157 0.170168
H57   H     H_    0.514161 0.698501 0.672935 0.126364
H58   H     H_    0.129303 0.092014 0.625684 0.136838
H59   H     H_    0.190179 0.073636 0.679227 0.130416
H60   H     H_    0.142061 0.030349 0.774922 0.150081
H61   H     H_    0.542231 0.388840 0.747296 0.129588
H62   H     H_    0.612863 0.407646 0.710191 0.184931
H63   H     H_    0.591962 0.342664 0.653410 0.124421
H64   H     H_    0.588886 0.253912 0.750543 0.117729
H65   H     H_    0.543744 0.301891 0.842906 0.135624
H66   H     H_    0.493858 0.756715 0.143347 0.129196
H67   H     H_    0.479915 0.709430 0.065296 0.158559
H68   H     H_    0.538437 0.693568 0.512597 0.127242
H69   H     H_    0.449033 0.795133 0.104045 0.136967
H70   H     H_    0.398694 0.750927 0.256140 0.145825
H71   H     H_    0.427475 0.664454 0.229145 0.175832
H72   H     H_    0.463276 0.377678 0.247496 0.128030
H73   H     H_    0.393917 0.403871 0.285371 0.179239
H74   H     H_    0.410749 0.334212 0.341704 0.127929
H75   H     H_    0.411164 0.248869 0.242923 0.116076
H76   H     H_    0.455749 0.298177 0.149913 0.134828
H77   H     H_    0.507131 0.694885 0.911651 0.173825
H78   H     H_    0.538486 0.781858 0.886372 0.138514
H79   H     H_    0.582993 0.749406 0.531675 0.169141
H80   H     H_    0.502726 0.749072 0.827825 0.127255
H81   H     H_    0.595274 0.740164 0.728570 0.158118
H82   H     H_    0.573663 0.650870 0.759648 0.177263
H83   H     H_    0.203773 0.625757 0.934694 0.152578
H84   H     H_    0.155314 0.616879 0.891582 0.148163
H85   H     H_    0.216122 0.564580 0.846451 0.158596
H86   H     H_    0.232196 0.651939 0.739965 0.167834
H87   H     H_    0.270002 0.682516 0.794742 0.192404
H88   H     H_    0.784391 0.041833 0.242850 0.162711
H89   H     H_    0.769608 0.086352 0.346672 0.179005
H90   H     H_    0.396047 0.230871 0.673331 0.145397
H91   H     H_    0.719738 0.030158 0.339379 0.144854
H92   H     H_    0.698825 0.160467 0.331102 0.192133
H93   H     H_    0.709501 0.105760 0.236692 0.227332
H94   H     H_    0.839228 0.615778 0.133692 0.138249
H95   H     H_    0.814553 0.625074 0.253398 0.154878
H96   H     H_    0.779861 0.567794 0.210978 0.139345
H97   H     H_    0.729899 0.681322 0.264358 0.165282
H98   H     H_    0.752456 0.667201 0.149881 0.133556
H99   H     H_    0.276152 0.080716 0.764429 0.157276
H100  H     H_    0.288589 0.122133 0.659353 0.158750
H101  H     H_    0.448187 0.295981 0.648101 0.137897
H102  H     H_    0.341740 0.117187 0.691008 0.145285
H103  H     H_    0.301504 0.239904 0.715937 0.214852
H104  H     H_    0.296268 0.196244 0.814727 0.144636
H105  H     H_    0.702456 0.122316 0.933347 0.155423
H106  H     H_    0.654333 0.115849 0.889231 0.144746
H107  H     H_    0.714784 0.062859 0.843541 0.134565
H108  H     H_    0.732574 0.151741 0.738846 0.165500
H109  H     H_    0.769271 0.181038 0.796026 0.188807
H110  H     H_    0.286272 0.544174 0.236722 0.156120
H111  H     H_    0.270059 0.586909 0.342252 0.178138
H112  H     H_    0.729338 0.999964 0.536383 0.157451
H113  H     H_    0.385583 0.322045 0.650866 0.154087
H114  H     H_    0.220961 0.531506 0.331600 0.142018
H115  H     H_    0.200202 0.661887 0.325817 0.191686
H116  H     H_    0.212171 0.609425 0.228896 0.216751
H117  H     H_    0.303505 0.155679 0.044750 0.147108
H118  H     H_    0.354142 0.140034 0.081706 0.147220
H119  H     H_    0.298109 0.079418 0.113040 0.136230
H120  H     H_    0.282246 0.151108 0.240727 0.146606
H121  H     H_    0.234344 0.174920 0.204544 0.192671
H122  H     H_    0.803206 0.760564 0.718999 0.219255
H123  H     H_    0.812702 0.855987 0.707139 0.111692
H124  H     H_    0.459996 0.307791 0.491350 0.127935
H125  H     H_    0.806580 0.812897 0.806477 0.145551
H126  H     H_    0.721503 0.855285 0.751084 0.144550
H127  H     H_    0.719779 0.858690 0.856938 0.123629
H128  H     H_    0.401592 0.254153 0.521245 0.161552
H129  H     H_    0.464758 0.649908 0.384631 0.131052
H130  H     H_    0.508148 0.725504 0.333661 0.146048
H131  H     H_    0.523635 0.663704 0.399581 0.134706
H132  H     H_    0.448139 0.702083 0.538857 0.140116
H133  H     H_    0.414852 0.741905 0.484247 0.161354
H134  H     H_    0.602790 0.330865 0.381845 0.136820
H135  H     H_    0.603214 0.238216 0.353960 0.207710
H136  H     H_    0.769648 0.500270 0.467589 0.159133
H137  H     H_    0.544792 0.292591 0.377883 0.132403
H138  H     H_    0.591114 0.255233 0.505396 0.160412
H139  H     H_    0.532042 0.307367 0.537300 0.127291
H140  H     H_    0.988166 0.315816 0.706494 0.162820
H141  H     H_    0.940260 0.259939 0.691924 0.169603
H142  H     H_    0.987504 0.221156 0.724771 0.127647
H143  H     H_    0.020815 0.197751 0.563215 0.125164
H144  H     H_    0.063569 0.257497 0.582978 0.162078
H145  H     H_    0.894465 0.747196 0.650483 0.164470
H146  H     H_    0.955130 0.793389 0.629580 0.140604
H147  H     H_    0.230902 0.499678 0.529571 0.161261
H148  H     H_    0.903438 0.839962 0.615905 0.121679
H149  H     H_    0.972012 0.807707 0.464493 0.125273
H150  H     H_    0.910928 0.759263 0.496990 0.157787
H151  H     H_    0.952085 0.139466 0.434150 0.130174
H152  H     H_    0.994713 0.211669 0.369019 0.145028
H153  H     H_    0.011412 0.162610 0.444320 0.134136
H154  H     H_    0.932296 0.208776 0.576106 0.141748
H155  H     H_    0.904090 0.244225 0.510897 0.166366
H156  H     H_    0.115945 0.822433 0.371089 0.138140
H157  H     H_    0.114165 0.728527 0.350456 0.221128
H158  H     H_    0.146416 0.870162 0.989630 0.134237
H159  H     H_    0.059723 0.785416 0.359931 0.137077
H160  H     H_    0.092430 0.755244 0.507067 0.161957
H161  H     H_    0.037161 0.808743 0.521099 0.127134
H162  H     H_    0.645337 0.739526 0.387619 0.144780
H163  H     H_    0.603669 0.777379 0.340358 0.138920
H164  H     H_    0.674430 0.772055 0.275057 0.192748
H165  H     H_    0.647870 0.894797 0.325911 0.178838
H166  H     H_    0.692118 0.858917 0.364241 0.172637
H167  H     H_    0.519125 0.148905 0.303752 0.173641
H168  H     H_    0.480053 0.080063 0.284746 0.153466
H169  H     H_    0.851374 0.118215 0.006462 0.131213
H170  H     H_    0.491851 0.163745 0.226378 0.122496
H171  H     H_    0.400852 0.164102 0.344195 0.154659
H172  H     H_    0.438794 0.225745 0.374066 0.130703
H173  H     H_    0.520688 0.853800 0.281660 0.151088
H174  H     H_    0.490204 0.862660 0.207974 0.127559
H175  H     H_    0.485569 0.934401 0.280801 0.156239
H176  H     H_    0.434915 0.785711 0.348312 0.148130
H177  H     H_    0.400931 0.856983 0.328145 0.138512
H178  H     H_    0.480391 0.152284 0.711535 0.155284
H179  H     H_    0.515314 0.079604 0.733522 0.157991
H180  H     H_    0.855480 0.869470 0.005883 0.134770
H181  H     H_    0.508641 0.164428 0.787719 0.122129
H182  H     H_    0.599968 0.152848 0.668011 0.142070
H183  H     H_    0.565882 0.221270 0.640260 0.134733
H184  H     H_    0.132175 0.229582 0.454380 0.153559
H185  H     H_    0.095014 0.240311 0.390626 0.120122
H186  H     H_    0.166539 0.231500 0.336453 0.208688
H187  H     H_    0.129387 0.358305 0.341569 0.168577
H188  H     H_    0.181836 0.349390 0.371248 0.173894
H189  H     H_    0.018700 0.635476 0.292108 0.170052
H190  H     H_    0.974379 0.571892 0.277923 0.153244
H191  H     H_    0.105323 0.200361 0.007706 0.130670
H192  H     H_    0.990739 0.654773 0.216720 0.123979
H193  H     H_    0.900137 0.661964 0.339657 0.146841
H194  H     H_    0.943448 0.721712 0.359195 0.129398
H195  H     H_    0.019432 0.333588 0.311113 0.157998
H196  H     H_    0.998265 0.330433 0.225423 0.129694
H197  H     H_    0.994514 0.412940 0.281494 0.156181
H198  H     H_    0.926653 0.277782 0.369521 0.155025
H199  H     H_    0.905046 0.352989 0.331300 0.136929
H200  H     H_    0.984666 0.618992 0.716203 0.167819
H201  H     H_    0.035156 0.562273 0.722680 0.162608
H202  H     H_    0.644141 0.366453 0.993246 0.137648
H203  H     H_    0.014755 0.642698 0.787554 0.121329
H204  H     H_    0.101960 0.661962 0.659616 0.153896
H205  H     H_    0.052487 0.715276 0.647657 0.128604
H206  H     H_    0.108585 0.793591 0.203453 0.199687
H207  H     H_    0.087935 0.830827 0.125638 0.142104
H208  H     H_    0.048086 0.762326 0.201385 0.122104
H209  H     H_    0.108087 0.721198 0.039105 0.122590
H210  H     H_    0.112417 0.671153 0.124596 0.180814
H211  H     H_    0.832451 0.372677 0.018050 0.168656
H212  H     H_    0.845641 0.302950 0.079485 0.162285
O1    O     O_R   0.255040 0.869590 0.478480 -0.508661
O2    O     O_R   0.817950 0.203450 0.375560 -0.522962
O3    O     O_R   0.817950 0.796550 0.375560 -0.512073
O4    O     O_R   0.182050 0.203450 0.624440 -0.510228
O5    O     O_R   0.682050 0.296550 0.624440 -0.507994
O6    O     O_R   0.317950 0.703450 0.375560 -0.525258
O7    O     O_R   0.317950 0.296550 0.375560 -0.509523
O8    O     O_R   0.682050 0.703450 0.624440 -0.508894
O9    O     O_R   0.250530 0.763330 0.367210 -0.499597
O10   O     O_R   0.749470 0.236670 0.632790 -0.505239
O11   O     O_R   0.749470 0.763330 0.632790 -0.500790
O12   O     O_R   0.744960 0.130410 0.521520 -0.519479
O13   O     O_R   0.250530 0.236670 0.367210 -0.525449
O14   O     O_R   0.750530 0.263330 0.367210 -0.500902
O15   O     O_R   0.249470 0.736670 0.632790 -0.502625
O16   O     O_R   0.249470 0.263330 0.632790 -0.489259
O17   O     O_R   0.750530 0.736670 0.367210 -0.524842
O18   O     O_R   0.177260 0.690030 0.513710 -0.523917
O19   O     O_R   0.822740 0.309970 0.486290 -0.508276
O20   O     O_R   0.822740 0.690030 0.486290 -0.510868
O21   O     O_R   0.177260 0.309970 0.513710 -0.510539
O22   O     O_R   0.677260 0.190030 0.513710 -0.522467
O23   O     O_R   0.744960 0.869590 0.521520 -0.515005
O24   O     O_R   0.322740 0.809970 0.486290 -0.504372
O25   O     O_R   0.322740 0.190030 0.486290 -0.528411
O26   O     O_R   0.677260 0.809970 0.513710 -0.515901
O27   O     O_R   0.051640 0.926880 0.885090 -0.514354
O28   O     O_R   0.948360 0.073120 0.114910 -0.507852
O29   O     O_R   0.948360 0.926880 0.114910 -0.506521
O30   O     O_R   0.051640 0.073120 0.885090 -0.510275
O31   O     O_R   0.551640 0.426880 0.885090 -0.504970
O32   O     O_R   0.448360 0.573120 0.114910 -0.509062
O33   O     O_R   0.448360 0.426880 0.114910 -0.508809
O34   O     O_R   0.255040 0.130410 0.478480 -0.524998
O35   O     O_R   0.551640 0.573120 0.885090 -0.508657
O36   O     O_R   0.940620 0.926560 0.986760 -0.519064
O37   O     O_R   0.059380 0.073440 0.013240 -0.512270
O38   O     O_R   0.059380 0.926560 0.013240 -0.520506
O39   O     O_R   0.940620 0.073440 0.986760 -0.516946
O40   O     O_R   0.440620 0.426560 0.986760 -0.519850
O41   O     O_R   0.559380 0.573440 0.013240 -0.514632
O42   O     O_R   0.559380 0.426560 0.013240 -0.515769
O43   O     O_R   0.440620 0.573440 0.986760 -0.526209
O44   O     O_R   0.755040 0.369590 0.478480 -0.505343
O45   O     O_R   0.244960 0.630410 0.521520 -0.516128
O46   O     O_R   0.244960 0.369590 0.521520 -0.498219
O47   O     O_R   0.755040 0.630410 0.478480 -0.507166
O48   O     O_R   0.182050 0.796550 0.624440 -0.509821

loop_
_geom_bond_atom_site_label_1
_geom_bond_atom_site_label_2
_ccdc_geom_bond_type
C49   C113  A    
C144  H99   S    
C126  C127  S    
C31   C42   A    
C100  H209  S    
C164  F5    S    
C224  O21   A    
Cu7   O34   S    
C50   C79   A    
C14   C33   A    
C126  H60   S    
C19   C46   A    
C16   C31   A    
C211  C220  A    
C77   H148  S    
C132  C201  S    
C50   C59   A    
C135  C173  A    
C52   C61   A    
C141  H97   S    
C161  F2    S    
C195  C203  A    
C104  H212  S    
C156  C235  S    
C143  C144  S    
C147  H106  S    
C3    C185  A    
C208  C217  A    
C84   H162  S    
C224  O46   A    
C25   C74   S    
C125  H50   S    
C136  H80   S    
C99   H203  S    
C110  H18   S    
C117  C170  S    
C115  H31   S    
C105  C176  S    
C146  C176  A    
C3    C158  S    
Cu5   O12   S    
C6    O27   A    
C204  O4    A    
C54   C229  S    
C63   H136  S    
C206  C214  A    
C151  H118  S    
Cu9   O6    S    
C223  O47   A    
C216  C233  A    
C197  C206  A    
C160  O8    A    
Cu1   O48   S    
C100  H210  S    
C190  C199  A    
C133  H72   S    
C9    O35   A    
C71   H131  S    
C73   H134  S    
C22   C78   S    
C115  C172  S    
C179  C188  A    
C171  O7    A    
C177  C186  A    
C179  H180  S    
C117  H37   S    
C104  H3    S    
C93   H185  S    
C80   H151  S    
C94   H193  S    
C181  C190  A    
C155  C169  A    
C52   C227  S    
C181  H202  S    
C67   H124  S    
C106  H8    S    
C103  H5    S    
Cu1   Cu9   S    
C164  C173  A    
C148  C149  S    
C227  O24   A    
C83   H165  S    
C159  F1    S    
C87   H177  S    
C93   H184  S    
C184  H13   S    
C119  H42   S    
C35   C45   A    
C91   H178  S    
C15   C30   A    
C66   H57   S    
Cu8   O22   S    
C16   C25   A    
C121  H49   S    
C107  H16   S    
Cu9   O15   S    
C72   C73   S    
C193  C203  S    
C70   H133  S    
C139  C140  S    
C5    O30   A    
C102  H207  S    
C6    C186  S    
C200  C209  A    
C84   H164  S    
C4    C188  S    
C125  H52   S    
C130  C131  S    
C229  O26   A    
C128  C199  S    
C5    C189  S    
C99   H201  S    
C11   O32   A    
C47   C226  A    
C8    C192  S    
C48   C101  A    
C12   C21   A    
C207  C216  A    
C123  H54   S    
C119  C195  S    
C18   C38   A    
C85   H172  S    
C59   C224  S    
Cu2   O41   S    
Cu3   O39   S    
C5    O37   A    
C142  H95   S    
C98   C99   S    
C145  H109  S    
C229  O23   A    
C148  H115  S    
C75   H142  S    
Cu6   O11   S    
C71   H129  S    
C103  H4    S    
C202  C211  A    
C128  C129  S    
C85   C86   S    
C128  H65   S    
Cu4   O38   S    
C156  C165  A    
C7    C187  S    
C163  F4    S    
C222  O19   A    
C165  F6    S    
C37   C40   A    
C180  C189  A    
C91   H181  S    
C51   C90   A    
C133  H73   S    
C38   C39   A    
C78   C80   S    
C43   C52   A    
C124  C174  A    
C156  C168  A    
C105  H9    S    
C69   H90   S    
C77   H145  S    
C106  H6    S    
C153  H122  S    
C108  H12   S    
C74   H144  S    
C92   C93   S    
C39   C226  A    
C143  H103  S    
C215  O17   A    
C20   C35   A    
C81   H161  S    
C181  C234  A    
Cu3   O27   S    
C86   H167  S    
C2    C44   A    
C3    C220  A    
C22   C25   A    
C147  H107  S    
Cu11  O47   S    
C150  C219  S    
C118  H33   S    
Cu6   O3    S    
C222  O44   A    
C89   C91   S    
C121  C196  S    
Cu1   O1    S    
C213  C231  A    
C161  C169  A    
C89   H182  S    
C126  C198  S    
C228  O25   A    
C13   C51   A    
C82   H159  S    
C135  C161  A    
C76   H149  S    
C44   C53   A    
C58   C221  S    
C109  C169  S    
Cu3   O30   S    
C2    C45   A    
C58   C64   A    
C56   C63   A    
C95   H189  S    
C137  C212  S    
C1    C209  S    
C34   C39   A    
C138  H83   S    
Cu7   O21   S    
C160  O11   A    
C62   H112  S    
C191  C200  A    
C120  H40   S    
C177  C230  A    
C182  O2    A    
C158  C170  A    
C132  H75   S    
C165  C174  A    
C210  C219  A    
C57   C87   S    
C136  H78   S    
C162  F3    S    
C2    C40   A    
C83   C84   S    
Cu7   Cu10  S    
C166  F7    S    
C92   H187  S    
C86   H168  S    
C116  H29   S    
C134  H81   S    
C94   H194  S    
C152  H126  S    
C19   C28   A    
C24   C50   A    
C114  H23   S    
C29   C65   S    
C97   H196  S    
C98   H204  S    
C149  H111  S    
Cu7   O4    S    
C75   H140  S    
C100  C174  S    
C78   H155  S    
C60   C223  S    
Cu2   O32   S    
C193  O48   A    
C1    O9    A    
Cu10  O7    S    
C160  C211  S    
C4    O36   A    
C31   C33   A    
Cu8   O5    S    
C111  H27   S    
C123  C197  S    
C171  O13   A    
C119  H43   S    
C91   H179  S    
C141  C214  S    
C66   H35   S    
C109  H21   S    
C112  O5    A    
C98   H205  S    
C204  O16   A    
Cu5   Cu8   S    
C82   H156  S    
C14   C22   A    
C108  H14   S    
Cu4   O37   S    
C117  C118  S    
C153  H123  S    
C221  O45   A    
C147  H105  S    
C199  C208  A    
C11   C191  S    
C136  H77   S    
Cu5   O10   S    
C120  H41   S    
C131  H66   S    
C43   C57   A    
C110  H19   S    
C152  C153  S    
Cu2   Cu12  S    
C82   H157  S    
C150  C151  S    
C143  C216  S    
C51   C60   A    
C148  C218  S    
C88   H173  S    
C183  C235  A    
Cu3   O36   S    
Cu4   O28   S    
C206  C215  S    
C151  H117  S    
C150  H120  S    
C87   C88   S    
Cu10  O46   S    
Cu12  O35   S    
C187  C196  A    
C34   C37   A    
C24   C42   A    
Cu3   Cu4   S    
C61   H1    S    
C185  C194  A    
C214  C232  A    
C13   C41   A    
C137  H87   S    
C127  H56   S    
C146  C162  A    
C166  C175  A    
Cu5   O2    S    
C8    O33   A    
C64   H147  S    
C123  C125  S    
C27   C29   A    
C194  C202  A    
C4    O29   A    
C223  O20   A    
C80   H152  S    
C184  C236  A    
Cu9   O24   S    
C145  C147  S    
C130  H70   S    
C112  O10   A    
C9    O41   A    
C10   O31   A    
Cu8   O14   S    
C128  H64   S    
C158  C167  A    
C192  C201  A    
C184  C192  A    
C70   C71   S    
C69   H101  S    
Cu1   O18   S    
C23   C76   S    
C43   C226  A    
C46   C85   S    
C198  C207  A    
C205  C213  A    
C135  C231  S    
C96   C101  S    
C118  H36   S    
Cu10  O25   S    
C126  H59   S    
C131  H69   S    
C90   C94   S    
C177  H158  S    
C121  H48   S    
C107  H15   S    
C122  H47   S    
Cu1   O9    S    
C144  H100  S    
C141  H98   S    
C171  C210  S    
C35   C83   S    
C9    C194  S    
C98   C113  S    
C54   C62   A    
C155  C234  S    
C102  H208  S    
C139  H92   S    
Cu12  O40   S    
C125  H51   S    
C96   H199  S    
Cu11  O26   S    
Cu6   O23   S    
C110  H17   S    
C114  H25   S    
C162  C170  A    
C204  C207  S    
C115  H32   S    
C68   C89   S    
C123  H53   S    
C26   C72   S    
C7    O28   A    
C183  H2    S    
C87   H176  S    
C69   H113  S    
C121  C122  S    
C85   H171  S    
C88   H175  S    
Cu2   O42   S    
C178  C187  A    
C154  C175  A    
C142  H96   S    
C180  C233  A    
C178  H169  S    
C21   C23   A    
C155  C164  A    
C116  H28   S    
Cu11  O17   S    
C140  H89   S    
C186  C195  A    
C145  H108  S    
C148  H116  S    
C46   C47   A    
C66   H46   S    
C17   C68   A    
C153  H125  S    
C167  F8    S    
C75   H141  S    
C72   H139  S    
C73   H135  S    
C14   C101  A    
C217  C234  A    
C218  C235  A    
C99   H200  S    
C119  C120  S    
C157  C236  S    
C1    O6    A    
Cu9   O45   S    
C105  C106  S    
C104  H211  S    
C117  H38   S    
C16   C79   A    
C33   C41   A    
C93   H186  S    
C36   C38   A    
C178  C231  A    
C109  C110  S    
C56   C222  S    
C107  C175  S    
C188  C197  A    
C139  C213  S    
C154  C233  S    
C106  H7    S    
C111  C114  S    
C122  H44   S    
C94   C95   S    
C83   H166  S    
C6    O38   A    
C20   C36   A    
C145  C217  S    
C150  H121  S    
C103  C104  S    
C32   C42   A    
C118  H34   S    
C111  C168  S    
C179  C232  A    
C131  H67   S    
C115  C116  S    
C149  H114  S    
C129  H61   S    
C189  C198  A    
C17   C26   A    
C152  H127  S    
C122  H45   S    
C78   H154  S    
C76   H150  S    
C65   H68   S    
C70   H132  S    
C81   C82   S    
C146  C232  S    
C102  H206  S    
C151  H119  S    
C59   C64   A    
C10   C190  S    
C84   H163  S    
C95   H192  S    
C60   C63   A    
C209  C218  A    
C138  H84   S    
Cu5   O19   S    
C157  C172  A    
C53   C225  S    
C132  H76   S    
C124  C159  A    
C55   C61   A    
C103  C173  S    
C159  C168  A    
C196  C205  A    
C8    O40   A    
Cu10  O16   S    
C18   C57   A    
C86   H170  S    
C142  H94   S    
C132  C133  S    
Cu12  O31   S    
C92   H188  S    
C138  H85   S    
C116  H30   S    
C134  H82   S    
C227  O1    A    
C140  H91   S    
C97   H195  S    
C15   C23   A    
C149  H110  S    
C67   H128  S    
C12   C32   A    
C71   H130  S    
C73   H137  S    
C130  C200  S    
Cu2   O33   S    
Cu4   O29   S    
C134  C202  S    
C157  C166  A    
C20   C29   A    
Cu11  O8    S    
C74   C75   S    
C109  H20   S    
C154  C163  A    
C36   C40   A    
C28   C67   S    
C76   C77   S    
C112  C208  S    
Cu8   O44   S    
C133  H74   S    
C134  C136  S    
C105  H10   S    
C77   H146  S    
C180  H191  S    
C49   C58   A    
C67   C69   S    
C55   C228  S    
C108  H11   S    
C74   H143  S    
C10   O42   A    
C65   H79   S    
C143  H104  S    
C212  C230  A    
C53   C62   A    
C225  O12   A    
C107  C108  S    
C96   C97   S    
C139  H93   S    
C100  C102  S    
Cu12  O43   S    
C80   H153  S    
C30   C41   A    
C17   C37   A    
C96   H198  S    
C79   C92   S    
C27   C70   S    
C129  H63   S    
C21   C81   S    
C45   C54   A    
C203  C212  A    
C44   C68   A    
C228  O34   A    
C225  O22   A    
C185  H24   S    
C201  C210  A    
C88   H174  S    
C47   C55   A    
C12   C113  A    
C24   C49   A    
C48   C56   A    
C215  O3    A    
C89   H183  S    
C95   H190  S    
C219  C236  A    
C163  C172  A    
C18   C27   A    
C120  H39   S    
C19   C34   A    
C183  C191  A    
C221  O18   A    
C13   C48   A    
C11   O43   A    
C137  H86   S    
C127  H55   S    
C137  C138  S    
C26   C28   A    
Cu6   Cu11  S    
C182  C205  S    
C72   H138  S    
C81   H160  S    
C141  C142  S    
C129  H62   S    
C15   C90   A    
C30   C32   A    
C152  C220  S    
C144  H102  S    
C111  H26   S    
Cu7   O13   S    
Cu6   O20   S    
C114  H22   S    
C130  H71   S    
C97   H197  S    
C127  H58   S    
C193  O15   A    
C65   C66   S    
C140  H88   S    
C182  O14   A    
C124  C230  S    
C7    O39   A    
C167  C176  A    
