data_mof_unit_66549.cif
_audit_creation_date              2013-03-05T15:53:47-0500
_audit_creation_method            fapswitch 2.2
_symmetry_space_group_name_H-M    P1
_symmetry_Int_Tables_number       1
_space_group_crystal_system       triclinic
_cell_length_a                    11.1705
_cell_length_b                    10.701851
_cell_length_c                    10.210631
_cell_angle_alpha                 91.463092
_cell_angle_beta                  89.009908
_cell_angle_gamma                 94.293316
_cell_volume                      1216.66347505

loop_
_atom_site_label
_atom_site_type_symbol
_atom_site_description
_atom_site_fract_x
_atom_site_fract_y
_atom_site_fract_z
_atom_type_partial_charge
O1    O     O_R   0.500000 0.316780 0.614690 -0.632285
O2    O     O_R   0.499990 0.316750 0.385360 -0.588599
C1    C     C_R   0.522097 0.265227 0.499767 0.893245
O3    O     O_R   0.314800 0.499990 0.614670 -0.689753
O4    O     O_R   0.314790 0.499970 0.385330 -0.531573
C2    C     C_R   0.258819 0.508254 0.500205 0.903028
Zn1   Zn    Zn3+2 0.500010 0.500020 0.653130 0.951091
Zn2   Zn    Zn3+2 0.499990 0.499980 0.346870 1.079823
O5    O     O_R   0.500010 0.683250 0.614640 -0.653837
O6    O     O_R   0.500000 0.683220 0.385310 -0.549563
O7    O     O_R   0.685210 0.500030 0.614670 -0.695997
O8    O     O_R   0.685200 0.500010 0.385330 -0.516706
C3    C     C_R   0.495590 0.741400 0.502527 0.848174
C4    C     C_R   0.741643 0.503709 0.499577 0.798038
C5    C     C_3   0.067915 0.513022 0.648544 -0.253570
C6    C     C_3   0.927440 0.533409 0.650599 -0.222335
C7    C     C_3   0.080135 0.641812 0.427630 -0.273848
C8    C     C_3   0.064851 0.398128 0.413172 0.798446
C9    C     C_3   0.120888 0.516139 0.498613 -0.273697
C10   C     C_3   0.879272 0.510303 0.500331 -0.232463
C11   C     C_3   0.936141 0.622458 0.406446 0.291271
C12   C     C_3   0.922388 0.381633 0.435692 0.236481
C13   C     C_R   0.606970 0.137407 0.741027 0.465011
C14   C     C_R   0.580999 0.085740 0.862625 -0.138275
C15   C     C_R   0.491274 0.988728 0.871034 -0.047139
C16   C     C_R   0.465065 0.914522 0.755751 0.010858
C17   C     C_R   0.513681 0.951717 0.630378 -0.087195
C18   C     C_R   0.564442 0.075591 0.625030 0.106365
C19   C     C_R   0.562295 0.137332 0.504858 -0.177420
C20   C     C_R   0.573538 0.067854 0.390582 -0.141956
C21   C     C_R   0.528106 0.943314 0.388144 0.032403
C22   C     C_R   0.501907 0.880731 0.508073 -0.093426
C23   C     C_R   0.334100 0.328387 0.138260 0.419667
C24   C     C_R   0.248975 0.249252 0.075261 0.222132
C25   C     C_R   0.239660 0.251977 0.943848 0.273920
C26   C     C_R   0.329700 0.317690 0.869010 -0.260401
C27   C     C_R   0.417943 0.413469 0.927723 0.050231
C28   C     C_R   0.416538 0.417940 0.072129 0.092311
N1    N     N_R   0.498810 0.498800 0.142780 -0.106118
C29   C     C_R   0.578846 0.574033 0.069808 0.014070
C30   C     C_R   0.571545 0.581767 0.929621 -0.034126
N2    N     N_R   0.498760 0.498720 0.857170 -0.136117
C31   C     C_2   0.135474 0.611023 0.735283 0.481374
H1    H     H_    0.204388 0.668415 0.691601 0.084209
O9    O     O_2   0.120677 0.618542 0.854320 -0.476625
O10   O     O_3   0.865954 0.360227 0.313181 -0.711814
H2    H     H_    0.885587 0.277236 0.276116 0.341995
C32   C     C_2   0.143500 0.669493 0.294007 0.740877
H3    H     H_    0.204800 0.609045 0.246822 0.135436
O11   O     O_2   0.126164 0.764993 0.236011 -0.447990
O12   O     O_3   0.914300 0.582193 0.275284 -0.649492
H4    H     H_    0.930230 0.652449 0.214390 0.374468
C33   C     C_2   0.657961 0.118052 0.289044 0.388308
H5    H     H_    0.669133 0.217796 0.272997 0.162382
O13   O     O_2   0.724595 0.049307 0.231033 -0.539715
O14   O     O_3   0.669555 0.251795 0.734485 -0.748608
H6    H     H_    0.646414 0.305273 0.810018 0.361965
C34   C     C_2   0.639013 0.145424 0.978867 0.365650
H7    H     H_    0.730619 0.126691 0.000019 0.187736
O15   O     O_2   0.589200 0.224187 0.043469 -0.661829
C35   C     C_2   0.413117 0.985701 0.992037 0.507910
H8    H     H_    0.436461 0.047149 0.074899 0.063803
O16   O     O_2   0.317979 0.922232 0.999588 -0.460542
C36   C     C_2   0.362621 0.824667 0.763822 0.583369
H9    H     H_    0.280835 0.849164 0.719645 0.110137
O17   O     O_2   0.365625 0.733095 0.832363 -0.525696
C37   C     C_2   0.492900 0.888365 0.258817 0.526259
H10   H     H_    0.554151 0.895684 0.175543 0.110634
O18   O     O_2   0.392523 0.837224 0.243696 -0.495181
C38   C     C_2   0.685090 0.638042 0.131550 0.591130
H11   H     H_    0.771018 0.636343 0.080867 0.087401
O19   O     O_2   0.677761 0.700731 0.231509 -0.563092
C39   C     C_2   0.095156 0.393652 0.717501 0.531907
H12   H     H_    0.118830 0.399692 0.819580 0.105661
O20   O     O_2   0.074401 0.288644 0.671897 -0.442722
O21   O     O_3   0.330887 0.316030 0.268803 -0.642868
H13   H     H_    0.319587 0.226277 0.292636 0.384282
O22   O     O_3   0.175441 0.165530 0.147663 -0.771115
H14   H     H_    0.157652 0.087174 0.095489 0.416793
O23   O     O_3   0.146768 0.178745 0.884234 -0.655000
H15   H     H_    0.072611 0.183495 0.938584 0.374906
C40   C     C_2   0.323051 0.256702 0.738762 0.701321
H16   H     H_    0.295458 0.300733 0.653550 0.134904
O24   O     O_2   0.334483 0.144521 0.726115 -0.574755
C41   C     C_2   0.639675 0.684809 0.860314 0.414797
H17   H     H_    0.657950 0.675690 0.757753 0.125697
O25   O     O_2   0.672294 0.783515 0.916042 -0.574950
C42   C     C_2   0.860935 0.455029 0.760188 0.560732
H18   H     H_    0.797381 0.497660 0.826044 0.062521
O26   O     O_2   0.875167 0.345502 0.780049 -0.544087
C43   C     C_2   0.896596 0.666319 0.697121 0.266842
H19   H     H_    0.829506 0.713864 0.649543 0.049391
O27   O     O_2   0.928882 0.713982 0.801811 -0.467135
C44   C     C_2   0.115956 0.761357 0.507822 0.395819
H20   H     H_    0.055558 0.800144 0.578989 0.133930
O28   O     O_2   0.215109 0.816759 0.494057 -0.568108
C45   C     C_2   0.872004 0.744653 0.420723 0.380269
H21   H     H_    0.779039 0.743002 0.453118 0.078539
O29   O     O_2   0.918083 0.843672 0.380185 -0.448966
O30   O     O_3   0.089836 0.422477 0.279696 -0.749130
H22   H     H_    0.067248 0.347619 0.224403 0.376485
O31   O     O_3   0.123109 0.289859 0.442312 -0.702961
H23   H     H_    0.097791 0.221650 0.378996 0.399994
C46   C     C_2   0.875793 0.268882 0.513680 0.510332
H24   H     H_    0.789358 0.271807 0.558084 0.122376
O32   O     O_2   0.920046 0.167994 0.506469 -0.460323

loop_
_geom_bond_atom_site_label_1
_geom_bond_atom_site_label_2
_geom_bond_distance
_ccdc_geom_bond_type
C30   N2    1.370116 A    
C29   C30   1.439961 A    
C39   H12   1.078893 S    
C3    C22   1.487162 S    
C25   C26   1.408921 A    
C7    C32   1.551180 S    
C46   O32   1.220698 D    
C45   H21   1.083436 S    
C13   O14   1.366096 S    
C33   H5    1.081734 S    
C5    C9    1.631936 S    
C2    C9    1.549747 S    
C16   C17   1.435878 A    
C19   C20   1.376489 A    
C29   C38   1.468756 S    
C18   C19   1.409807 A    
C24   C25   1.348861 A    
O4    C2    1.323709 A    
O7    C4    1.324015 A    
C34   O15   1.218342 D    
C5    C6    1.600079 S    
C25   O23   1.391816 S    
C12   C46   1.517143 S    
O14   H6    0.990903 S    
C1    C19   1.474508 S    
C8    C9    1.610024 S    
C8    O31   1.411294 S    
Zn1   N2    2.083578 S    
C27   N2    1.433203 A    
C35   O16   1.220033 D    
C16   C36   1.441193 S    
O5    C3    1.320257 A    
C26   C40   1.466976 S    
C13   C14   1.389264 A    
C38   H11   1.083717 S    
Zn2   N1    2.083867 S    
C35   H8    1.081582 S    
C43   H19   1.067165 S    
Zn2   O8    2.112460 S    
C32   O11   1.223613 D    
C8    C12   1.601224 S    
C39   O20   1.213042 D    
O31   H23   0.991001 S    
C8    O30   1.413261 S    
O3    Zn1   2.112458 S    
C46   H24   1.061816 S    
C45   O29   1.221699 D    
C41   O25   1.221160 D    
C28   N1    1.409180 A    
C20   C33   1.473640 S    
O12   H4    0.991759 S    
C4    C10   1.533862 S    
C14   C15   1.391249 A    
O3    C2    1.343018 A    
N1    C29   1.379330 A    
O22   H14   0.991136 S    
C34   H7    1.083757 S    
C41   H17   1.066876 S    
C7    C11   1.623810 S    
C37   H10   1.082830 S    
O1    C1    1.311333 A    
C36   O17   1.221495 D    
Zn1   O7    2.099035 S    
C31   H1    1.048869 S    
C27   C28   1.473887 A    
C43   O27   1.220997 D    
C11   C45   1.539999 S    
C23   O21   1.342421 S    
C21   C22   1.426140 A    
C6    C10   1.641357 S    
C10   C11   1.639107 S    
C23   C24   1.381285 A    
C15   C35   1.500101 S    
C13   C18   1.413685 A    
O21   H13   0.995233 S    
C44   O28   1.224174 D    
C31   O9    1.225210 D    
C14   C34   1.470573 S    
C32   H3    1.076331 S    
C5    C39   1.527029 S    
C42   O26   1.217149 D    
C40   O24   1.220140 D    
C10   C12   1.614189 S    
C33   O13   1.220912 D    
C11   O12   1.415935 S    
Zn1   O5    2.009710 S    
O10   H2    0.994628 S    
C26   C27   1.489790 A    
C12   O10   1.416215 S    
C17   C22   1.447837 A    
O1    Zn1   1.990042 S    
O2    Zn2   2.009710 S    
O8    C4    1.333874 A    
O23   H15   0.992847 S    
O6    C3    1.336815 A    
O4    Zn2   2.099034 S    
C30   C41   1.480411 S    
C23   C28   1.449781 A    
C36   H9    1.078413 S    
O2    C1    1.338982 A    
C15   C16   1.425252 A    
C5    C31   1.520212 S    
C24   O22   1.388040 S    
C20   C21   1.389969 A    
O30   H22   0.987806 S    
C7    C9    1.641414 S    
C44   H20   1.079412 S    
C21   C37   1.479156 S    
C42   H18   1.086583 S    
C6    C43   1.549441 S    
Zn2   O6    1.990042 S    
C40   H16   1.061139 S    
C17   C18   1.404281 A    
C6    C42   1.559965 S    
C38   O19   1.211975 D    
C7    C44   1.532478 S    
C37   O18   1.220814 D    
