data_mof_unit_28353.cif
_audit_creation_date              2012-12-10T18:11:08-0500
_audit_creation_method            fapswitch 2.2
_symmetry_space_group_name_H-M    P1
_symmetry_Int_Tables_number       1
_space_group_crystal_system       triclinic
_cell_length_a                    10.805056
_cell_length_b                    9.622273
_cell_length_c                    10.603683
_cell_angle_alpha                 90.095253
_cell_angle_beta                  90.957601
_cell_angle_gamma                 89.76739
_cell_volume                      1102.29196462

loop_
_atom_site_label
_atom_site_type_symbol
_atom_type_description
_atom_site_fract_x
_atom_site_fract_y
_atom_site_fract_z
_atom_type_partial_charge
C1    C     C_R   0.259739 0.499871 0.493744 0.742463
C2    C     C_3   0.923503 0.617860 0.406545 -0.405340
C3    C     C_3   0.621747 0.083047 0.552330 0.149151
C4    C     C_3   0.613948 0.915747 0.568508 0.135701
C5    C     C_3   0.403711 0.079056 0.587152 0.216387
C6    C     C_3   0.390231 0.917042 0.567079 0.255590
C7    C     C_3   0.489516 0.083480 0.373727 -0.313647
C8    C     C_3   0.504726 0.918667 0.373164 -0.271510
C9    C     C_R   0.499459 0.499985 0.259999 0.755968
C10   C     C_R   0.738991 0.499884 0.496433 0.741966
C11   C     C_R   0.499831 0.499840 0.740150 0.775474
C12   C     C_3   0.499179 0.500042 0.122821 0.034015
C13   C     C_3   0.518988 0.629545 0.041671 -0.135951
C14   C     C_3   0.389193 0.454111 0.040031 -0.185288
C15   C     C_3   0.408934 0.583601 0.956568 -0.165207
C16   C     C_3   0.499626 0.498890 0.877463 0.035777
C17   C     C_3   0.609536 0.544379 0.960548 -0.172348
C18   C     C_3   0.479744 0.369189 0.958600 -0.142287
C19   C     C_3   0.589628 0.415055 0.043846 -0.169463
C20   C     C_3   0.794827 0.134445 0.704438 -0.739198
C21   C     C_3   0.729533 0.804598 0.749155 -0.668271
C22   C     C_3   0.209915 0.141236 0.692982 -0.788900
C23   C     C_3   0.073063 0.504984 0.627685 -0.388361
C24   C     C_3   0.224115 0.899669 0.383541 -0.722443
C25   C     C_3   0.066923 0.366896 0.425550 -0.389383
C26   C     C_3   0.931248 0.521763 0.626899 -0.400492
C27   C     C_3   0.925257 0.362070 0.435880 -0.377059
C28   C     C_3   0.065644 0.624650 0.417810 -0.383431
C29   C     C_3   0.120172 0.498731 0.490817 0.176591
C30   C     C_3   0.876349 0.499983 0.492003 0.194120
Cu1   Cu    Cu3+1 0.499860 0.642410 0.500060 0.928165
Cu2   Cu    Cu3+1 0.499860 0.357590 0.500060 0.932365
H1    H     H_    0.335072 0.652561 0.917683 0.112968
H2    H     H_    0.563594 0.126760 0.313802 0.153308
H3    H     H_    0.595161 0.892576 0.329815 0.115197
H4    H     H_    0.535151 0.736374 0.077945 0.118446
H5    H     H_    0.299143 0.417218 0.075862 0.110713
H6    H     H_    0.701346 0.578469 0.927744 0.110792
H7    H     H_    0.463530 0.262458 0.922115 0.115309
H8    H     H_    0.663529 0.346081 0.082628 0.114358
H9    H     H_    0.116184 0.593746 0.679413 0.141892
H10   H     H_    0.094532 0.363016 0.324941 0.146248
H11   H     H_    0.099706 0.409129 0.679440 0.174696
H12   H     H_    0.883775 0.720170 0.434309 0.159956
H13   H     H_    0.101288 0.273568 0.471878 0.180225
H14   H     H_    0.890011 0.449929 0.695615 0.143429
H15   H     H_    0.899064 0.273619 0.496762 0.181159
H16   H     H_    0.909939 0.628532 0.659007 0.158088
H17   H     H_    0.883167 0.343269 0.340849 0.143057
H18   H     H_    0.085783 0.717036 0.474760 0.203404
H19   H     H_    0.106124 0.632589 0.322446 0.148557
H20   H     H_    0.608883 0.163249 0.742132 0.248122
H21   H     H_    0.835672 0.235855 0.728991 0.223489
H22   H     H_    0.850311 0.085190 0.629145 0.203866
H23   H     H_    0.894930 0.598610 0.306691 0.154729
H24   H     H_    0.800835 0.070094 0.790940 0.226096
H25   H     H_    0.568440 0.927823 0.766064 0.215460
H26   H     H_    0.721944 0.691720 0.732004 0.241343
H27   H     H_    0.738674 0.821720 0.852492 0.192432
H28   H     H_    0.814025 0.844222 0.703579 0.199007
H29   H     H_    0.238445 0.131703 0.497111 0.265676
H30   H     H_    0.111785 0.165303 0.669173 0.219981
H31   H     H_    0.244749 0.218663 0.762644 0.239935
H32   H     H_    0.213372 0.036654 0.736982 0.199493
H33   H     H_    0.199920 0.872511 0.577684 0.223599
H34   H     H_    0.693734 0.102404 0.480077 0.109196
H35   H     H_    0.122173 0.914911 0.382755 0.189894
H36   H     H_    0.245981 0.808850 0.323584 0.237673
H37   H     H_    0.258130 0.993556 0.339523 0.195385
H38   H     H_    0.696987 0.872935 0.521062 0.129522
H39   H     H_    0.434533 0.093030 0.686431 0.067926
H40   H     H_    0.389436 0.870832 0.663196 0.073131
H41   H     H_    0.404902 0.122409 0.326299 0.165335
H42   H     H_    0.438990 0.869792 0.306762 0.192662
N1    N     N_3   0.500250 0.143650 0.502780 -0.173983
N2    N     N_3   0.500250 0.856350 0.502780 -0.163939
N3    N     N_2   0.666468 0.154213 0.666429 -0.357807
N4    N     N_2   0.619362 0.873592 0.700985 -0.379963
N5    N     N_2   0.284750 0.146555 0.580455 -0.356974
N6    N     N_2   0.269449 0.876780 0.512366 -0.376570
O1    O     O_R   0.317570 0.620260 0.500070 -0.554620
O2    O     O_R   0.317570 0.379740 0.500070 -0.552536
O3    O     O_R   0.499850 0.620240 0.316900 -0.598234
O4    O     O_R   0.499850 0.379760 0.316900 -0.598041
O5    O     O_R   0.682190 0.620260 0.500030 -0.595992
O6    O     O_R   0.682190 0.379740 0.500030 -0.561191
O7    O     O_R   0.499910 0.620280 0.683200 -0.560008
O8    O     O_R   0.499910 0.379720 0.683200 -0.571051

loop_
_geom_bond_atom_site_label_1
_geom_bond_atom_site_label_2
_ccdc_geom_bond_type
C10   O5    A    
Cu1   O5    S    
C14   C18   S    
C20   H24   S    
Cu2   N1    S    
C4    H38   S    
C23   H11   S    
C7    C8    S    
C7    H41   S    
C6    H40   S    
C20   N3    S    
C23   C29   S    
C28   C29   S    
C22   N5    S    
C21   H27   S    
C2    H23   S    
C5    C6    S    
C28   H19   S    
C1    O1    A    
C15   C16   S    
Cu2   O8    S    
C8    N2    S    
Cu1   O3    S    
C18   C19   S    
C23   C26   S    
C24   H35   S    
C22   H31   S    
C28   H18   S    
C24   N6    S    
C11   O7    A    
C16   C17   S    
C21   N4    S    
C5    N5    S    
C3    N1    S    
C26   H16   S    
H33   N6    S    
C27   C30   S    
C1    C29   S    
C24   H37   S    
C25   C29   S    
Cu2   O4    S    
Cu1   O7    S    
C13   H4    S    
C20   H22   S    
C2    H12   S    
C26   H14   S    
C7    N1    S    
C1    O2    A    
C3    C4    S    
C8    H3    S    
C5    N1    S    
C18   H7    S    
C4    N4    S    
C22   H30   S    
C11   C16   S    
C10   C30   S    
C6    N6    S    
Cu1   Cu2   S    
C11   O8    A    
Cu2   O6    S    
C8    H42   S    
C21   H28   S    
C9    O3    A    
C12   C14   S    
C26   C30   S    
C13   C15   S    
C7    H2    S    
C3    H34   S    
H20   N3    S    
C3    N3    S    
C25   H13   S    
C27   H15   S    
C10   O6    A    
H25   N4    S    
C20   H21   S    
Cu1   O1    S    
C25   H10   S    
C6    N2    S    
C25   C27   S    
Cu2   O2    S    
C23   H9    S    
C13   C17   S    
C2    C30   S    
C21   H26   S    
C5    H39   S    
C14   H5    S    
Cu1   N2    S    
H29   N5    S    
C12   C19   S    
C17   C19   S    
C17   H6    S    
C9    C12   S    
C4    N2    S    
C19   H8    S    
C24   H36   S    
C9    O4    A    
C22   H32   S    
C12   C13   S    
C16   C18   S    
C14   C15   S    
C2    C28   S    
C15   H1    S    
C27   H17   S    
