data_mof_unit_38294.cif
_audit_creation_date              2012-12-11T17:06:27-0500
_audit_creation_method            fapswitch 2.2
_symmetry_space_group_name_H-M    P1
_symmetry_Int_Tables_number       1
_space_group_crystal_system       triclinic
_cell_length_a                    7.019099
_cell_length_b                    14.507768
_cell_length_c                    16.013051
_cell_angle_alpha                 90.38981
_cell_angle_beta                  90.292397
_cell_angle_gamma                 89.764213
_cell_volume                      1630.55981227

loop_
_atom_site_label
_atom_site_type_symbol
_atom_type_description
_atom_site_fract_x
_atom_site_fract_y
_atom_site_fract_z
_atom_type_partial_charge
O1    O     O_R   0.494400 0.415450 0.412630 -0.537026
O2    O     O_R   0.823940 0.405730 0.586760 -0.553484
O3    O     O_R   0.994240 0.584550 0.587370 -0.546332
C1    C     C_R   0.655789 0.382952 0.614440 0.677081
O4    O     O_R   0.824110 0.404430 0.413240 -0.522576
O5    O     O_R   0.994420 0.583240 0.412620 -0.503506
C2    C     C_R   0.654923 0.382138 0.384627 0.758254
O6    O     O_R   0.494230 0.416760 0.587380 -0.543398
O7    O     O_3   0.660800 0.558670 0.500000 -0.367616
V1    V     V_3+5 0.935650 0.489120 0.500000 1.486126
O8    O     O_R   0.324140 0.594270 0.413240 -0.541515
C3    C     C_R   0.154750 0.616934 0.385169 0.783151
O9    O     O_R   0.323960 0.595570 0.586760 -0.546530
C4    C     C_R   0.155384 0.616841 0.615905 0.664858
V2    V     V_3+5 0.435660 0.510880 0.500000 1.465360
O10   O     O_3   0.160640 0.441330 0.500000 -0.376080
C5    C     C_3   0.072293 0.665270 0.775020 -0.119801
C6    C     C_3   0.242087 0.720314 0.812376 -0.161567
H1    H     H_    0.332101 0.697855 0.865748 0.119924
H2    H     H_    0.022870 0.597063 0.797026 0.128908
C7    C     C_3   0.120649 0.809313 0.809743 -0.068573
C8    C     C_3   0.950723 0.754821 0.773030 -0.135527
C9    C     C_3   0.023032 0.774522 0.683449 -0.173837
C10   C     C_3   0.192321 0.828399 0.721001 0.031532
C11   C     C_3   0.315209 0.740060 0.722866 -0.156084
C12   C     C_3   0.144910 0.686062 0.686376 -0.010385
H3    H     H_    0.800311 0.760679 0.793596 0.119776
H4    H     H_    0.933201 0.797051 0.630021 0.122351
H5    H     H_    0.465591 0.734472 0.702164 0.121803
C13   C     C_R   0.269992 0.748581 0.186722 0.080459
C14   C     C_R   0.118706 0.811185 0.179493 -0.090898
C15   C     C_R   0.968886 0.802829 0.237305 -0.182370
H6    H     H_    0.847309 0.848649 0.233798 0.123247
C16   C     C_R   0.980730 0.739709 0.303911 -0.118509
H7    H     H_    0.867672 0.738715 0.349536 0.127715
C17   C     C_R   0.141794 0.682341 0.314282 -0.085635
C18   C     C_R   0.280452 0.685093 0.251557 0.069886
C19   C     C_3   0.491853 0.693767 0.257559 -0.192236
C20   C     C_3   0.479681 0.764256 0.187338 -0.472927
H8    H     H_    0.539213 0.723046 0.318524 0.145937
H9    H     H_    0.547142 0.742311 0.127677 0.169970
H10   H     H_    0.515674 0.835378 0.208051 0.169824
C21   C     C_R   0.484301 0.258440 0.691589 0.075918
C22   C     C_R   0.648448 0.310885 0.679338 -0.097502
C23   C     C_R   0.802707 0.296198 0.734212 -0.159428
H11   H     H_    0.927956 0.338379 0.729095 0.160816
C24   C     C_R   0.789875 0.232518 0.800167 -0.102995
H12   H     H_    0.905084 0.225637 0.844285 0.150919
C25   C     C_R   0.621868 0.183453 0.814486 -0.067069
C26   C     C_R   0.468204 0.202099 0.761606 0.046983
C27   C     C_3   0.277006 0.242076 0.781933 -0.184731
C28   C     C_3   0.286023 0.293376 0.699793 -0.446977
H13   H     H_    0.167987 0.187362 0.783714 0.120056
H14   H     H_    0.276684 0.369800 0.705406 0.182051
H15   H     H_    0.191790 0.263525 0.650649 0.164085
C29   C     C_R   0.475422 0.263559 0.299747 0.021700
C30   C     C_R   0.643846 0.311163 0.317530 -0.125632
C31   C     C_R   0.798803 0.293090 0.265417 -0.161890
H16   H     H_    0.922425 0.334851 0.270863 0.186860
C32   C     C_R   0.787725 0.228005 0.200325 -0.164161
H17   H     H_    0.904069 0.220126 0.158820 0.176718
C33   C     C_R   0.620757 0.179386 0.183329 -0.074287
C34   C     C_R   0.464294 0.199288 0.233989 0.034299
C35   C     C_3   0.272985 0.233145 0.207658 -0.262243
C36   C     C_3   0.283676 0.302744 0.280143 -0.252510
H18   H     H_    0.168191 0.177511 0.218177 0.110815
H19   H     H_    0.184690 0.287435 0.332142 0.140566
O11   O     O_R   0.771650 0.079500 0.908680 -0.542808
O12   O     O_R   0.441690 0.091800 0.082800 -0.533713
O13   O     O_R   0.271460 0.912980 0.083410 -0.542875
C37   C     C_R   0.610268 0.113408 0.112031 0.703023
O14   O     O_R   0.441930 0.090510 0.909280 -0.526915
O15   O     O_R   0.271690 0.911670 0.908660 -0.532699
C38   C     C_R   0.610509 0.114258 0.882205 0.738802
O16   O     O_R   0.771410 0.080810 0.083440 -0.536654
O17   O     O_3   0.605100 0.937580 0.996050 -0.382670
V3    V     V_3+5 0.330220 0.007110 0.996030 1.481010
O18   O     O_R   0.941980 0.900620 0.909250 -0.546283
C39   C     C_R   0.110553 0.878812 0.880395 0.730054
O19   O     O_R   0.941740 0.901920 0.082770 -0.547397
C40   C     C_R   0.110726 0.880584 0.111828 0.680436
V4    V     V_3+5 0.830220 0.985300 0.996000 1.440458
O20   O     O_3   0.105210 0.054870 0.996020 -0.348824
C41   C     C_2   0.275520 0.310351 0.854331 0.752186
O21   O     O_2   0.133187 0.357147 0.866878 -0.582575
O22   O     O_R   0.438121 0.324713 0.903434 -0.649976
H20   H     H_    0.422314 0.377869 0.944195 0.325913
C42   C     C_2   0.270286 0.271275 0.119281 0.799338
O23   O     O_2   0.385791 0.329220 0.097718 -0.571842
O24   O     O_R   0.141769 0.235533 0.060953 -0.655402
H21   H     H_    0.148380 0.267244 0.005208 0.311548
C43   C     C_2   0.288356 0.403479 0.256113 0.441216
H22   H     H_    0.409290 0.431132 0.222963 0.092761
O25   O     O_2   0.157223 0.454936 0.274301 -0.542522
C44   C     C_2   0.257076 0.917907 0.685461 0.713339
O26   O     O_2   0.321171 0.919679 0.614666 -0.563728
O27   O     O_R   0.240154 0.998994 0.732109 -0.676848
H23   H     H_    0.280605 0.054723 0.699010 0.285777
C45   C     C_2   0.590624 0.606005 0.232110 0.419363
H24   H     H_    0.561898 0.574872 0.171508 0.056324
O28   O     O_2   0.703178 0.568795 0.279458 -0.519930

loop_
_geom_bond_atom_site_label_1
_geom_bond_atom_site_label_2
_ccdc_geom_bond_type
C36   C43   S    
C37   O16   A    
C6    C7    S    
O12   V3    S    
C44   O26   D    
C1    O6    A    
O27   H23   S    
O24   H21   S    
C20   H9    S    
C23   H11   S    
C33   C34   A    
C5    C12   S    
C17   C18   A    
C41   O22   S    
C16   H7    S    
O5    C3    A    
C19   C20   S    
C21   C28   S    
V3    O20   S    
C31   C32   A    
C29   C36   S    
C5    H2    S    
C29   C30   A    
C32   C33   A    
C6    H1    S    
C9    C12   S    
O12   C37   A    
O13   C40   A    
O14   V3    S    
O8    V2    S    
C45   H24   S    
C36   H19   S    
C13   C20   S    
C9    C10   S    
O1    V2    S    
C3    C17   S    
O7    V1    S    
C28   H15   S    
C25   C38   S    
O9    C4    A    
O13   V3    S    
C6    C11   S    
C28   H14   S    
C26   C27   S    
C20   H10   S    
O17   V3    S    
C23   C24   A    
C11   H5    S    
C27   C28   S    
C10   C11   S    
O19   V4    S    
C10   C44   S    
O17   V4    S    
O4    C2    A    
O18   C39   A    
C19   C45   S    
C1    C22   S    
C31   H16   S    
C4    C12   S    
C13   C18   A    
C32   H17   S    
C27   H13   S    
C35   H18   S    
O2    C1    A    
C21   C22   A    
C18   C19   S    
O18   V4    S    
C24   H12   S    
C7    C39   S    
C43   O25   D    
C5    C6    S    
O15   C39   A    
C29   C34   A    
C21   C26   A    
C9    H4    S    
C41   O21   D    
O3    C4    A    
O14   C38   A    
C45   O28   D    
C42   O24   S    
V4    O20   S    
O6    V2    S    
C8    H3    S    
O9    V2    S    
O2    V1    S    
C22   C23   A    
O22   H20   S    
O1    C2    A    
C14   C15   A    
O19   C40   A    
O5    V1    S    
O8    C3    A    
C44   O27   S    
O16   V4    S    
C24   C25   A    
C5    C8    S    
C14   C40   S    
O11   V4    S    
C15   H6    S    
C11   C12   S    
O4    V1    S    
O3    V1    S    
V1    O10   S    
C35   C36   S    
C19   H8    S    
C30   C31   A    
C13   C14   A    
C43   H22   S    
C2    C30   S    
C33   C37   S    
C16   C17   A    
O7    V2    S    
C34   C35   S    
C42   O23   D    
C25   C26   A    
C7    C10   S    
O15   V3    S    
C8    C9    S    
C7    C8    S    
O11   C38   A    
C27   C41   S    
C35   C42   S    
V2    O10   S    
C15   C16   A    
