data_mof_unit_23994.cif
_audit_creation_date              2012-12-10T17:06:15-0500
_audit_creation_method            fapswitch 2.2
_symmetry_space_group_name_H-M    P1
_symmetry_Int_Tables_number       1
_space_group_crystal_system       triclinic
_cell_length_a                    10.656439
_cell_length_b                    11.039632
_cell_length_c                    10.010205
_cell_angle_alpha                 111.379101
_cell_angle_beta                  97.218004
_cell_angle_gamma                 93.652656
_cell_volume                      1080.23696371

loop_
_atom_site_label
_atom_site_type_symbol
_atom_type_description
_atom_site_fract_x
_atom_site_fract_y
_atom_site_fract_z
_atom_type_partial_charge
C1    C     C_R   0.488084 0.254010 0.440266 0.783325
C2    C     C_3   0.122343 0.499215 0.503536 -0.057982
C3    C     C_3   0.976221 0.587914 0.626519 -0.194574
C4    C     C_3   0.021752 0.418050 0.370213 -0.188184
C5    C     C_2   0.474537 0.112581 0.406913 -0.019095
C6    C     C_2   0.511386 0.886765 0.596809 -0.025458
C7    C     C_2   0.479660 0.070185 0.517105 -0.153624
C8    C     C_2   0.468928 0.930962 0.492729 -0.188292
C9    C     C_2   0.506954 0.518207 0.082439 0.278660
C10   C     C_2   0.490500 0.488140 0.921913 0.336312
C11   C     C_3   0.086785 0.421030 0.728392 -0.427284
C12   C     C_R   0.507794 0.745762 0.560182 0.843047
C13   C     C_3   0.975343 0.382544 0.792542 -0.828562
C14   C     C_3   0.903236 0.587279 0.271255 -0.399767
C15   C     C_3   0.009020 0.612596 0.191822 -0.821726
C16   C     C_R   0.259587 0.497718 0.501065 0.769382
C17   C     C_R   0.739936 0.504882 0.499049 0.782244
C18   C     C_3   0.042663 0.463955 0.604380 0.224072
C19   C     C_3   0.954281 0.541782 0.392389 0.212734
C20   C     C_3   0.941635 0.382437 0.472581 -0.201171
C21   C     C_3   0.056382 0.623363 0.523998 -0.206221
C22   C     C_3   0.876024 0.506432 0.494339 -0.059796
Cu1   Cu    Cu3+1 0.522260 0.521810 0.644920 0.930426
Cu2   Cu    Cu3+1 0.477740 0.478190 0.355080 0.938888
H1    H     H_    0.892579 0.283774 0.450803 0.134161
H2    H     H_    0.140173 0.335478 0.686779 0.197719
H3    H     H_    0.148208 0.505225 0.814209 0.210116
H4    H     H_    0.082941 0.691072 0.268083 0.250862
H5    H     H_    0.053981 0.522028 0.142750 0.253962
H6    H     H_    0.968483 0.644326 0.103883 0.239527
H7    H     H_    0.828847 0.511015 0.192372 0.218264
H8    H     H_    0.860197 0.679253 0.319485 0.196626
H9    H     H_    0.492275 0.030107 0.787798 0.222312
H10   H     H_    0.640193 0.035263 0.740735 0.221766
H11   H     H_    0.533561 0.041501 0.211676 0.234471
H12   H     H_    0.105288 0.721920 0.545060 0.134429
H13   H     H_    0.374011 0.039458 0.203563 0.227993
H14   H     H_    0.306879 0.416256 0.879888 0.182664
H15   H     H_    0.370054 0.376366 0.728766 0.279569
H16   H     H_    0.504479 0.708164 0.210230 0.235321
H17   H     H_    0.635168 0.637403 0.258626 0.252094
H18   H     H_    0.742542 0.595888 0.897909 0.227530
H19   H     H_    0.659997 0.725915 0.934426 0.248858
H20   H     H_    0.490430 0.276725 0.989968 0.213509
H21   H     H_    0.329140 0.283285 0.006600 0.219063
H22   H     H_    0.955879 0.657400 0.731678 0.138721
H23   H     H_    0.041898 0.348331 0.265110 0.142445
H24   H     H_    0.427019 0.862259 0.385236 0.186314
H25   H     H_    0.494837 0.140096 0.628564 0.165005
H26   H     H_    0.920152 0.466527 0.834857 0.253567
H27   H     H_    0.911394 0.298553 0.709221 0.251744
H28   H     H_    0.012272 0.353082 0.883515 0.235607
N1    N     N_2   0.444270 0.445410 0.137360 -0.137227
N2    N     N_2   0.555730 0.554590 0.862640 -0.137020
N3    N     N_3   0.562640 0.973480 0.743097 -0.590723
N4    N     N_3   0.456453 0.021697 0.258657 -0.592133
N5    N     N_3   0.388653 0.388169 0.835927 -0.658974
N6    N     N_3   0.571646 0.644170 0.174566 -0.574856
N7    N     N_3   0.665212 0.635666 0.945197 -0.493353
N8    N     N_3   0.423456 0.309941 0.059301 -0.458844
O1    O     O_R   0.511880 0.332340 0.577400 -0.604846
O2    O     O_R   0.488120 0.667660 0.422600 -0.625119
O3    O     O_R   0.474280 0.295500 0.332650 -0.538749
O4    O     O_R   0.525720 0.704500 0.667350 -0.547734
O5    O     O_R   0.335640 0.518390 0.622350 -0.608883
O6    O     O_R   0.664360 0.481610 0.377650 -0.594962
O7    O     O_R   0.298050 0.481550 0.377590 -0.558038
O8    O     O_R   0.701950 0.518450 0.622410 -0.580113

loop_
_geom_bond_atom_site_label_1
_geom_bond_atom_site_label_2
_ccdc_geom_bond_type
Cu1   O8    S    
H18   N7    S    
C2    C4    S    
Cu1   Cu2   S    
C8    H24   S    
H21   N8    S    
H9    N3    S    
C19   C22   S    
C4    C20   S    
H19   N7    S    
C2    C18   S    
H14   N5    S    
C12   O2    A    
C9    C10   S    
C14   H7    S    
C5    N4    S    
C17   C22   S    
Cu2   O7    S    
C4    C19   S    
Cu2   O6    S    
C6    N3    S    
Cu1   O5    S    
C2    C21   S    
C6    C8    D    
C15   H4    S    
H10   N3    S    
C11   C18   S    
C21   H12   S    
Cu1   N2    S    
C11   C13   S    
H15   N5    S    
C17   O6    A    
H20   N8    S    
C12   O4    A    
C1    O3    A    
Cu1   O4    S    
C19   C21   S    
N1    N8    S    
C20   C22   S    
H17   N6    S    
C15   H5    S    
Cu2   O3    S    
C18   C20   S    
N2    N7    S    
C6    C12   S    
C10   N2    D    
C3    C18   S    
C1    C5    S    
C3    C21   S    
H16   N6    S    
C9    N1    D    
C20   H1    S    
C13   H26   S    
C13   H28   S    
C7    C8    S    
C10   N5    S    
C2    C16   S    
C7    H25   S    
C15   H6    S    
C5    C7    D    
C9    N6    S    
Cu1   O1    S    
C16   O7    A    
C14   C15   S    
C3    C22   S    
Cu2   O2    S    
C16   O5    A    
C3    H22   S    
C11   H2    S    
H11   N4    S    
C13   H27   S    
H13   N4    S    
C14   C19   S    
Cu2   N1    S    
C14   H8    S    
C11   H3    S    
C17   O8    A    
C4    H23   S    
C1    O1    A    
