data_mof_unit_14308.cif
_audit_creation_date              2012-12-11T16:28:11-0500
_audit_creation_method            fapswitch 2.2
_symmetry_space_group_name_H-M    P1
_symmetry_Int_Tables_number       1
_space_group_crystal_system       triclinic
_cell_length_a                    30.230697
_cell_length_b                    22.666983
_cell_length_c                    18.099165
_cell_angle_alpha                 89.959262
_cell_angle_beta                  123.094367
_cell_angle_gamma                 90.043291
_cell_volume                      10390.2576467

loop_
_atom_site_label
_atom_site_type_symbol
_atom_type_description
_atom_site_fract_x
_atom_site_fract_y
_atom_site_fract_z
_atom_type_partial_charge
C1    C     C_R   0.531994 0.605241 0.708880 -0.145605
C2    C     C_R   0.620298 0.268688 0.425025 0.719388
C3    C     C_R   0.751110 0.723104 0.901079 0.812079
C4    C     C_R   0.208126 0.694621 0.842165 0.829992
C5    C     C_R   0.713994 0.172428 0.051069 0.836415
C6    C     C_R   0.724359 0.820883 0.035959 0.797940
C7    C     C_R   0.299932 0.135443 0.026474 0.851630
C8    C     C_R   0.747000 0.154937 0.857652 -0.341260
C9    C     C_R   0.166086 0.698726 0.025726 -0.318426
C10   C     C_R   0.217650 0.193629 0.136946 -0.289347
C11   C     C_R   0.805511 0.728778 0.945065 -0.328563
C12   C     C_R   0.249704 0.658116 0.857514 -0.321195
C13   C     C_R   0.677559 0.653092 0.419083 0.742735
C14   C     C_R   0.668571 0.202233 0.032145 -0.306143
C15   C     C_R   0.672601 0.805455 0.005031 -0.314811
C16   C     C_R   0.351419 0.155170 0.060967 -0.333093
C17   C     C_R   0.592670 0.584946 0.423841 -0.056937
C18   C     C_R   0.419396 0.393784 0.573169 -0.074911
C19   C     C_R   0.407179 0.587669 0.574046 -0.078703
C20   C     C_R   0.576801 0.391294 0.426533 -0.097968
C21   C     C_R   0.094874 0.083584 0.426220 -0.149147
C22   C     C_R   0.921554 0.893207 0.574430 -0.076199
C23   C     C_R   0.909237 0.090413 0.575145 -0.058853
C24   C     C_R   0.384854 0.262151 0.554560 0.783880
C25   C     C_R   0.074480 0.889974 0.426113 -0.103284
C26   C     C_R   0.382787 0.585166 0.261870 -0.059156
C27   C     C_R   0.614830 0.408310 0.734312 -0.109712
C28   C     C_R   0.606498 0.607539 0.709559 -0.076333
C29   C     C_R   0.386338 0.404404 0.271140 -0.103594
C30   C     C_R   0.882700 0.084790 0.261554 -0.045696
C31   C     C_R   0.115152 0.909042 0.734920 -0.102445
C32   C     C_R   0.117659 0.082642 0.740702 -0.105183
C33   C     C_R   0.884083 0.912741 0.261139 -0.108930
C34   C     C_R   0.576840 0.638078 0.735644 0.156060
C35   C     C_R   0.826518 0.181678 0.556277 0.756158
C36   C     C_R   0.410745 0.377746 0.233300 0.144840
C37   C     C_R   0.403116 0.601699 0.212609 0.135597
C38   C     C_R   0.590899 0.384323 0.775055 0.147698
C39   C     C_R   0.097189 0.099557 0.790161 0.128539
C40   C     C_R   0.907150 0.895233 0.215843 0.170821
C41   C     C_R   0.902960 0.100938 0.212085 0.136015
C42   C     C_R   0.091567 0.885469 0.776371 0.153690
C43   C     C_R   0.641722 0.600509 0.495273 0.151664
C44   C     C_R   0.379702 0.364310 0.498839 0.148844
C45   C     C_R   0.360208 0.606605 0.500944 0.183001
C46   C     C_R   0.116978 0.766890 0.424354 0.743253
C47   C     C_R   0.612067 0.357913 0.499939 0.148084
C48   C     C_R   0.144203 0.098300 0.499740 0.146096
C49   C     C_R   0.883739 0.861685 0.501524 0.148985
C50   C     C_R   0.862047 0.109415 0.502202 0.176964
C51   C     C_R   0.109768 0.856531 0.499525 0.145660
C52   C     C_R   0.226692 0.620962 0.466216 0.588635
C53   C     C_R   0.700052 0.226245 0.591986 0.593598
C54   C     C_R   0.781001 0.620135 0.552814 0.579249
C55   C     C_R   0.278400 0.244341 0.419980 0.650463
C56   C     C_R   0.729612 0.121054 0.470798 0.549826
C57   C     C_R   0.233403 0.143635 0.574830 0.763570
C58   C     C_R   0.199778 0.726795 0.590547 0.607243
C59   C     C_R   0.239257 0.119899 0.428139 0.638858
C60   C     C_R   0.818665 0.712725 0.426988 0.576243
C61   C     C_R   0.268750 0.598857 0.462357 -0.468259
C62   C     C_R   0.666487 0.271623 0.584266 -0.387519
C63   C     C_R   0.737480 0.598568 0.553163 -0.463860
C64   C     C_R   0.303392 0.297118 0.424847 -0.367480
C65   C     C_R   0.770556 0.101177 0.463263 -0.382439
C66   C     C_R   0.165559 0.771072 0.583702 -0.393332
C67   C     C_R   0.196123 0.100029 0.429928 -0.430345
C68   C     C_R   0.858687 0.788020 0.574083 0.732555
C69   C     C_R   0.845570 0.764913 0.432438 -0.457581
C70   C     C_R   0.316755 0.629470 0.503667 -0.117656
C71   C     C_R   0.631659 0.298076 0.502051 -0.117107
C72   C     C_R   0.686243 0.617675 0.489318 -0.110324
C73   C     C_R   0.355700 0.307360 0.494140 -0.142181
C74   C     C_R   0.818776 0.131515 0.506155 -0.156114
C75   C     C_R   0.129125 0.796565 0.501563 -0.130040
C76   C     C_R   0.191822 0.113953 0.501449 -0.134082
C77   C     C_R   0.862763 0.803982 0.503193 -0.097237
C78   C     C_3   0.728683 0.348431 0.904475 0.201570
C79   C     C_R   0.283059 0.703263 0.554442 -0.381510
C80   C     C_3   0.770337 0.364095 0.885180 -0.940865
C81   C     C_3   0.342119 0.741118 0.170324 0.230773
C82   C     C_3   0.337894 0.775926 0.237979 -0.819718
C83   C     C_3   0.277883 0.356283 0.062815 0.193326
C84   C     C_3   0.231140 0.391110 0.049647 -0.822558
C85   C     C_3   0.639180 0.781725 0.702273 0.241333
C86   C     C_3   0.647871 0.779919 0.627080 -0.810113
C87   C     C_3   0.229381 0.849703 0.906432 0.195054
C88   C     C_3   0.271817 0.864823 0.888779 -0.902410
C89   C     C_3   0.844428 0.242372 0.168779 0.224762
C90   C     C_R   0.650527 0.220542 0.431819 -0.335258
C91   C     C_3   0.841870 0.278651 0.236950 -0.803457
C92   C     C_3   0.786152 0.945054 0.999190 0.221504
C93   C     C_3   0.753577 0.997718 0.994399 -0.766954
C94   C     C_3   0.188406 0.210778 0.841202 0.145139
C95   C     C_3   0.202963 0.224048 0.774762 -0.698556
C96   C     C_3   0.389166 0.593551 0.911416 0.256693
C97   C     C_3   0.386113 0.585873 0.825165 -0.858999
C98   C     C_3   0.529412 0.262522 0.950944 0.212414
C99   C     C_3   0.512095 0.236304 0.008631 -0.765262
C100  C     C_3   0.521632 0.790990 0.895723 0.259450
C101  C     C_R   0.719939 0.672430 0.416160 -0.368921
C102  C     C_3   0.501634 0.813505 0.951507 -0.851422
C103  C     C_3   0.488508 0.170962 0.203712 0.250823
C104  C     C_3   0.533151 0.145005 0.198650 -0.821558
C105  C     C_3   0.884643 0.084338 0.908389 0.250128
C106  C     C_3   0.880245 0.076384 0.821087 -0.861324
C107  C     C_3   0.024982 0.751374 0.933014 0.219088
C108  C     C_3   0.004309 0.724078 0.985152 -0.783813
C109  C     C_3   0.107261 0.096737 0.098174 0.303341
C110  C     C_3   0.093106 0.106974 0.165900 -0.888534
C111  C     C_3   0.929566 0.687707 0.111492 0.272518
C112  C     C_R   0.459523 0.405480 0.269887 -0.145607
C113  C     C_R   0.360540 0.208639 0.548635 -0.424054
C114  C     C_3   0.964575 0.642207 0.105930 -0.898201
C115  C     C_3   0.158396 0.576068 0.340327 0.254912
C116  C     C_3   0.099007 0.567295 0.292538 -0.868373
C117  C     C_3   0.770461 0.254032 0.730627 0.234796
C118  C     C_3   0.827436 0.235836 0.796047 -0.914424
C119  C     C_3   0.842735 0.606924 0.702908 0.263256
C120  C     C_3   0.901391 0.617168 0.769326 -0.864109
C121  C     C_3   0.194437 0.271148 0.374839 0.232031
C122  C     C_3   0.137089 0.251797 0.316634 -0.840400
C123  C     C_3   0.678942 0.053900 0.484417 0.266466
C124  C     C_R   0.785342 0.203046 0.560673 -0.346690
C125  C     C_3   0.625104 0.024198 0.436574 -0.864381
C126  C     C_3   0.271176 0.757738 0.726226 0.236733
C127  C     C_3   0.328686 0.741422 0.791370 -0.928493
C128  C     C_3   0.278983 0.072193 0.369062 0.248594
C129  C     C_3   0.281189 0.066779 0.287371 -0.838579
C130  C     C_3   0.773883 0.704188 0.274129 0.249705
C131  C     C_3   0.734483 0.663384 0.200656 -0.821978
C132  C     C_R   0.147826 0.719621 0.430373 -0.353878
C133  C     C_R   0.276050 0.163522 0.573162 -0.409002
C134  C     C_R   0.834847 0.735445 0.571460 -0.370663
C135  C     C_R   0.234795 0.673016 0.514296 0.004401
C136  C     C_R   0.692884 0.202534 0.514580 -0.051232
C137  C     C_R   0.771632 0.658409 0.484387 0.011955
C138  C     C_R   0.306976 0.200139 0.483351 -0.039112
C139  C     C_R   0.736875 0.173074 0.518511 -0.038579
C140  C     C_R   0.455703 0.583655 0.258814 -0.144813
C141  C     C_R   0.191408 0.702499 0.512512 -0.011273
C142  C     C_R   0.277262 0.155840 0.497665 -0.103829
C143  C     C_R   0.812950 0.698863 0.497208 0.017278
C144  C     C_R   0.368684 0.620684 0.120704 -0.112585
C145  C     C_R   0.611429 0.337356 0.842805 -0.115285
C146  C     C_R   0.592409 0.691700 0.789419 -0.077606
C147  C     C_R   0.394359 0.321517 0.183480 -0.150932
C148  C     C_R   0.868394 0.119678 0.120188 -0.115410
C149  C     C_R   0.111750 0.837667 0.842806 -0.124355
C150  C     C_R   0.129116 0.119217 0.883474 -0.123295
C151  C     C_R   0.540619 0.408616 0.732735 -0.091368
C152  C     C_R   0.882775 0.860424 0.135496 -0.133372
C153  C     C_R   0.335011 0.611195 0.963901 0.596202
C154  C     C_R   0.603931 0.280237 0.950306 0.608440
C155  C     C_R   0.592953 0.750012 0.902828 0.578892
C156  C     C_R   0.418144 0.232542 0.136925 0.581251
C157  C     C_R   0.832377 0.107601 0.962896 0.587125
C158  C     C_R   0.101533 0.776829 0.944218 0.605368
C159  C     C_R   0.137325 0.143069 0.022189 0.589283
C160  C     C_R   0.887544 0.775383 0.059018 0.588838
C161  C     C_R   0.374055 0.598878 0.053538 -0.447550
C162  C     C_R   0.043972 0.083301 0.740968 -0.116216
C163  C     C_R   0.587276 0.326818 0.889527 -0.407529
C164  C     C_R   0.569979 0.706204 0.837599 -0.427628
C165  C     C_R   0.430565 0.289111 0.173836 -0.371269
C166  C     C_R   0.872172 0.095869 0.052393 -0.458967
C167  C     C_R   0.086177 0.825027 0.886622 -0.432233
C168  C     C_R   0.107678 0.120922 0.935620 -0.419312
C169  C     C_R   0.912666 0.818592 0.124156 -0.407845
C170  C     C_R   0.323936 0.653222 0.099292 0.539916
C171  C     C_R   0.652131 0.299490 0.856042 0.601914
C172  C     C_R   0.634853 0.724617 0.802042 0.559877
C173  C     C_R   0.958169 0.915221 0.261996 -0.163211
C174  C     C_R   0.345367 0.295613 0.156837 0.583325
C175  C     C_R   0.824568 0.153625 0.099747 0.537332
C176  C     C_R   0.152776 0.800304 0.856030 0.593033
C177  C     C_R   0.181772 0.137609 0.920765 0.586945
C178  C     C_R   0.828272 0.862308 0.077449 0.572047
C179  C     C_R   0.280802 0.655062 0.012189 -0.100175
C180  C     C_R   0.663220 0.247864 0.906149 -0.108149
C181  C     C_R   0.666854 0.752950 0.883358 -0.144642
C182  C     C_R   0.336016 0.235963 0.132153 -0.089597
C183  C     C_R   0.780600 0.154976 0.013387 -0.110125
C184  C     C_R   0.955592 0.083155 0.258442 -0.158546
C185  C     C_R   0.163307 0.747698 0.903951 -0.106921
C186  C     C_R   0.213886 0.150665 0.010994 -0.108897
C187  C     C_R   0.802490 0.812672 0.025263 -0.128521
C188  C     C_R   0.288443 0.640695 0.943903 -0.123252
C189  C     C_R   0.644442 0.242830 0.962388 -0.141769
C190  C     C_R   0.643604 0.770696 0.929785 -0.120756
C191  C     C_R   0.369142 0.207217 0.110814 -0.162459
C192  C     C_R   0.786659 0.138569 0.944051 -0.124148
C193  C     C_R   0.142879 0.740475 0.957498 -0.136670
C194  C     C_R   0.189685 0.161583 0.057873 -0.155383
C195  C     C_R   0.041303 0.909775 0.734170 -0.158869
C196  C     C_R   0.831920 0.772652 0.008282 -0.144081
C197  C     C_R   0.231774 0.677171 0.991283 -0.164763
C198  C     C_R   0.700116 0.206492 0.913138 -0.151932
C199  C     C_R   0.721624 0.760397 0.922050 -0.156902
C200  C     C_R   0.290258 0.206995 0.116275 -0.169141
C201  C     C_R   0.732126 0.177873 0.993998 -0.169894
C202  C     C_R   0.200760 0.707044 0.911256 -0.156266
C203  C     C_R   0.267879 0.163581 0.050609 -0.170825
C204  C     C_R   0.749027 0.800604 0.992627 -0.156822
C205  C     C_R   0.643574 0.583509 0.570721 -0.148246
C206  C     C_R   0.324142 0.681140 0.550549 0.753049
C207  C     C_R   0.368590 0.396654 0.426215 -0.138455
C208  C     C_R   0.357886 0.587306 0.426795 -0.150326
C209  C     C_R   0.626249 0.392163 0.573279 -0.134680
C210  C     C_R   0.143886 0.082501 0.573170 -0.085469
C211  C     C_R   0.871806 0.893329 0.427066 -0.151387
C212  C     C_R   0.858604 0.088665 0.427473 -0.140137
C213  C     C_R   0.125168 0.891380 0.572972 -0.141313
C214  C     C_R   0.706048 0.192280 0.842972 0.831935
C215  C     C_R   0.212189 0.669847 0.046054 0.836925
C216  C     C_R   0.266223 0.219238 0.163273 0.826349
F1    F     F_    0.669889 0.210166 0.759359 -0.684845
F2    F     F_    0.583027 0.287958 0.343114 -0.745943
F3    F     F_    0.628590 0.673076 0.356945 -0.712722
F4    F     F_    0.436469 0.269695 0.619484 -0.709737
F5    F     F_    0.873085 0.211411 0.597390 -0.699015
F6    F     F_    0.078219 0.785139 0.342777 -0.735476
F7    F     F_    0.230752 0.158980 0.644711 -0.734075
F8    F     F_    0.873132 0.825205 0.642395 -0.729577
F9    F     F_    0.234806 0.631188 0.114490 -0.699756
F10   F     F_    0.291423 0.251765 0.238448 -0.679685
F11   F     F_    0.729724 0.674616 0.849484 -0.710663
F12   F     F_    0.172660 0.713250 0.758682 -0.687014
F13   F     F_    0.737301 0.134662 0.120602 -0.692262
F14   F     F_    0.752139 0.846865 0.116528 -0.706529
F15   F     F_    0.282970 0.086501 0.974837 -0.687308
F16   F     F_    0.370572 0.711094 0.590047 -0.715269
H1    H     H_    0.501412 0.614741 0.720508 0.113345
H2    H     H_    0.407543 0.571176 0.071291 0.155061
H3    H     H_    0.211753 0.240479 0.898973 0.096964
H4    H     H_    0.145534 0.220360 0.809282 0.109898
H5    H     H_    0.178713 0.196419 0.715029 0.275843
H6    H     H_    0.195332 0.271271 0.755452 0.186989
H7    H     H_    0.245453 0.214525 0.804099 0.273639
H8    H     H_    0.414552 0.557576 0.956407 0.103526
H9    H     H_    0.407528 0.637246 0.940038 0.089015
H10   H     H_    0.359427 0.619391 0.776312 0.273510
H11   H     H_    0.426037 0.590924 0.836982 0.202040
H12   H     H_    0.370751 0.541269 0.797613 0.255910
H13   H     H_    0.468922 0.307059 0.195206 0.206379
H14   H     H_    0.518961 0.230359 0.897064 0.113021
H15   H     H_    0.507211 0.304239 0.921886 0.108340
H16   H     H_    0.521583 0.267130 0.063096 0.270468
H17   H     H_    0.468842 0.228236 0.968598 0.221622
H18   H     H_    0.532744 0.193763 0.036936 0.247038
H19   H     H_    0.492207 0.758858 0.847348 0.115332
H20   H     H_    0.524531 0.829245 0.859794 0.091917
H21   H     H_    0.529704 0.846396 0.000055 0.258981
H22   H     H_    0.462460 0.834732 0.908488 0.208467
H23   H     H_    0.497575 0.776239 0.987293 0.258079
H24   H     H_    0.536195 0.682405 0.827797 0.168311
H25   H     H_    0.466956 0.134119 0.211462 0.094825
H26   H     H_    0.506550 0.199767 0.263281 0.146260
H27   H     H_    0.556800 0.181025 0.194979 0.268950
H28   H     H_    0.559394 0.118184 0.258497 0.229127
H29   H     H_    0.516870 0.116433 0.139482 0.249575
H30   H     H_    0.908104 0.046769 0.951674 0.100806
H31   H     H_    0.905605 0.126725 0.938395 0.093985
H32   H     H_    0.855899 0.112138 0.774494 0.268799
H33   H     H_    0.920173 0.077592 0.832171 0.203596
H34   H     H_    0.861535 0.033248 0.791281 0.258193
H35   H     H_    0.055495 0.853756 0.879188 0.165226
H36   H     H_    0.019794 0.718268 0.883205 0.100893
H37   H     H_    0.000847 0.791127 0.898524 0.123188
H38   H     H_    0.008538 0.755756 0.035433 0.281737
H39   H     H_    0.961937 0.712557 0.940035 0.229035
H40   H     H_    0.026906 0.683358 0.018548 0.238226
H41   H     H_    0.144276 0.070091 0.130387 0.093013
H42   H     H_    0.074703 0.071374 0.042081 0.079081
H43   H     H_    0.055995 0.132882 0.136134 0.248492
H44   H     H_    0.087521 0.063991 0.189247 0.197597
H45   H     H_    0.125430 0.131517 0.223147 0.289384
H46   H     H_    0.904938 0.067049 0.069645 0.153574
H47   H     H_    0.892820 0.665162 0.096696 0.096086
H48   H     H_    0.951198 0.704877 0.180356 0.122761
H49   H     H_    0.003450 0.662094 0.127878 0.264899
H50   H     H_    0.971084 0.604248 0.149600 0.219999
H51   H     H_    0.945536 0.626077 0.037109 0.256780
H52   H     H_    0.176171 0.533942 0.337372 0.107943
H53   H     H_    0.165523 0.611218 0.304755 0.092322
H54   H     H_    0.079965 0.608730 0.294171 0.261197
H55   H     H_    0.082407 0.555076 0.222714 0.211870
H56   H     H_    0.090212 0.531531 0.324651 0.263512
H57   H     H_    0.955258 0.817442 0.168362 0.204301
H58   H     H_    0.752399 0.265984 0.767822 0.171785
H59   H     H_    0.771273 0.293753 0.694890 0.083303
H60   H     H_    0.846326 0.222600 0.760494 0.275189
H61   H     H_    0.849809 0.273442 0.840203 0.218456
H62   H     H_    0.829066 0.198520 0.836912 0.269787
H63   H     H_    0.831760 0.564023 0.718437 0.109901
H64   H     H_    0.820846 0.643345 0.710889 0.089340
H65   H     H_    0.913499 0.660126 0.756098 0.254357
H66   H     H_    0.909730 0.617830 0.837172 0.206763
H67   H     H_    0.924743 0.581273 0.764669 0.266522
H68   H     H_    0.067171 0.108045 0.908379 0.163558
H69   H     H_    0.196939 0.318497 0.361296 0.098934
H70   H     H_    0.206887 0.265910 0.444977 0.089292
H71   H     H_    0.132889 0.205512 0.332012 0.250243
H72   H     H_    0.111952 0.280522 0.328769 0.207608
H73   H     H_    0.123490 0.255049 0.246022 0.269073
H74   H     H_    0.683969 0.078288 0.542009 0.115392
H75   H     H_    0.709808 0.019040 0.508320 0.102175
H76   H     H_    0.618933 0.998881 0.379140 0.261266
H77   H     H_    0.622656 0.993501 0.482064 0.213075
H78   H     H_    0.593564 0.057978 0.413082 0.251650
H79   H     H_    0.678305 0.581470 0.637050 0.119468
H80   H     H_    0.253602 0.770212 0.764019 0.167771
H81   H     H_    0.270624 0.796759 0.688079 0.077920
H82   H     H_    0.347278 0.727685 0.755534 0.274210
H83   H     H_    0.350468 0.780122 0.833275 0.217425
H84   H     H_    0.331528 0.705021 0.834571 0.269334
H85   H     H_    0.270357 0.027843 0.384879 0.086791
H86   H     H_    0.318503 0.087261 0.424515 0.102821
H87   H     H_    0.292008 0.109919 0.272435 0.260964
H88   H     H_    0.311379 0.033629 0.299003 0.206759
H89   H     H_    0.242227 0.052635 0.230005 0.243886
H90   H     H_    0.337887 0.387711 0.358877 0.133010
H91   H     H_    0.804267 0.716786 0.260384 0.121231
H92   H     H_    0.751982 0.744239 0.272690 0.108167
H93   H     H_    0.703273 0.650130 0.212009 0.259546
H94   H     H_    0.715778 0.686498 0.136195 0.218733
H95   H     H_    0.754893 0.623295 0.198622 0.254978
H96   H     H_    0.323727 0.587214 0.359763 0.133330
H97   H     H_    0.485634 0.401543 0.246955 0.105543
H98   H     H_    0.655476 0.382184 0.641030 0.108159
H99   H     H_    0.177758 0.078172 0.639993 0.159879
H100  H     H_    0.843173 0.881787 0.359290 0.125191
H101  H     H_    0.824092 0.088608 0.360782 0.143551
H102  H     H_    0.154370 0.881220 0.640647 0.111718
H103  H     H_    0.580935 0.582614 0.355761 0.139319
H104  H     H_    0.435157 0.381795 0.640685 0.132682
H105  H     H_    0.416588 0.586439 0.640878 0.097706
H106  H     H_    0.560876 0.380724 0.359018 0.174654
H107  H     H_    0.083713 0.082519 0.358388 0.102606
H108  H     H_    0.480987 0.581946 0.233774 0.112146
H109  H     H_    0.939338 0.881164 0.642295 0.158120
H110  H     H_    0.920534 0.091460 0.643085 0.107396
H111  H     H_    0.055767 0.878159 0.358069 0.178197
H112  H     H_    0.341548 0.582791 0.239572 0.165683
H113  H     H_    0.655954 0.407660 0.757417 0.139752
H114  H     H_    0.644987 0.618306 0.723035 0.201116
H115  H     H_    0.346081 0.400626 0.251793 0.165504
H116  H     H_    0.841452 0.082463 0.239247 0.166250
H117  H     H_    0.156253 0.908590 0.757754 0.141435
H118  H     H_    0.158595 0.077024 0.763175 0.180014
H119  H     H_    0.513144 0.405153 0.752948 0.087597
H120  H     H_    0.842933 0.909709 0.238720 0.189344
H121  H     H_    0.264715 0.557627 0.429040 0.163499
H122  H     H_    0.671164 0.289094 0.643527 0.210367
H123  H     H_    0.743549 0.568110 0.603913 0.159630
H124  H     H_    0.280797 0.331087 0.376530 0.173276
H125  H     H_    0.764991 0.061798 0.425168 0.185258
H126  H     H_    0.171063 0.788808 0.643391 0.213730
H127  H     H_    0.165359 0.075498 0.374008 0.173693
H128  H     H_    0.851850 0.776080 0.380734 0.166825
H129  H     H_    0.790657 0.244588 0.593973 0.179200
H130  H     H_    0.017507 0.082103 0.763622 0.096592
H131  H     H_    0.141453 0.701308 0.370038 0.185697
H132  H     H_    0.304861 0.191387 0.626728 0.193546
H133  H     H_    0.828447 0.726545 0.623746 0.178855
H134  H     H_    0.288431 0.745335 0.586535 0.177314
H135  H     H_    0.644881 0.202142 0.371991 0.206996
H136  H     H_    0.712520 0.703658 0.365245 0.184177
H137  H     H_    0.382356 0.175253 0.598610 0.192245
H138  H     H_    0.749231 0.142012 0.802257 0.239317
H139  H     H_    0.151049 0.691437 0.067302 0.201149
H140  H     H_    0.200649 0.202297 0.175272 0.239156
H141  H     H_    0.984479 0.916325 0.238966 0.108650
H142  H     H_    0.827025 0.697446 0.930988 0.193655
H143  H     H_    0.253154 0.646690 0.802865 0.243127
H144  H     H_    0.654744 0.196438 0.075709 0.206818
H145  H     H_    0.656124 0.818914 0.042601 0.207952
H146  H     H_    0.375808 0.132037 0.043523 0.199301
H147  H     H_    0.748319 0.322001 0.966478 0.095464
H148  H     H_    0.713789 0.390189 0.915724 0.101190
H149  H     H_    0.751604 0.382700 0.817730 0.253316
H150  H     H_    0.797993 0.397252 0.933685 0.228761
H151  H     H_    0.793421 0.324245 0.891572 0.242943
H152  H     H_    0.980864 0.081240 0.233375 0.102964
H153  H     H_    0.318699 0.764570 0.105858 0.075443
H154  H     H_    0.384401 0.739760 0.191971 0.102807
H155  H     H_    0.361314 0.754028 0.303405 0.262888
H156  H     H_    0.353274 0.821309 0.243508 0.201579
H157  H     H_    0.295951 0.778558 0.217382 0.254066
H158  H     H_    0.262660 0.322566 0.009521 0.088651
H159  H     H_    0.304536 0.387323 0.057290 0.105879
H160  H     H_    0.245087 0.425736 0.101147 0.252511
H161  H     H_    0.209872 0.412486 0.983745 0.213238
H162  H     H_    0.203545 0.361121 0.053952 0.256621
H163  H     H_    0.014397 0.907376 0.755662 0.101516
H164  H     H_    0.667890 0.813528 0.752604 0.090324
H165  H     H_    0.598169 0.797434 0.675493 0.086696
H166  H     H_    0.619493 0.748812 0.575247 0.259103
H167  H     H_    0.641872 0.824572 0.597777 0.203007
H168  H     H_    0.688750 0.765132 0.652058 0.256980
H169  H     H_    0.248291 0.823126 0.968267 0.093249
H170  H     H_    0.214442 0.891616 0.917154 0.113037
H171  H     H_    0.253884 0.885001 0.822437 0.252698
H172  H     H_    0.300287 0.896529 0.939243 0.238419
H173  H     H_    0.293724 0.824360 0.893127 0.236656
H174  H     H_    0.557331 0.356580 0.882591 0.155920
H175  H     H_    0.820313 0.265165 0.103876 0.076331
H176  H     H_    0.886344 0.240277 0.188498 0.096788
H177  H     H_    0.866018 0.257439 0.302794 0.262558
H178  H     H_    0.857378 0.323705 0.240548 0.200793
H179  H     H_    0.800316 0.282019 0.218242 0.255932
H180  H     H_    0.761625 0.918531 0.937971 0.088164
H181  H     H_    0.821893 0.961641 0.002454 0.106385
H182  H     H_    0.777329 0.026055 0.053479 0.259611
H183  H     H_    0.741133 0.023936 0.934260 0.207576
H184  H     H_    0.717786 0.982367 0.991578 0.256258
N1    N     N_R   0.532910 0.558440 0.665240 -0.050159
N2    N     N_R   0.402970 0.441090 0.454460 -0.050517
N3    N     N_R   0.402970 0.558910 0.454460 -0.048267
N4    N     N_R   0.597030 0.441090 0.545540 -0.046040
N5    N     N_R   0.097030 0.058910 0.545540 -0.057146
N6    N     N_R   0.902970 0.941090 0.454460 -0.047187
N7    N     N_R   0.902970 0.058910 0.454460 -0.051199
N8    N     N_R   0.097030 0.941090 0.545540 -0.047917
N9    N     N_R   0.566200 0.559270 0.454460 -0.058119
N10   N     N_R   0.433800 0.440730 0.545540 -0.056856
N11   N     N_R   0.433800 0.559270 0.545540 -0.053621
N12   N     N_R   0.467090 0.441560 0.334760 -0.043842
N13   N     N_R   0.566200 0.440730 0.454460 -0.058767
N14   N     N_R   0.066200 0.059270 0.454460 -0.042087
N15   N     N_R   0.933800 0.940730 0.545540 -0.059396
N16   N     N_R   0.933800 0.059270 0.545540 -0.057081
N17   N     N_R   0.066200 0.940730 0.454460 -0.057134
N18   N     N_R   0.421050 0.559750 0.334770 -0.058977
N19   N     N_R   0.578950 0.440250 0.665230 -0.049633
N20   N     N_R   0.578950 0.559750 0.665230 -0.063589
N21   N     N_R   0.421050 0.440250 0.334770 -0.053209
N22   N     N_R   0.921050 0.059750 0.334770 -0.058432
N23   N     N_R   0.467090 0.558440 0.334760 -0.046114
N24   N     N_R   0.078950 0.940250 0.665230 -0.050826
N25   N     N_R   0.078950 0.059750 0.665230 -0.057991
N26   N     N_R   0.921050 0.940250 0.334770 -0.055955
N27   N     N_R   0.532910 0.441560 0.665240 -0.046444
N28   N     N_R   0.032910 0.058440 0.665240 -0.045166
N29   N     N_R   0.967090 0.941560 0.334760 -0.044114
N30   N     N_R   0.967090 0.058440 0.334760 -0.042151
N31   N     N_R   0.032910 0.941560 0.665240 -0.045284
N32   N     N_R   0.597030 0.558910 0.545540 -0.048441
Ni1   Ni    Ni4+2 0.483090 0.500000 0.604440 0.214723
Ni2   Ni    Ni4+2 0.516910 0.500000 0.395560 0.216919
Ni3   Ni    Ni4+2 0.983090 0.000000 0.604440 0.216156
Ni4   Ni    Ni4+2 0.016910 0.000000 0.395560 0.210954
Ni5   Ni    Ni4+2 0.586780 0.500000 0.604440 0.218987
Ni6   Ni    Ni4+2 0.413220 0.500000 0.395560 0.219019
Ni7   Ni    Ni4+2 0.086780 0.000000 0.604440 0.215684
Ni8   Ni    Ni4+2 0.913220 0.000000 0.395560 0.232808
O1    O     O_3   0.686743 0.316840 0.832476 -0.626633
O2    O     O_3   0.584276 0.273890 0.003472 -0.629243
O3    O     O_3   0.571394 0.764042 0.951322 -0.626911
O4    O     O_3   0.454013 0.202905 0.125669 -0.630449
O5    O     O_3   0.833422 0.084087 0.892693 -0.634600
O6    O     O_3   0.078569 0.767077 0.991662 -0.629896
O7    O     O_3   0.113779 0.151832 0.068810 -0.625267
O8    O     O_3   0.917589 0.733467 0.050118 -0.636473
O9    O     O_3   0.178871 0.591299 0.429161 -0.615952
O10   O     O_3   0.742021 0.206345 0.673354 -0.621088
O11   O     O_3   0.832929 0.605055 0.617013 -0.614167
O12   O     O_3   0.322628 0.683588 0.164511 -0.600434
O13   O     O_3   0.225482 0.236416 0.355071 -0.596008
O14   O     O_3   0.681505 0.092348 0.425527 -0.630247
O15   O     O_3   0.243415 0.708738 0.671478 -0.610623
O16   O     O_3   0.238878 0.112473 0.351962 -0.602585
O17   O     O_3   0.797876 0.674024 0.355738 -0.620146
O18   O     O_3   0.304387 0.329426 0.146811 -0.613162
O19   O     O_3   0.646777 0.724574 0.738182 -0.603467
O20   O     O_3   0.187695 0.818509 0.833603 -0.628446
O21   O     O_3   0.824806 0.185284 0.165435 -0.597249
O22   O     O_3   0.800704 0.911809 0.075121 -0.598192
O23   O     O_3   0.199971 0.151039 0.867190 -0.607540
O24   O     O_3   0.337736 0.589468 0.894442 -0.624702

loop_
_geom_bond_atom_site_label_1
_geom_bond_atom_site_label_2
_ccdc_geom_bond_type
C159  C194  A    
C126  C127  S    
N17   Ni4   S    
C117  H58   S    
C160  O8    S    
C12   H143  S    
C118  H61   S    
C175  O21   S    
C68   F8    S    
C87   O20   S    
C91   H179  S    
C39   C150  S    
N6    N15   A    
C207  H90   S    
C122  H72   S    
C57   C76   A    
C35   C124  A    
C31   C42   A    
C8    C214  A    
C52   C61   A    
C35   F5    S    
C52   O9    S    
C144  C161  A    
C184  N30   A    
C54   C63   A    
C86   H166  S    
C102  H23   S    
N15   Ni3   S    
C213  H102  S    
C2    C90   A    
C84   H160  S    
C7    C203  A    
C134  C143  A    
C14   C189  A    
C212  H101  S    
C114  H50   S    
C61   H121  S    
C59   C142  A    
C1    H1    S    
C211  H100  S    
C106  H33   S    
C55   O13   S    
C122  H73   S    
C4    C12   A    
N3    N11   A    
C160  C196  A    
C21   C48   A    
N18   Ni6   S    
C57   C133  A    
C124  H129  S    
C158  C167  A    
C130  H92   S    
C158  C193  A    
C183  C201  A    
N22   Ni8   S    
C26   H112  S    
C101  C137  A    
N25   N28   A    
C28   H114  S    
C179  C188  A    
N19   Ni5   S    
C187  C204  A    
C216  F10   S    
C177  C186  A    
C153  C161  A    
C104  H27   S    
C111  H47   S    
C185  C202  A    
C17   C43   A    
C18   C44   A    
C31   N24   A    
C181  C190  A    
C89   H175  S    
C105  H31   S    
N24   Ni7   S    
C150  C168  A    
C106  H32   S    
C165  H13   S    
C212  N7    A    
C95   H7    S    
N1    N20   A    
C151  N27   A    
C47   C71   S    
C22   C49   A    
C24   F4    S    
C154  C189  A    
C19   N11   A    
C199  C204  A    
C17   N9    A    
C125  H77   S    
C2    C71   A    
C162  H130  S    
C17   H103  S    
C131  H94   S    
C175  C183  A    
C57   F7    S    
C68   C77   A    
C83   H158  S    
C96   C97   S    
C108  H39   S    
C23   H110  S    
C93   H184  S    
C209  H98   S    
C13   C72   A    
C78   H148  S    
C46   F6    S    
C102  H21   S    
C125  H76   S    
C130  C131  S    
N5    N14   A    
C84   H162  S    
C34   C146  S    
C58   C141  A    
C115  H53   S    
C68   C134  A    
C154  O2    S    
C9    C193  A    
C26   N18   A    
C42   C195  A    
C24   C73   A    
C195  N31   A    
C20   C47   A    
C180  C198  A    
C115  O9    S    
C91   H178  S    
C98   C99   S    
C173  H141  S    
C2    F2    S    
N9    N32   A    
N7    N16   A    
C130  O17   S    
C127  H83   S    
C37   C144  S    
C48   C76   S    
C124  C139  A    
C69   C77   A    
C99   H17   S    
C128  C129  S    
C174  C182  A    
C25   C51   A    
C147  C174  A    
C92   H180  S    
C85   C86   S    
C177  O23   S    
C133  C142  A    
C172  O19   S    
C151  H119  S    
C14   H144  S    
C180  C189  A    
N5    Ni7   S    
C60   C143  A    
C5    C201  A    
C94   O23   S    
C78   C80   S    
C82   H156  S    
C115  C116  S    
C156  O4    S    
C40   C152  S    
C95   H5    S    
C69   H128  S    
N20   Ni5   S    
C147  C165  A    
C79   H134  S    
C59   C67   A    
C97   H10   S    
C172  C181  A    
C64   C73   A    
C208  N3    A    
C105  O5    S    
C89   C91   S    
C126  H80   S    
C109  H42   S    
N30   Ni4   S    
C110  H45   S    
C82   H157  S    
C92   O22   S    
C85   O19   S    
C50   C212  A    
C60   O17   S    
N27   Ni1   S    
C162  N28   A    
C81   H154  S    
C112  N12   A    
N21   Ni6   S    
C173  N29   A    
C46   C75   A    
C88   H171  S    
C1    C34   A    
C33   C40   A    
C126  O15   S    
C119  H63   S    
C64   H124  S    
C81   O12   S    
C3    C11   A    
N28   Ni3   S    
C18   H104  S    
C21   N14   A    
C176  O20   S    
C145  C163  A    
N32   Ni5   S    
C213  N8    A    
C146  C164  A    
C111  O8    S    
C37   C140  A    
C44   C207  A    
C65   C74   A    
C32   H118  S    
C16   C191  A    
C169  H57   S    
C66   H126  S    
C83   C84   S    
N24   N31   A    
C197  C202  A    
C39   C162  A    
C29   N21   A    
C112  H97   S    
C150  C177  A    
C117  O10   S    
C45   C208  A    
C128  H86   S    
C6    F14   S    
C210  H99   S    
C103  H26   S    
C80   H149  S    
C181  C199  A    
C38   C151  A    
N13   Ni2   S    
C132  C141  A    
C93   H183  S    
C16   H146  S    
C107  O6    S    
C62   H122  S    
C186  C194  A    
C47   C209  A    
C27   N19   A    
C96   O24   S    
N10   Ni1   S    
C131  H95   S    
C19   C45   A    
N2    Ni6   S    
C83   H159  S    
C121  H70   S    
C8    H138  S    
C170  C179  A    
C108  H38   S    
C117  C118  S    
C97   H12   S    
C10   C216  A    
C41   C148  S    
C60   C69   A    
C200  C216  A    
C49   C77   S    
C186  C203  A    
C5    F13   S    
C18   N10   A    
C134  H133  S    
C167  H35   S    
C96   H9    S    
C140  N23   A    
C110  H43   S    
C156  C191  A    
C114  H51   S    
C135  C141  S    
C157  O5    S    
C107  H36   S    
C31   H117  S    
C44   C73   S    
C61   C70   A    
C171  O1    S    
C87   C88   S    
C35   C74   A    
N14   Ni4   S    
N8    Ni7   S    
C187  C196  A    
C148  C166  A    
N12   Ni2   S    
C20   N13   A    
C149  C167  A    
N11   Ni1   S    
C100  H19   S    
C183  C192  A    
C176  C185  A    
C7    F15   S    
C28   N20   A    
C123  H74   S    
C54   O11   S    
C98   H14   S    
C10   C194  A    
C94   H3    S    
C123  C125  S    
C54   C137  A    
C107  H37   S    
C27   C38   A    
C144  C170  A    
C168  H68   S    
C116  H55   S    
C104  H28   S    
C32   C39   A    
C42   C149  S    
C15   H145  S    
C98   O2    S    
N3    Ni6   S    
C105  H30   S    
C133  H132  S    
C36   C112  A    
C160  C169  A    
C80   H151  S    
C28   C34   A    
C117  H59   S    
C96   H8    S    
C184  H152  S    
C118  H60   S    
C164  H24   S    
C136  C139  S    
C129  H89   S    
C131  H93   S    
C118  H62   S    
C209  N4    A    
C106  H34   S    
C206  F16   S    
C122  H71   S    
C108  H40   S    
C182  C200  A    
C11   C196  A    
C138  C142  S    
C56   C139  A    
C178  O22   S    
C23   C50   A    
C205  N32   A    
C214  F1    S    
C9    C215  A    
C215  F9    S    
C120  H67   S    
C6    C204  A    
C155  C190  A    
C114  H49   S    
C4    C202  A    
C85   H164  S    
C67   H127  S    
N4    N13   A    
N25   Ni7   S    
C101  H136  S    
C5    C14   A    
C178  C187  A    
C7    C16   A    
C91   H177  S    
C115  H52   S    
C100  O3    S    
C104  H29   S    
C3    F11   S    
N4    Ni5   S    
C130  H91   S    
C86   H167  S    
C45   C70   S    
C21   H107  S    
C53   O10   S    
C119  C120  S    
C26   C37   A    
C33   N26   A    
C174  O18   S    
C153  C188  A    
C79   C135  A    
C105  C106  S    
C149  C176  A    
C111  H48   S    
C50   C74   S    
C157  C192  A    
C109  C110  S    
C46   C132  A    
C152  C169  A    
C30   N22   A    
N29   Ni4   S    
C156  C165  A    
C155  O3    S    
C66   C75   A    
C92   C93   S    
C111  C114  S    
C113  H137  S    
C4    F12   S    
N16   Ni3   S    
C94   C95   S    
C8    C192  A    
C63   C72   A    
C85   H165  S    
C103  C104  S    
C83   O18   S    
C113  C138  A    
C23   N16   A    
N22   N30   A    
C102  H22   S    
C125  H78   S    
C126  H81   S    
C109  H41   S    
C56   C65   A    
C121  O13   S    
C145  C171  A    
C43   C72   S    
C163  H174  S    
C146  C172  A    
C43   C205  A    
C195  H163  S    
C81   H153  S    
C81   C82   S    
C88   H172  S    
C78   H147  S    
C29   C36   A    
C55   C138  A    
C128  O16   S    
C51   C75   S    
C84   H161  S    
C40   C173  A    
C211  N6    A    
N19   N27   A    
N8    N17   A    
C12   C188  A    
C33   H120  S    
C29   H115  S    
N23   Ni2   S    
C10   H140  S    
C159  C168  A    
C123  H75   S    
C36   C147  S    
C6    C15   A    
N12   N21   A    
C58   C66   A    
C161  H2    S    
C62   C71   A    
C3    C199  A    
C159  O7    S    
C87   H169  S    
C119  O11   S    
N18   N23   A    
C197  C215  A    
C51   C213  A    
C127  H84   S    
C137  C143  S    
C24   C113  A    
C103  H25   S    
N26   Ni8   S    
C53   C136  A    
C80   H150  S    
C99   H18   S    
C205  H79   S    
C27   H113  S    
N6    Ni8   S    
C93   H182  S    
C120  H65   S    
C148  C175  A    
C207  N2    A    
N1    Ni1   S    
C154  C163  A    
C170  O12   S    
C140  H108  S    
C123  O14   S    
C179  C197  A    
C82   H155  S    
C19   H105  S    
C11   H142  S    
C121  H69   S    
C208  H96   S    
C95   H6    S    
C158  O6    S    
C129  H88   S    
C38   C145  S    
C87   H170  S    
C20   H106  S    
C97   H11   S    
C90   C136  A    
C88   H173  S    
N2    N10   A    
C78   O1    S    
C65   H125  S    
C107  C108  S    
C55   C64   A    
C49   C211  A    
C198  C201  A    
C100  C102  S    
C22   N15   A    
C121  C122  S    
C86   H168  S    
C30   C41   A    
C41   C184  A    
C13   F3    S    
C116  H54   S    
C120  H66   S    
C32   N25   A    
C153  O24   S    
C110  H44   S    
C129  H87   S    
C15   C190  A    
C48   C210  A    
C89   O21   S    
C132  H131  S    
C25   N17   A    
C171  C180  A    
C13   C101  A    
C25   H111  S    
C22   H109  S    
C109  O7    S    
C103  O4    S    
C63   H123  S    
C119  H64   S    
C89   H176  S    
C185  C193  A    
C100  H20   S    
C210  N5    A    
C157  C166  A    
N9    Ni2   S    
C155  C164  A    
C70   C206  A    
C79   C206  A    
C56   O14   S    
C58   O15   S    
N26   N29   A    
C1    N1    A    
C98   H15   S    
C94   H4    S    
C90   H135  S    
C200  C203  A    
C116  H56   S    
C152  C178  A    
N31   Ni3   S    
N7    Ni8   S    
C9    H139  S    
C127  H82   S    
C53   C62   A    
C30   H116  S    
C128  H85   S    
C182  C191  A    
C52   C135  A    
C59   O16   S    
C67   C76   A    
C99   H16   S    
C166  H46   S    
C92   H181  S    
C198  C214  A    
