data_mof_unit_35222.cif
_audit_creation_date              2012-12-11T15:52:40-0500
_audit_creation_method            fapswitch 2.2
_symmetry_space_group_name_H-M    P1
_symmetry_Int_Tables_number       1
_space_group_crystal_system       triclinic
_cell_length_a                    7.095313
_cell_length_b                    14.519523
_cell_length_c                    16.134896
_cell_angle_alpha                 89.600729
_cell_angle_beta                  88.806883
_cell_angle_gamma                 89.238165
_cell_volume                      1661.68150981

loop_
_atom_site_label
_atom_site_type_symbol
_atom_type_description
_atom_site_fract_x
_atom_site_fract_y
_atom_site_fract_z
_atom_type_partial_charge
O1    O     O_R   0.494400 0.415640 0.412830 -0.528443
O2    O     O_R   0.823920 0.405510 0.586560 -0.543510
O3    O     O_R   0.994250 0.584360 0.587170 -0.529245
C1    C     C_R   0.654078 0.382262 0.613804 0.692277
O4    O     O_R   0.824110 0.404610 0.413450 -0.505183
O5    O     O_R   0.994440 0.583460 0.412820 -0.528483
C2    C     C_R   0.656271 0.382555 0.384405 0.737390
O6    O     O_R   0.494210 0.416540 0.587180 -0.552692
O7    O     O_3   0.660810 0.558680 0.500000 -0.372109
V1    V     V_3+5 0.935650 0.489110 0.500000 1.531888
O8    O     O_R   0.324150 0.594490 0.413440 -0.537349
C3    C     C_R   0.155800 0.614118 0.383188 0.731153
O9    O     O_R   0.323970 0.595390 0.586550 -0.562555
C4    C     C_R   0.151132 0.614684 0.614869 0.669799
V2    V     V_3+5 0.435660 0.510890 0.500000 1.455578
O10   O     O_3   0.160630 0.441320 0.500000 -0.362821
C5    C     C_3   0.924697 0.682618 0.725823 0.024921
H1    H     H_    0.881849 0.611186 0.742787 0.139311
C6    C     C_3   0.937050 0.738913 0.809110 -0.226278
H2    H     H_    0.952561 0.686246 0.859414 0.190304
H3    H     H_    0.074272 0.794595 0.598439 0.153975
H4    H     H_    0.989853 0.884922 0.705191 0.183288
C7    C     C_3   0.166584 0.778991 0.651836 -0.383428
C8    C     C_3   0.261384 0.647902 0.755464 -0.027254
C9    C     C_3   0.127085 0.679754 0.685465 0.032064
H5    H     H_    0.402728 0.630264 0.728671 0.113166
C10   C     C_3   0.113279 0.802894 0.809748 -0.056554
C11   C     C_3   0.125794 0.852211 0.720547 0.007225
C12   C     C_3   0.278326 0.730042 0.816935 0.391253
H6    H     H_    0.309937 0.783747 0.623468 0.148186
C13   C     C_R   0.987779 0.735368 0.184416 -0.083697
C14   C     C_R   0.997537 0.672028 0.251677 -0.077667
C15   C     C_R   0.143876 0.678250 0.310438 -0.147700
C16   C     C_R   0.278515 0.747358 0.299805 -0.100397
H7    H     H_    0.391614 0.753743 0.343380 0.146199
C17   C     C_R   0.266293 0.811104 0.234803 -0.104050
H8    H     H_    0.370557 0.864842 0.230344 0.133076
C18   C     C_R   0.120547 0.807351 0.177241 -0.122978
C19   C     C_R   0.783358 0.310035 0.741499 -0.201871
H9    H     H_    0.898533 0.358294 0.736708 0.139698
C20   C     C_R   0.774059 0.249369 0.809734 -0.099328
C21   C     C_R   0.622929 0.186457 0.817023 -0.167433
C22   C     C_R   0.482760 0.188664 0.756946 -0.037025
H10   H     H_    0.367370 0.140574 0.760984 0.144916
C23   C     C_R   0.489288 0.250868 0.690393 0.208001
C24   C     C_R   0.641620 0.312926 0.682016 -0.102663
C25   C     C_R   0.771826 0.235347 0.311189 -0.031977
C26   C     C_R   0.759637 0.170254 0.245513 0.159241
C27   C     C_R   0.619811 0.179907 0.184419 -0.057919
C28   C     C_R   0.494084 0.254587 0.189922 -0.211578
H11   H     H_    0.387760 0.263094 0.143033 0.150528
C29   C     C_R   0.504781 0.320040 0.253502 0.028112
C30   C     C_R   0.644907 0.312100 0.315644 -0.177826
O11   O     O_R   0.771300 0.080930 0.910090 -0.541213
O12   O     O_R   0.441270 0.092800 0.083770 -0.552589
O13   O     O_R   0.271080 0.913920 0.084380 -0.544270
C31   C     C_R   0.608772 0.113472 0.113522 0.727762
O14   O     O_R   0.441580 0.091910 0.910670 -0.532300
O15   O     O_R   0.271390 0.913020 0.910040 -0.553693
C32   C     C_R   0.611230 0.115561 0.883867 0.654600
O16   O     O_R   0.770990 0.081830 0.084440 -0.509914
O17   O     O_3   0.604750 0.938760 0.997250 -0.365036
V3    V     V_3+5 0.329850 0.008280 0.997210 1.490031
O18   O     O_R   0.941680 0.901940 0.910610 -0.520975
C33   C     C_R   0.110630 0.877232 0.882445 0.679466
O19   O     O_R   0.941370 0.902830 0.083720 -0.528129
C34   C     C_R   0.110029 0.879324 0.110828 0.714735
V4    V     V_3+5 0.829860 0.986420 0.997150 1.551933
O20   O     O_3   0.104830 0.056030 0.997180 -0.356750
N1    N     N_3   0.788706 0.717223 0.664996 -0.662293
H12   H     H_    0.762750 0.787754 0.668038 0.257855
H13   H     H_    0.663920 0.680531 0.669704 0.224077
N2    N     N_3   0.444044 0.775661 0.791539 -0.661983
H14   H     H_    0.469781 0.780862 0.728444 0.240324
H15   H     H_    0.436893 0.841683 0.813299 0.294065
N3    N     N_3   0.263089 0.926919 0.715215 -0.687687
H16   H     H_    0.267289 0.952346 0.654377 0.247465
H17   H     H_    0.213505 0.981608 0.751798 0.223189
C35   C     C_2   0.848133 0.721364 0.118450 0.809337
O21   O     O_2   0.902385 0.712129 0.046524 -0.540678
O22   O     O_R   0.655667 0.718791 0.138507 -0.645721
H18   H     H_    0.575140 0.709395 0.088149 0.312832
C36   C     C_2   0.858974 0.596923 0.257645 0.816620
O23   O     O_2   0.903865 0.519073 0.235892 -0.544443
O24   O     O_R   0.678099 0.615656 0.289446 -0.640548
H19   H     H_    0.596988 0.558889 0.292253 0.297299
C37   C     C_2   0.920576 0.257062 0.873771 0.839658
O25   O     O_2   0.086202 0.262233 0.852415 -0.542333
O26   O     O_R   0.873009 0.261638 0.958235 -0.626281
H20   H     H_    0.732122 0.265617 0.969410 0.246727
N4    N     N_3   0.341990 0.246663 0.631116 -0.665048
H21   H     H_    0.259384 0.306612 0.635325 0.250233
H22   H     H_    0.402162 0.241522 0.571589 0.245435
C38   C     C_2   0.909485 0.218914 0.378009 0.782104
O27   O     O_2   0.076643 0.207000 0.360837 -0.549717
O28   O     O_R   0.847132 0.217266 0.460809 -0.675571
H23   H     H_    0.953761 0.206539 0.500768 0.296902
N5    N     N_3   0.882320 0.090771 0.242846 -0.661191
H24   H     H_    0.870326 0.054946 0.299099 0.223272
H25   H     H_    0.021203 0.112440 0.234093 0.262698
C39   C     C_2   0.369806 0.398084 0.249524 0.779953
O29   O     O_2   0.233612 0.401206 0.297115 -0.514634
O30   O     O_R   0.392653 0.465078 0.187673 -0.651365
H26   H     H_    0.291210 0.514843 0.190487 0.316663
C40   C     C_2   0.772350 0.792333 0.833219 0.825524
O31   O     O_2   0.692980 0.774953 0.899775 -0.530476
O32   O     O_R   0.737914 0.876719 0.791563 -0.692989
H27   H     H_    0.668394 0.924886 0.826149 0.295071
N6    N     N_3   0.194657 0.563156 0.797064 -0.652461
H28   H     H_    0.304518 0.534710 0.831483 0.256603
H29   H     H_    0.168041 0.513495 0.752311 0.204329
N7    N     N_3   0.298405 0.695746 0.902752 -0.604607
H30   H     H_    0.324795 0.749529 0.943243 0.249685
H31   H     H_    0.418075 0.653059 0.905561 0.266908

loop_
_geom_bond_atom_site_label_1
_geom_bond_atom_site_label_2
_ccdc_geom_bond_type
O19   V4    S    
C37   O25   D    
C39   O29   D    
C10   C12   S    
C20   C21   A    
C12   N7    S    
C6    H2    S    
C1    O6    A    
N7    H31   S    
O22   H18   S    
C19   C20   A    
O11   C32   A    
O24   H19   S    
C40   O32   S    
O18   V4    S    
C17   H8    S    
C8    H5    S    
N6    H29   S    
O5    C3    A    
O11   V4    S    
O14   C32   A    
V2    O10   S    
C27   C31   S    
C16   H7    S    
N2    H14   S    
C31   O16   A    
C8    C12   S    
O8    V2    S    
C25   C26   A    
V4    O20   S    
O12   V3    S    
C28   C29   A    
O32   H27   S    
N1    H12   S    
O1    V2    S    
C6    C10   S    
O7    V1    S    
C25   C30   A    
O19   C34   A    
C5    N1    S    
C39   O30   S    
H4    C11   S    
O9    C4    A    
N2    H15   S    
N7    H30   S    
C15   C16   A    
H3    C7    S    
C20   C37   S    
C29   C39   S    
C7    H6    S    
V3    O20   S    
N3    H16   S    
C21   C32   S    
C19   H9    S    
C35   O22   S    
C1    C24   S    
C28   H11   S    
C23   C24   A    
O2    C1    A    
C22   H10   S    
O17   V3    S    
C10   C33   S    
N4    H22   S    
C36   O23   D    
O28   H23   S    
C5    H1    S    
O13   V3    S    
C7    C11   S    
C8    C9    S    
C38   O28   S    
C22   C23   A    
O3    C4    A    
C19   C24   A    
C6    C40   S    
C26   C27   A    
C36   O24   S    
N5    H24   S    
O6    V2    S    
N5    H25   S    
O9    V2    S    
C21   C22   A    
C2    C30   S    
C11   N3    S    
N4    H21   S    
C29   C30   A    
O4    C2    A    
O14   V3    S    
C14   C36   S    
O1    C2    A    
C13   C14   A    
C8    N6    S    
N3    H17   S    
O5    V1    S    
O8    C3    A    
C13   C35   S    
O13   C34   A    
C26   N5    S    
C40   O31   D    
O15   V3    S    
C13   C18   A    
O17   V4    S    
C5    C9    S    
C14   C15   A    
O12   C31   A    
O7    V2    S    
O4    V1    S    
O3    V1    S    
V1    O10   S    
N6    H28   S    
O18   C33   A    
O16   V4    S    
C17   C18   A    
C5    C6    S    
C25   C38   S    
C16   C17   A    
C7    C9    S    
C4    C9    S    
C38   O27   D    
C23   N4    S    
C35   O21   D    
C12   N2    S    
C18   C34   S    
C27   C28   A    
O30   H26   S    
C37   O26   S    
N1    H13   S    
C3    C15   S    
O26   H20   S    
O15   C33   A    
C10   C11   S    
O2    V1    S    
