data_mof_unit_27350.cif
_audit_creation_date              2013-03-05T16:06:01-0500
_audit_creation_method            fapswitch 2.2
_symmetry_space_group_name_H-M    P1
_symmetry_Int_Tables_number       1
_space_group_crystal_system       triclinic
_cell_length_a                    10.946077
_cell_length_b                    9.511377
_cell_length_c                    23.561207
_cell_angle_alpha                 89.948918
_cell_angle_beta                  89.241081
_cell_angle_gamma                 89.957455
_cell_volume                      2452.79381417

loop_
_atom_site_label
_atom_site_type_symbol
_atom_site_description
_atom_site_fract_x
_atom_site_fract_y
_atom_site_fract_z
_atom_type_partial_charge
O1    O     O_R   0.319640 0.618740 0.500000 -0.539619
O2    O     O_R   0.680360 0.381260 0.500000 -0.539316
O3    O     O_R   0.680360 0.618740 0.500000 -0.538455
O4    O     O_R   0.319640 0.381260 0.500000 -0.539062
C1    C     C_R   0.262042 0.499990 0.500349 0.939027
C2    C     C_R   0.737959 0.499935 0.499586 0.938941
O5    O     O_R   0.499960 0.618810 0.417880 -0.577442
O6    O     O_R   0.500040 0.381190 0.582120 -0.575186
O7    O     O_R   0.500040 0.618810 0.582120 -0.578786
O8    O     O_R   0.499960 0.381190 0.417880 -0.573782
C3    C     C_R   0.501056 0.500004 0.390992 0.892052
C4    C     C_R   0.499026 0.499921 0.608946 0.900237
Cu1   Cu    Cu3+1 0.500000 0.640660 0.500000 1.021064
Cu2   Cu    Cu3+1 0.500000 0.359340 0.500000 1.044074
C5    C     C_R   0.602106 0.480175 0.878417 0.554694
C6    C     C_R   0.398294 0.498711 0.121015 0.560561
N1    N     N_R   0.492530 0.497121 0.851842 -0.446456
N2    N     N_R   0.508780 0.498026 0.147728 -0.446720
C7    C     C_R   0.386171 0.515020 0.882223 0.587141
C8    C     C_R   0.616299 0.498076 0.117265 0.582062
C9    C     C_R   0.387344 0.515140 0.941767 -0.061688
C10   C     C_R   0.615147 0.496476 0.057708 -0.076344
C11   C     C_R   0.499846 0.503831 0.969749 -0.071449
C12   C     C_R   0.502513 0.503982 0.029689 -0.072998
C13   C     C_R   0.609482 0.491476 0.937890 -0.134849
C14   C     C_R   0.392574 0.510769 0.061536 -0.118353
C15   C     C_R   0.278940 0.529241 0.973682 -0.233680
C16   C     C_R   0.724100 0.490475 0.025796 -0.221004
C17   C     C_R   0.280696 0.529966 0.033001 0.456430
C18   C     C_R   0.722615 0.491228 0.966485 0.491978
O9    O     O_2   0.702967 0.450060 0.847193 -0.491521
O10   O     O_2   0.294496 0.485035 0.152063 -0.482298
O11   O     O_2   0.279784 0.533744 0.854909 -0.529003
O12   O     O_2   0.724008 0.501017 0.144456 -0.535610
H1    H     H_    0.192005 0.540407 0.952768 0.202008
H2    H     H_    0.811653 0.486380 0.046654 0.211132
C19   C     C_R   0.572172 0.395882 0.238951 -0.141337
C20   C     C_R   0.422494 0.401087 0.760911 -0.139431
H3    H     H_    0.621693 0.314955 0.215919 0.201027
H4    H     H_    0.367837 0.324903 0.784121 0.198718
C21   C     C_R   0.573228 0.396951 0.298349 0.259506
C22   C     C_R   0.421793 0.402026 0.701511 0.258727
C23   C     C_R   0.504289 0.500006 0.328409 -0.287689
C24   C     C_R   0.496239 0.499790 0.671421 -0.286586
C25   C     C_R   0.438910 0.603390 0.297756 0.283033
C26   C     C_R   0.567595 0.597778 0.701886 0.279989
C27   C     C_R   0.447027 0.605331 0.238531 -0.158542
C28   C     C_R   0.560929 0.599058 0.761151 -0.157402
H5    H     H_    0.398544 0.685374 0.215047 0.187757
H6    H     H_    0.614731 0.674146 0.784667 0.184767
C29   C     C_R   0.510701 0.500431 0.208853 0.204457
C30   C     C_R   0.490725 0.499825 0.790814 0.209866
C31   C     C_R   0.063541 0.372057 0.497172 0.316757
C32   C     C_R   0.936950 0.627737 0.496059 0.324781
C33   C     C_R   0.936625 0.372025 0.502717 0.314787
C34   C     C_R   0.062884 0.627734 0.503863 0.321661
C35   C     C_R   0.871831 0.499809 0.499271 -0.343590
C36   C     C_R   0.128169 0.499857 0.500636 -0.343568
C37   C     C_R   0.458179 0.074492 0.454420 0.022320
C38   C     C_R   0.542730 0.925572 0.545398 -0.041819
C39   C     C_R   0.541820 0.074222 0.545588 0.016435
C40   C     C_R   0.457284 0.925869 0.454618 -0.040554
H7    H     H_    0.423573 0.129970 0.417951 0.149125
H8    H     H_    0.578148 0.870139 0.581639 0.199641
H9    H     H_    0.576422 0.129512 0.582049 0.147036
H10   H     H_    0.421884 0.870685 0.418412 0.204187
N3    N     N_R   0.500000 0.852070 0.500000 -0.188612
N4    N     N_R   0.500000 0.147930 0.500000 -0.160785
O13   O     O_3   0.171596 0.547918 0.062359 -0.535505
C41   C     C_3   0.159052 0.691712 0.076543 0.059586
H11   H     H_    0.150220 0.757107 0.037604 0.130772
H12   H     H_    0.238608 0.730596 0.101033 0.153914
C42   C     C_3   0.044974 0.711092 0.113319 -0.638463
H13   H     H_    0.054429 0.651733 0.153640 0.279870
H14   H     H_    0.032084 0.824263 0.123276 0.198428
H15   H     H_    0.963324 0.672148 0.090774 0.242877
O14   O     O_3   0.833363 0.488005 0.937459 -0.541437
C43   C     C_3   0.863269 0.624883 0.917891 0.161144
H16   H     H_    0.783147 0.684951 0.901955 0.129958
H17   H     H_    0.927705 0.613535 0.881372 0.212186
C44   C     C_3   0.927030 0.709132 0.963729 -0.883687
H18   H     H_    0.000397 0.644346 0.982303 0.277227
H19   H     H_    0.967544 0.805973 0.945083 0.236884
H20   H     H_    0.860826 0.739793 0.997598 0.239873
N5    N     N_R   0.647933 0.295834 0.327169 0.140405
O15   O     O_R   0.723476 0.336883 0.365988 -0.370590
O16   O     O_R   0.655626 0.167538 0.308308 -0.358389
N6    N     N_R   0.342154 0.306354 0.672681 0.140816
O17   O     O_R   0.326598 0.179337 0.692035 -0.356138
O18   O     O_R   0.270679 0.352054 0.632988 -0.374946
N7    N     N_R   0.358518 0.701941 0.325595 0.123007
O19   O     O_R   0.280314 0.658329 0.363793 -0.387445
O20   O     O_R   0.347965 0.829172 0.305872 -0.374255
N8    N     N_R   0.651760 0.691597 0.673728 0.123979
O21   O     O_R   0.725273 0.644547 0.634235 -0.387921
O22   O     O_R   0.669538 0.817217 0.693839 -0.372417
O23   O     O_3   0.123078 0.244152 0.492807 -0.536597
C45   C     C_3   0.122546 0.200089 0.435465 0.085472
H21   H     H_    0.201065 0.248357 0.412243 0.151863
H22   H     H_    0.036644 0.227843 0.412950 0.172666
C46   C     C_3   0.135177 0.041205 0.433372 -0.695524
H23   H     H_    0.055166 0.992263 0.454587 0.271820
H24   H     H_    0.140965 0.004783 0.388658 0.227032
H25   H     H_    0.217746 0.007318 0.456129 0.258323
O24   O     O_3   0.878426 0.754667 0.487237 -0.543349
C47   C     C_3   0.872731 0.777532 0.427988 0.058266
H26   H     H_    0.825483 0.689128 0.406302 0.152870
H27   H     H_    0.966104 0.789155 0.409230 0.173813
C48   C     C_3   0.800958 0.911279 0.416315 -0.673223
H28   H     H_    0.844357 0.003020 0.436868 0.270289
H29   H     H_    0.797491 0.930388 0.369871 0.234757
H30   H     H_    0.706495 0.900181 0.433046 0.253964
O25   O     O_3   0.877246 0.244104 0.507062 -0.537589
C49   C     C_3   0.877869 0.199744 0.564398 0.089289
H31   H     H_    0.799495 0.248181 0.587680 0.153527
H32   H     H_    0.963895 0.227052 0.586848 0.175208
C50   C     C_3   0.864999 0.040901 0.566476 -0.697000
H33   H     H_    0.944764 0.991783 0.545112 0.272143
H34   H     H_    0.859504 0.004235 0.611188 0.228653
H35   H     H_    0.782200 0.007467 0.543851 0.258296
O26   O     O_3   0.121246 0.754620 0.512693 -0.544904
C51   C     C_3   0.127081 0.777100 0.571945 0.064061
H36   H     H_    0.174400 0.688502 0.593588 0.156678
H37   H     H_    0.033745 0.788722 0.590752 0.175735
C52   C     C_3   0.198854 0.910673 0.583616 -0.678288
H38   H     H_    0.155381 0.002606 0.563116 0.270731
H39   H     H_    0.202442 0.929481 0.630063 0.235680
H40   H     H_    0.293278 0.899547 0.566824 0.253167

loop_
_geom_bond_atom_site_label_1
_geom_bond_atom_site_label_2
_geom_bond_distance
_ccdc_geom_bond_type
C46   H23   1.105525 S    
C15   C17   1.398021 A    
C21   C23   1.420493 A    
C42   H13   1.110666 S    
C39   N4    1.365995 A    
O3    C2    1.293561 A    
C49   H31   1.111998 S    
C27   H5    1.083429 S    
O14   C43   1.417835 S    
O5    C3    1.295934 A    
C1    C36   1.465307 S    
O1    C1    1.293905 A    
C7    C9    1.403166 A    
C12   C14   1.411180 A    
C20   C22   1.399693 A    
O13   C41   1.414352 S    
C50   H34   1.110292 S    
C19   C29   1.398150 A    
C43   H17   1.110595 S    
C5    C13   1.408865 A    
C20   C30   1.397257 A    
C47   H26   1.115337 S    
C25   C27   1.397176 A    
O7    Cu1   1.945797 S    
C48   H29   1.110249 S    
C18   O14   1.384274 S    
C38   N3    1.366284 A    
C52   H40   1.106823 S    
C11   C12   1.412940 A    
C3    C23   1.474494 S    
C41   H11   1.113190 S    
O3    Cu1   1.985058 S    
C8    O12   1.349568 S    
N5    O16   1.301322 A    
C9    C15   1.402765 A    
C46   H24   1.110306 S    
C10   C16   1.402534 A    
Cu1   Cu2   2.675741 S    
O4    Cu2   1.985059 S    
C42   H14   1.110380 S    
C2    C35   1.465302 S    
O2    C2    1.293282 A    
C22   C24   1.419846 A    
C25   N7    1.437984 S    
N1    C30   1.438490 S    
C44   H19   1.110317 S    
C24   C26   1.418111 A    
N2    C29   1.440816 S    
O23   C45   1.415004 S    
C17   O13   1.382679 S    
C31   C33   1.393637 A    
C6    C14   1.408200 A    
C26   C28   1.397376 A    
C40   H10   1.078536 S    
O8    Cu2   1.945797 S    
C50   H35   1.104651 S    
N7    O19   1.301647 A    
C43   H16   1.115409 S    
C27   C29   1.399110 A    
C33   O25   1.382933 S    
C15   H1    1.082501 S    
N5    O15   1.301509 A    
C44   H18   1.106460 S    
C38   C39   1.413900 A    
C37   N4    1.365868 A    
N7    O20   1.301514 A    
C26   N8    1.438454 S    
C28   C30   1.398389 A    
O6    C4    1.294600 A    
C41   C42   1.521615 S    
N8    O22   1.301450 A    
C28   H6    1.083434 S    
C23   C25   1.418473 A    
O26   C51   1.414816 S    
C40   N3    1.366027 A    
N6    O18   1.301467 A    
C46   H25   1.104682 S    
C45   H22   1.117061 S    
C33   C35   1.409563 A    
C7    O11   1.349565 S    
C52   H38   1.108621 S    
C42   H15   1.109750 S    
C10   C12   1.407938 A    
C48   H30   1.106789 S    
O1    Cu1   1.985367 S    
C51   H37   1.113677 S    
C44   H20   1.109858 S    
O25   C49   1.414987 S    
Cu1   N3    2.010800 S    
C13   C18   1.417578 A    
C5    N1    1.369703 A    
C37   C40   1.413658 A    
O6    Cu2   1.946166 S    
C32   O24   1.383135 S    
C8    C10   1.403562 A    
O4    C1    1.292931 A    
C49   H32   1.117041 S    
C31   C36   1.409847 A    
C32   C34   1.393101 A    
C5    O9    1.349267 S    
C6    O10   1.349440 S    
C45   C46   1.518197 S    
C21   N5    1.437754 S    
O24   C47   1.414813 S    
C37   H7    1.080625 S    
C38   H8    1.079383 S    
C31   O23   1.382959 S    
C34   O26   1.383112 S    
C51   C52   1.521429 S    
C9    C11   1.408520 A    
C19   H3    1.083110 S    
C48   H28   1.108619 S    
C20   H4    1.083196 S    
C43   C44   1.522503 S    
C47   H27   1.113680 S    
C16   C18   1.397768 A    
N1    C7    1.369163 A    
C34   C36   1.411825 A    
N2    C8    1.370380 A    
C11   C13   1.411933 A    
C19   C21   1.399747 A    
N8    O21   1.301545 A    
O2    Cu2   1.985366 S    
O7    C4    1.294950 A    
C49   C50   1.518154 S    
O8    C3    1.295031 A    
C39   H9    1.080624 S    
O5    Cu1   1.946166 S    
C22   N6    1.437823 S    
N6    O17   1.301434 A    
C16   H2    1.083453 S    
C14   C17   1.416454 A    
C6    N2    1.370739 A    
C45   H21   1.111983 S    
C52   H39   1.110251 S    
Cu2   N4    2.010801 S    
C4    C24   1.471884 S    
C41   H12   1.114556 S    
C51   H36   1.115351 S    
C50   H33   1.105510 S    
C47   C48   1.521434 S    
C32   C35   1.412098 A    
