data_mof_unit_41208.cif
_audit_creation_date              2012-12-11T16:44:18-0500
_audit_creation_method            fapswitch 2.2
_symmetry_space_group_name_H-M    P1
_symmetry_Int_Tables_number       1
_space_group_crystal_system       triclinic
_cell_length_a                    27.188017
_cell_length_b                    7.203083
_cell_length_c                    22.792455
_cell_angle_alpha                 90.000603
_cell_angle_beta                  101.316957
_cell_angle_gamma                 90.000719
_cell_volume                      4376.83057726

loop_
_atom_site_label
_atom_site_type_symbol
_atom_type_description
_atom_site_fract_x
_atom_site_fract_y
_atom_site_fract_z
_atom_type_partial_charge
O1    O     O_R   0.707300 0.594030 0.176840 -0.532115
O2    O     O_R   0.292700 0.405970 0.823160 -0.532115
O3    O     O_R   0.792700 0.094030 0.323160 -0.532114
O4    O     O_R   0.207300 0.905970 0.676840 -0.532114
O5    O     O_R   0.697330 0.262360 0.295660 -0.541036
O6    O     O_R   0.302670 0.737640 0.704340 -0.541036
O7    O     O_R   0.802670 0.762360 0.204340 -0.541036
O8    O     O_R   0.197330 0.237640 0.795660 -0.541036
C1    C     C_R   0.684807 0.432240 0.311855 0.683643
C2    C     C_R   0.315193 0.567760 0.688145 0.683643
C3    C     C_R   0.815193 0.932240 0.188145 0.683638
C4    C     C_R   0.184807 0.067760 0.811855 0.683638
O9    O     O_R   0.701410 0.264250 0.175600 -0.535242
O10   O     O_R   0.298590 0.735750 0.824400 -0.535242
O11   O     O_R   0.798590 0.764250 0.324400 -0.535241
O12   O     O_R   0.201410 0.235750 0.675600 -0.535241
O13   O     O_R   0.796800 0.094950 0.202240 -0.537517
O14   O     O_R   0.203200 0.905050 0.797760 -0.537517
O15   O     O_R   0.703200 0.594950 0.297760 -0.537517
O16   O     O_R   0.296800 0.405050 0.702240 -0.537517
C5    C     C_R   0.689769 0.432511 0.153492 0.684978
C6    C     C_R   0.310230 0.567489 0.846508 0.684979
C7    C     C_R   0.810230 0.932514 0.346507 0.684981
C8    C     C_R   0.189770 0.067486 0.653493 0.684981
O17   O     O_3   0.781290 0.427390 0.258880 -0.372625
O18   O     O_3   0.218710 0.572610 0.741120 -0.372625
O19   O     O_3   0.718710 0.927390 0.241120 -0.372628
O20   O     O_3   0.281290 0.072610 0.758880 -0.372628
V1    V     V_3+5 0.744190 0.152150 0.248350 1.408284
V2    V     V_3+5 0.255810 0.847850 0.751650 1.408284
V3    V     V_3+5 0.755810 0.652150 0.251650 1.408283
V4    V     V_3+5 0.244190 0.347850 0.748350 1.408283
C9    C     C_R   0.154785 0.062502 0.595193 -0.036880
C10   C     C_R   0.845215 0.937498 0.404807 -0.036880
C11   C     C_R   0.345215 0.562526 0.904808 -0.036897
C12   C     C_R   0.654784 0.437474 0.095192 -0.036897
C13   C     C_R   0.139097 0.124728 0.488953 -0.162281
C14   C     C_R   0.860903 0.875272 0.511047 -0.162281
C15   C     C_R   0.360917 0.624964 0.011035 -0.162289
C16   C     C_R   0.639083 0.375036 0.988965 -0.162289
C17   C     C_R   0.172005 0.115976 0.543949 -0.165027
C18   C     C_R   0.827994 0.884024 0.456051 -0.165027
C19   C     C_R   0.328004 0.616146 0.956043 -0.165017
C20   C     C_R   0.671995 0.383854 0.043957 -0.165017
C21   C     C_R   0.103799 0.018322 0.591111 -0.213749
C22   C     C_R   0.896201 0.981678 0.408889 -0.213750
C23   C     C_R   0.396197 0.518265 0.908894 -0.213757
C24   C     C_R   0.603803 0.481735 0.091106 -0.213757
C25   C     C_R   0.069031 0.029448 0.535485 0.085409
C26   C     C_R   0.930969 0.970552 0.464515 0.085409
C27   C     C_R   0.430970 0.529463 0.964516 0.085407
C28   C     C_R   0.569030 0.470537 0.035484 0.085408
C29   C     C_R   0.088022 0.083370 0.484297 0.139063
C30   C     C_R   0.911978 0.916630 0.515703 0.139063
C31   C     C_R   0.411988 0.583535 0.015695 0.139061
C32   C     C_R   0.588012 0.416465 0.984305 0.139061
C33   C     C_R   0.016269 0.991615 0.528840 0.058030
C34   C     C_R   0.983731 0.008385 0.471160 0.058030
C35   C     C_R   0.483728 0.491569 0.971164 0.058033
C36   C     C_R   0.516271 0.508431 0.028836 0.058033
C37   C     C_R   0.005075 0.061811 0.422083 -0.186769
C38   C     C_R   0.994925 0.938189 0.577917 -0.186769
C39   C     C_R   0.494936 0.562006 0.077904 -0.186775
C40   C     C_R   0.505064 0.437994 0.922096 -0.186775
C41   C     C_R   0.056006 0.098006 0.428671 -0.200864
C42   C     C_R   0.943994 0.901994 0.571329 -0.200864
C43   C     C_R   0.444009 0.598257 0.071314 -0.200866
C44   C     C_R   0.555991 0.401743 0.928686 -0.200867
H1    H     H_    0.070499 0.139196 0.389559 0.123011
H2    H     H_    0.929501 0.860804 0.610441 0.123011
H3    H     H_    0.429523 0.639563 0.110419 0.123015
H4    H     H_    0.570477 0.360437 0.889580 0.123015
H5    H     H_    0.907454 0.019555 0.367746 0.095146
H6    H     H_    0.092545 0.980445 0.632254 0.095146
H7    H     H_    0.592556 0.519717 0.132242 0.095160
H8    H     H_    0.407444 0.480283 0.867758 0.095160
H9    H     H_    0.153555 0.166623 0.449906 0.113466
H10   H     H_    0.846445 0.833377 0.550094 0.113466
H11   H     H_    0.346466 0.666975 0.050075 0.113470
H12   H     H_    0.653534 0.333025 0.949925 0.113470
H13   H     H_    0.983358 0.077685 0.377517 0.123947
H14   H     H_    0.016642 0.922315 0.622483 0.123947
H15   H     H_    0.516659 0.577958 0.122465 0.123949
H16   H     H_    0.483341 0.422042 0.877535 0.123949
C45   C     C_R   0.861996 0.107431 0.120734 -0.166178
C46   C     C_R   0.138004 0.892568 0.879266 -0.166178
C47   C     C_R   0.638004 0.607432 0.379266 -0.166177
C48   C     C_R   0.361996 0.392568 0.620734 -0.166176
H17   H     H_    0.840248 0.230683 0.125300 0.132708
H18   H     H_    0.159752 0.769316 0.874700 0.132708
H19   H     H_    0.659752 0.730685 0.374700 0.132708
H20   H     H_    0.340248 0.269315 0.625300 0.132707
C49   C     C_R   0.897758 0.116442 0.084364 -0.199027
C50   C     C_R   0.102241 0.883557 0.915636 -0.199027
C51   C     C_R   0.602242 0.616443 0.415636 -0.199028
C52   C     C_R   0.397758 0.383557 0.584364 -0.199028
H21   H     H_    0.902560 0.245627 0.061847 0.128417
H22   H     H_    0.097440 0.754373 0.938153 0.128417
H23   H     H_    0.597441 0.745629 0.438153 0.128417
H24   H     H_    0.402559 0.254371 0.561847 0.128417
C53   C     C_R   0.926752 0.960772 0.076288 0.076544
C54   C     C_R   0.073247 0.039228 0.923712 0.076544
C55   C     C_R   0.573248 0.460771 0.423712 0.076544
C56   C     C_R   0.426752 0.539229 0.576288 0.076544
C57   C     C_R   0.919730 0.793300 0.106274 0.192268
C58   C     C_R   0.080270 0.206700 0.893726 0.192268
C59   C     C_R   0.580269 0.293297 0.393727 0.192269
C60   C     C_R   0.419731 0.706703 0.606273 0.192269
C61   C     C_R   0.883173 0.785288 0.142390 -0.164504
C62   C     C_R   0.116827 0.214713 0.857610 -0.164504
C63   C     C_R   0.616827 0.285285 0.357610 -0.164504
C64   C     C_R   0.383173 0.714715 0.642389 -0.164504
H25   H     H_    0.877964 0.656896 0.165166 0.127616
H26   H     H_    0.122037 0.343104 0.834834 0.127616
H27   H     H_    0.622036 0.156892 0.334834 0.127615
H28   H     H_    0.377964 0.843108 0.665166 0.127614
C65   C     C_R   0.853953 0.941611 0.150032 -0.087674
C66   C     C_R   0.146047 0.058389 0.849967 -0.087674
C67   C     C_R   0.646047 0.441610 0.349968 -0.087674
C68   C     C_R   0.353953 0.558390 0.650032 -0.087675
C69   C     C_R   0.960959 0.871534 0.985289 -0.141863
C70   C     C_R   0.039041 0.128466 0.014711 -0.141863
C71   C     C_R   0.539040 0.371537 0.514711 -0.141862
C72   C     C_R   0.460960 0.628463 0.485289 -0.141863
H29   H     H_    0.930440 0.773906 0.972669 0.113524
H30   H     H_    0.069560 0.226094 0.027331 0.113524
H31   H     H_    0.569559 0.273912 0.527331 0.113524
H32   H     H_    0.430441 0.726088 0.472669 0.113524
C73   C     C_R   0.996297 0.891332 0.948489 -0.165849
C74   C     C_R   0.003703 0.108668 0.051511 -0.165848
C75   C     C_R   0.503703 0.391336 0.551511 -0.165848
C76   C     C_R   0.496297 0.608664 0.448489 -0.165848
H33   H     H_    0.992868 0.806623 0.908620 0.120226
H34   H     H_    0.007132 0.193377 0.091380 0.120225
H35   H     H_    0.507131 0.306630 0.591380 0.120226
H36   H     H_    0.492868 0.693369 0.408620 0.120226
C77   C     C_R   0.035424 0.021087 0.962572 0.092668
C78   C     C_R   0.964576 0.978912 0.037428 0.092667
C79   C     C_R   0.464576 0.521088 0.537428 0.092667
C80   C     C_R   0.535424 0.478911 0.462572 0.092667
H37   H     H_    0.788930 0.847753 0.453349 0.106051
H38   H     H_    0.211070 0.152247 0.546651 0.106051
H39   H     H_    0.711055 0.347514 0.046663 0.106060
H40   H     H_    0.288945 0.652486 0.953337 0.106060
C81   C     C_3   0.951941 0.625196 0.102249 -0.826580
H41   H     H_    0.943993 0.568496 0.056145 0.206487
H42   H     H_    0.992199 0.663573 0.114640 0.219143
H43   H     H_    0.944793 0.513159 0.133004 0.205153
C82   C     C_3   0.048059 0.374805 0.897751 -0.826581
H44   H     H_    0.007801 0.336428 0.885360 0.219144
H45   H     H_    0.056007 0.431504 0.943855 0.206487
H46   H     H_    0.055207 0.486842 0.866996 0.205152
C83   C     C_3   0.548058 0.125191 0.397751 -0.826583
H47   H     H_    0.556007 0.068493 0.443855 0.206487
H48   H     H_    0.507800 0.163564 0.385361 0.219145
H49   H     H_    0.555206 0.013153 0.366996 0.205152
C84   C     C_3   0.451942 0.874810 0.602249 -0.826582
H50   H     H_    0.492199 0.836436 0.614639 0.219144
H51   H     H_    0.443993 0.931506 0.556145 0.206487
H52   H     H_    0.444794 0.986847 0.633004 0.205152

loop_
_geom_bond_atom_site_label_1
_geom_bond_atom_site_label_2
_ccdc_geom_bond_type
O17   V3    S    
C48   C52   A    
O1    C5    A    
C84   H50   S    
C47   H19   S    
O19   V1    S    
C9    C21   A    
C72   C79   A    
O3    C7    A    
C10   C18   A    
C56   C60   A    
O15   V3    S    
C62   C66   A    
C81   H41   S    
C61   C65   A    
C33   C38   A    
C5    C12   S    
O7    C3    A    
C6    C11   S    
C35   C40   A    
C26   C30   A    
C28   C36   A    
C36   C39   A    
C40   C44   A    
O9    V1    S    
C23   H8    S    
C14   C18   A    
C75   H35   S    
C82   H45   S    
C58   C62   A    
O4    C8    A    
C51   H23   S    
C44   H4    S    
C50   H22   S    
O1    V3    S    
O13   V1    S    
C31   C43   A    
C72   C76   A    
O2    V4    S    
O3    V1    S    
C40   H16   S    
C46   C50   A    
C69   H29   S    
C45   C49   A    
C1    O15   A    
C15   C31   A    
C76   C80   A    
C48   H20   S    
C2    O16   A    
C16   C32   A    
C47   C51   A    
O2    C6    A    
C16   H12   S    
C54   C58   A    
C10   C22   A    
C48   C68   A    
C11   C19   A    
C62   H26   S    
C16   C20   A    
C43   H3    S    
C76   H36   S    
C72   H32   S    
C13   C29   A    
C34   C37   A    
O11   C7    A    
C38   H14   S    
C11   C23   A    
C35   C36   A    
O12   C8    A    
C58   C82   S    
C24   H7    S    
C19   H40   S    
C74   H34   S    
O10   V2    S    
C81   H42   S    
C51   C55   A    
O5    V1    S    
C53   C57   A    
C39   C43   A    
O7    V3    S    
C38   C42   A    
O8    V4    S    
C2    C68   S    
C46   H18   S    
C82   H46   S    
C49   C53   A    
C64   C68   A    
C45   H17   S    
O18   V4    S    
C15   C19   A    
C60   C84   S    
C14   H10   S    
C32   C44   A    
C13   H9    S    
C71   C80   A    
C60   C64   A    
C39   H15   S    
C21   H6    S    
C54   C77   S    
C26   C34   A    
C69   C78   A    
C70   H30   S    
O5    C1    A    
C63   H27   S    
C71   H31   S    
C14   C30   A    
C21   C25   A    
O8    C4    A    
C7    C10   S    
C57   C81   S    
C18   H37   S    
C47   C67   A    
O9    C5    A    
C46   C66   A    
C83   H49   S    
C45   C65   A    
C83   H48   S    
C59   C83   S    
C4    C66   S    
C63   C67   A    
O6    V2    S    
C84   H52   S    
C52   C56   A    
O14   V2    S    
C1    C67   S    
C73   H33   S    
C12   C20   A    
C27   C35   A    
C3    C65   S    
C49   H21   S    
C64   H28   S    
C81   H43   S    
C29   C41   A    
O16   V4    S    
C57   C61   A    
C3    O13   A    
C71   C75   A    
C59   C63   A    
C70   C77   A    
C69   C73   A    
O6    C2    A    
C25   C33   A    
C23   C27   A    
C53   C78   S    
O11   V3    S    
C30   C42   A    
C61   H25   S    
O12   V4    S    
C22   C26   A    
C8    C9    S    
C56   C79   S    
C9    C17   A    
O10   C6    A    
O20   V2    S    
C17   H38   S    
C37   H13   S    
C55   C80   S    
C33   C34   A    
C42   H2    S    
C20   H39   S    
C41   H1    S    
C52   H24   S    
C12   C24   A    
C27   C31   A    
C13   C17   A    
C25   C29   A    
C75   C79   A    
C37   C41   A    
C24   C28   A    
C73   C77   A    
C50   C54   A    
C84   H51   S    
C4    O14   A    
C55   C59   A    
C83   H47   S    
C82   H44   S    
C70   C74   A    
C22   H5    S    
O4    V2    S    
C28   C32   A    
C15   H11   S    
C74   C78   A    
