data_mof_unit_7841.cif
_audit_creation_date              2012-12-11T16:50:50-0500
_audit_creation_method            fapswitch 2.2
_symmetry_space_group_name_H-M    P1
_symmetry_Int_Tables_number       1
_space_group_crystal_system       triclinic
_cell_length_a                    6.913602
_cell_length_b                    28.838526
_cell_length_c                    32.183468
_cell_angle_alpha                 100.861528
_cell_angle_beta                  89.513068
_cell_angle_gamma                 90.395118
_cell_volume                      6301.40742655

loop_
_atom_site_label
_atom_site_type_symbol
_atom_type_description
_atom_site_fract_x
_atom_site_fract_y
_atom_site_fract_z
_atom_type_partial_charge
O1    O     O_R   0.494350 0.453170 0.452520 -0.536443
O2    O     O_R   0.820980 0.455850 0.538220 -0.502329
O3    O     O_R   0.994300 0.546830 0.547480 -0.544917
C1    C     C_R   0.651654 0.446017 0.552042 0.746963
O4    O     O_R   0.823860 0.447590 0.452270 -0.508508
O5    O     O_R   0.997200 0.538510 0.460920 -0.543936
C2    C     C_R   0.655310 0.434160 0.436902 0.748443
O6    O     O_R   0.491440 0.461490 0.539080 -0.544336
O7    O     O_3   0.661790 0.529840 0.502940 -0.387000
V1    V     V_3+5 0.935470 0.494460 0.499450 1.530043
O8    O     O_R   0.327090 0.544150 0.461780 -0.547082
C3    C     C_R   0.159037 0.554274 0.448272 0.694686
O9    O     O_R   0.324210 0.552410 0.547730 -0.548836
C4    C     C_R   0.154970 0.565117 0.563554 0.674628
V2    V     V_3+5 0.435840 0.505540 0.500550 1.441180
O10   O     O_3   0.159650 0.470160 0.497060 -0.332297
C5    C     C_R   0.225890 0.883161 0.878858 -0.155672
H1    H     H_    0.357803 0.901228 0.890689 0.117752
C6    C     C_R   0.237116 0.847285 0.842973 -0.136344
H2    H     H_    0.376885 0.839194 0.828039 0.101827
C7    C     C_R   0.069932 0.822940 0.826075 0.095345
C8    C     C_R   0.891056 0.835514 0.846175 -0.134604
H3    H     H_    0.759635 0.817114 0.834507 0.099511
C9    C     C_R   0.879690 0.871539 0.882026 -0.161630
H4    H     H_    0.739575 0.880164 0.896629 0.116459
C10   C     C_R   0.047010 0.895890 0.898843 -0.053954
C11   C     C_R   0.936401 0.779336 0.756766 -0.144518
H5    H     H_    0.813884 0.802969 0.760245 0.113419
C12   C     C_R   0.948822 0.743928 0.720513 -0.145851
H6    H     H_    0.835350 0.741340 0.697197 0.111186
C13   C     C_R   0.107471 0.712997 0.713993 0.080416
C14   C     C_R   0.253275 0.718495 0.744808 -0.145804
H7    H     H_    0.375881 0.694886 0.741291 0.111684
C15   C     C_R   0.240827 0.753897 0.781071 -0.145817
H8    H     H_    0.354352 0.756498 0.804374 0.109947
C16   C     C_R   0.082281 0.784867 0.787567 0.080873
C17   C     C_R   0.299222 0.662953 0.655122 -0.135369
H9    H     H_    0.430436 0.681355 0.666931 0.100381
C18   C     C_R   0.310809 0.627402 0.618916 -0.160380
H10   H     H_    0.450916 0.619090 0.604201 0.119012
C19   C     C_R   0.143655 0.603175 0.601852 -0.056461
C20   C     C_R   0.964874 0.615337 0.622103 -0.163543
H11   H     H_    0.833196 0.597218 0.610182 0.115788
C21   C     C_R   0.953418 0.650750 0.658328 -0.137787
H12   H     H_    0.813693 0.658510 0.673385 0.100911
C22   C     C_R   0.120298 0.675136 0.675345 0.095672
C23   C     C_R   0.271612 0.674311 0.295253 0.608632
N1    N     N_R   0.128650 0.676687 0.325528 -0.554138
C24   C     C_R   0.977562 0.707605 0.326407 0.580205
C25   C     C_R   0.964989 0.736828 0.296007 -0.002241
C26   C     C_R   0.111479 0.734915 0.265014 -0.012880
C27   C     C_R   0.266564 0.703663 0.264800 -0.098628
C28   C     C_R   0.809708 0.767984 0.296054 -0.152043
C29   C     C_R   0.800756 0.797071 0.266052 -0.127252
C30   C     C_R   0.946354 0.795646 0.235051 0.029504
C31   C     C_R   0.102443 0.764267 0.234244 -0.062239
C32   C     C_R   0.248566 0.762156 0.202845 -0.124308
C33   C     C_R   0.405755 0.730651 0.203429 0.416398
C34   C     C_R   0.412704 0.702133 0.234098 -0.175481
C35   C     C_R   0.938927 0.825050 0.204872 0.618681
N2    N     N_R   0.078433 0.822423 0.173952 -0.552562
C36   C     C_R   0.229983 0.791447 0.172177 0.667816
O11   O     O_2   0.417148 0.643147 0.294087 -0.523390
O12   O     O_2   0.840638 0.710612 0.356911 -0.531301
H13   H     H_    0.694215 0.770007 0.319269 0.165741
H14   H     H_    0.678417 0.820542 0.267131 0.161584
O13   O     O_2   0.793783 0.856450 0.206776 -0.526690
O14   O     O_2   0.359701 0.788607 0.140342 -0.473868
H15   H     H_    0.534428 0.678590 0.233767 0.201990
C37   C     C_R   0.898661 0.852947 0.118304 -0.146607
H16   H     H_    0.778163 0.830018 0.122487 0.197687
C38   C     C_R   0.884859 0.882471 0.088258 0.400749
C39   C     C_R   0.040634 0.912938 0.082556 -0.159846
C40   C     C_R   0.208452 0.912096 0.106910 -0.242584
H17   H     H_    0.330435 0.934851 0.103407 0.175485
C41   C     C_R   0.220237 0.882754 0.136798 -0.083190
H18   H     H_    0.349895 0.883650 0.155586 0.167966
C42   C     C_R   0.065850 0.852767 0.142813 0.282426
C43   C     C_R   0.979429 0.616428 0.361810 -0.083111
H19   H     H_    0.851921 0.615810 0.342398 0.158041
C44   C     C_R   0.985913 0.587167 0.391910 -0.205233
H20   H     H_    0.862393 0.564763 0.395102 0.130782
C45   C     C_R   0.151182 0.586144 0.416948 -0.057066
C46   C     C_R   0.308982 0.615532 0.411418 -0.205454
H21   H     H_    0.438136 0.615775 0.430271 0.137489
C47   C     C_R   0.300817 0.645512 0.381891 -0.087551
H22   H     H_    0.422909 0.668370 0.378795 0.162564
C48   C     C_R   0.136359 0.646131 0.356552 0.352663
C49   C     C_R   0.592072 0.224675 0.838288 0.589141
N3    N     N_R   0.558480 0.177201 0.825497 -0.556049
C50   C     C_R   0.528191 0.158198 0.783593 0.603287
C51   C     C_R   0.528738 0.187259 0.752631 -0.134926
C52   C     C_R   0.567815 0.235969 0.765536 -0.078830
C53   C     C_R   0.599726 0.254805 0.808624 -0.011748
C54   C     C_R   0.491300 0.169303 0.709290 0.464147
C55   C     C_R   0.503183 0.199295 0.679662 -0.225053
C56   C     C_R   0.544137 0.247589 0.692289 -0.101205
C57   C     C_R   0.575497 0.266044 0.735360 -0.017809
C58   C     C_R   0.615881 0.314567 0.748292 -0.012386
C59   C     C_R   0.646465 0.332832 0.791380 -0.142828
C60   C     C_R   0.638187 0.303355 0.821160 -0.132771
C61   C     C_R   0.555316 0.277959 0.662741 0.613699
N4    N     N_R   0.595649 0.325097 0.675748 -0.547073
C62   C     C_R   0.625057 0.343672 0.717717 0.570447
O15   O     O_2   0.616522 0.242865 0.879720 -0.506724
O16   O     O_2   0.500676 0.111220 0.771928 -0.490707
H23   H     H_    0.479406 0.184356 0.646606 0.187385
O17   O     O_2   0.528186 0.260356 0.621290 -0.511054
O18   O     O_2   0.662023 0.390229 0.729915 -0.528266
H24   H     H_    0.677373 0.369984 0.802265 0.172160
H25   H     H_    0.662971 0.318768 0.854064 0.175529
C63   C     C_R   0.787646 0.376537 0.637610 -0.166156
H26   H     H_    0.914216 0.369582 0.655034 0.135535
C64   C     C_R   0.803549 0.406636 0.608069 0.430455
C65   C     C_R   0.640363 0.414726 0.584040 -0.165312
C66   C     C_R   0.463137 0.393244 0.591533 -0.240329
H27   H     H_    0.335779 0.398618 0.573750 0.209543
C67   C     C_R   0.448136 0.364111 0.621638 -0.077495
H28   H     H_    0.309962 0.348173 0.626887 0.149078
C68   C     C_R   0.610304 0.355451 0.644840 0.305841
C69   C     C_R   0.390314 0.119978 0.862014 -0.067764
H29   H     H_    0.263093 0.122023 0.843054 0.142094
C70   C     C_R   0.387896 0.090370 0.891802 -0.204009
H30   H     H_    0.258988 0.069572 0.894484 0.181528
C71   C     C_R   0.549494 0.087135 0.917472 -0.142552
C72   C     C_R   0.715368 0.114857 0.912441 0.339700
C73   C     C_R   0.717494 0.143787 0.881920 -0.122236
H31   H     H_    0.845674 0.164433 0.878088 0.163827
C74   C     C_R   0.555481 0.146760 0.856573 0.296534
C75   C     C_R   0.719426 0.113933 0.123504 -0.141238
H32   H     H_    0.848485 0.093643 0.113526 0.119361
C76   C     C_R   0.728930 0.149745 0.159440 -0.133780
H33   H     H_    0.864557 0.155438 0.176241 0.102094
C77   C     C_R   0.565167 0.177058 0.173909 0.094830
C78   C     C_R   0.391171 0.167182 0.151399 -0.129993
H34   H     H_    0.262670 0.187808 0.160980 0.104847
C79   C     C_R   0.381175 0.130987 0.115683 -0.147026
H35   H     H_    0.244851 0.124475 0.099213 0.131990
C80   C     C_R   0.545360 0.103964 0.101196 -0.052472
C81   C     C_R   0.416719 0.225642 0.240013 -0.150069
H36   H     H_    0.283607 0.205560 0.234303 0.109256
C82   C     C_R   0.428368 0.261182 0.276192 -0.132415
H37   H     H_    0.303950 0.267627 0.297116 0.120883
C83   C     C_R   0.600268 0.287163 0.285890 0.104853
C84   C     C_R   0.759302 0.277176 0.258214 -0.145684
H38   H     H_    0.892822 0.297053 0.264401 0.111397
C85   C     C_R   0.747172 0.242010 0.221843 -0.139553
H39   H     H_    0.871732 0.236109 0.200955 0.109930
C86   C     C_R   0.576162 0.215427 0.212300 0.085480
C87   C     C_R   0.781836 0.328287 0.349834 -0.169395
H40   H     H_    0.899537 0.303641 0.341226 0.144955
C88   C     C_R   0.797824 0.363017 0.386574 0.379727
C89   C     C_R   0.644982 0.395463 0.398861 -0.141243
C90   C     C_R   0.477423 0.390909 0.373750 -0.149917
H41   H     H_    0.357789 0.415055 0.381869 0.166155
C91   C     C_R   0.462102 0.355754 0.337452 -0.108007
H42   H     H_    0.331776 0.353793 0.318750 0.124868
C92   C     C_R   0.614738 0.324264 0.324864 0.019485
O19   O     O_R   0.699170 0.038480 0.960880 -0.509695
O20   O     O_R   0.366800 0.052460 0.047690 -0.544949
O21   O     O_R   0.193520 0.961530 0.039110 -0.546065
C93   C     C_R   0.535449 0.065394 0.063335 0.699847
O22   O     O_R   0.369630 0.044100 0.961740 -0.530281
O23   O     O_R   0.196370 0.953120 0.952550 -0.546501
C94   C     C_R   0.539521 0.054870 0.948689 0.765911
O24   O     O_R   0.696320 0.046890 0.047450 -0.537154
O25   O     O_3   0.528890 0.970170 0.997080 -0.373640
V3    V     V_3+5 0.255190 0.005530 0.000540 1.483539
O26   O     O_R   0.866460 0.947530 0.952310 -0.547901
C95   C     C_R   0.035742 0.934549 0.936687 0.677248
O27   O     O_R   0.863630 0.955880 0.038270 -0.514965
C96   C     C_R   0.031716 0.945437 0.051575 0.720841
V4    V     V_3+5 0.754830 0.994440 0.999470 1.498543
O28   O     O_3   0.031000 0.029830 0.002920 -0.339610
Cl1   Cl    Cl    0.602024 0.724868 0.167406 -0.575350
O29   O     O_3   0.714551 0.883009 0.066183 -0.546820
C97   C     C_3   0.717294 0.845269 0.031274 -0.179688
H43   H     H_    0.718869 0.810587 0.041665 0.153276
H44   H     H_    0.842457 0.848229 0.009886 0.105772
H45   H     H_    0.583460 0.846658 0.012782 0.157032
O30   O     O_3   0.451831 0.121935 0.695087 -0.524123
C98   C     C_3   0.250500 0.116321 0.689135 -0.115965
H46   H     H_    0.168825 0.129958 0.718871 0.129883
H47   H     H_    0.217441 0.078086 0.679936 0.174859
H48   H     H_    0.200094 0.133738 0.663163 0.115928
O31   O     O_3   0.981737 0.426047 0.601367 -0.552960
C99   C     C_3   0.010202 0.466729 0.632715 -0.230215
H49   H     H_    0.018572 0.457678 0.664767 0.151874
H50   H     H_    0.894778 0.493286 0.631861 0.116791
H51   H     H_    0.150074 0.483241 0.626329 0.152234
Cl2   Cl    Cl    0.920644 0.116958 0.944830 -0.639282
Cl3   Cl    Cl    0.009284 0.362308 0.416678 -0.645824

loop_
_geom_bond_atom_site_label_1
_geom_bond_atom_site_label_2
_ccdc_geom_bond_type
O27   C96   A    
C59   H24   S    
C52   C53   A    
C37   C42   A    
O26   C95   A    
C1    C65   S    
O23   C95   A    
C54   C55   A    
C1    O6    A    
C63   C64   A    
C84   H38   S    
N3    C50   A    
C70   H30   S    
C18   C19   A    
C7    C16   S    
C13   C14   A    
C28   C29   A    
C31   C32   A    
V3    O28   S    
C79   C80   A    
C72   C73   A    
C40   C41   A    
C45   C46   A    
C5    C10   A    
C8    C9    A    
C91   H42   S    
C6    C7    A    
C33   Cl1   S    
C41   C42   A    
C26   C31   A    
C23   O11   S    
C62   O18   S    
C47   C48   A    
C70   C71   A    
C11   C12   A    
V2    O10   S    
C57   C58   A    
O30   C98   S    
C66   H27   S    
C5    H1    S    
C15   H8    S    
C19   C20   A    
C49   C53   A    
C67   H28   S    
C43   C48   A    
C99   H51   S    
C44   C45   A    
C93   O24   A    
N3    C74   S    
O8    V2    S    
C85   H39   S    
C35   O13   S    
C76   H33   S    
C97   H44   S    
C13   C22   S    
N1    C48   S    
C61   O17   S    
C37   H16   S    
O1    V2    S    
O9    C4    A    
C65   C66   A    
C28   H13   S    
O7    V1    S    
C90   C91   A    
C56   C61   A    
C17   C22   A    
O25   V4    S    
O20   V3    S    
C58   C62   A    
C24   O12   S    
C30   C35   A    
O21   C96   A    
C50   O16   S    
C61   N4    A    
C20   C21   A    
C75   C80   A    
C63   H26   S    
C84   C85   A    
C21   C22   A    
C56   C57   A    
C67   C68   A    
C41   H18   S    
C8    H3    S    
C39   C40   A    
C81   H36   S    
C17   C18   A    
C25   C28   A    
C69   C70   A    
C40   H17   S    
C26   C27   A    
C78   H34   S    
C9    H4    S    
C53   C60   A    
C69   C74   A    
O25   V3    S    
C63   C68   A    
C47   H22   S    
C54   O30   S    
C32   C36   A    
C33   C34   A    
V4    O28   S    
C77   C86   S    
C51   C54   A    
C44   H20   S    
O19   C94   A    
C3    C45   S    
C35   N2    A    
C98   H48   S    
C14   C15   A    
C17   H9    S    
C71   C94   S    
C73   C74   A    
C12   H6    S    
C27   C34   A    
O27   V4    S    
C23   N1    A    
C2    C89   S    
O23   V3    S    
N2    C42   S    
C97   H45   S    
C55   C56   A    
C30   C31   A    
C25   C26   A    
C90   H41   S    
C46   H21   S    
C39   C96   S    
C69   H29   S    
C23   C27   A    
O3    C4    A    
C34   H15   S    
C4    C19   S    
O29   C97   S    
C55   H23   S    
C97   H43   S    
O6    V2    S    
O9    V2    S    
C71   C72   A    
C87   C88   A    
C20   H11   S    
C83   C92   S    
C73   H31   S    
C49   N3    A    
C50   C51   A    
C82   C83   A    
C21   H12   S    
O4    C2    A    
C78   C79   A    
C29   C30   A    
N1    C24   A    
O24   V4    S    
C87   C92   A    
C85   C86   A    
O1    C2    A    
C80   C93   S    
C9    C10   A    
C38   C39   A    
O5    V1    S    
C37   C38   A    
O8    C3    A    
C64   C65   A    
C77   C78   A    
C29   H14   S    
C11   C16   A    
C60   H25   S    
C79   H35   S    
C43   C44   A    
C64   O31   S    
C58   C59   A    
C36   O14   S    
C83   C84   A    
C75   C76   A    
C14   H7    S    
C6    H2    S    
C91   C92   A    
O22   V3    S    
O31   C99   S    
O4    V1    S    
C12   C13   A    
O3    V1    S    
V1    O10   S    
C88   Cl3   S    
O5    C3    A    
C32   C33   A    
O2    C1    A    
C81   C86   A    
C51   C52   A    
C5    C6    A    
N4    C68   S    
C66   C67   A    
C75   H32   S    
C15   C16   A    
C38   O29   S    
O7    V2    S    
N2    C36   A    
C98   H47   S    
C99   H50   S    
O21   V3    S    
C43   H19   S    
C18   H10   S    
C99   H49   S    
C88   C89   A    
C10   C95   S    
C76   C77   A    
C24   C25   A    
O19   V4    S    
C49   O15   S    
N4    C62   A    
O26   V4    S    
C82   H37   S    
C46   C47   A    
O22   C94   A    
C59   C60   A    
C81   C82   A    
C89   C90   A    
C7    C8    A    
C52   C57   A    
C72   Cl2   S    
C98   H46   S    
O20   C93   A    
C87   H40   S    
C11   H5    S    
O2    V1    S    
