data_mof_unit_10373.cif
_audit_creation_date              2013-03-05T16:12:49-0500
_audit_creation_method            fapswitch 2.2
_symmetry_space_group_name_H-M    P1
_symmetry_Int_Tables_number       1
_space_group_crystal_system       triclinic
_cell_length_a                    10.767455
_cell_length_b                    9.960167
_cell_length_c                    27.167087
_cell_angle_alpha                 89.32877
_cell_angle_beta                  90.939143
_cell_angle_gamma                 88.26621
_cell_volume                      2911.60950101

loop_
_atom_site_label
_atom_site_type_symbol
_atom_site_description
_atom_site_fract_x
_atom_site_fract_y
_atom_site_fract_z
_atom_type_partial_charge
O1    O     O_R   0.316770 0.614620 0.500000 -0.601555
O2    O     O_R   0.683230 0.385380 0.500000 -0.589908
O3    O     O_R   0.683230 0.614620 0.500000 -0.564275
O4    O     O_R   0.316770 0.385380 0.500000 -0.561588
C1    C     C_R   0.260550 0.502025 0.500903 0.964563
C2    C     C_R   0.739800 0.498049 0.499456 0.961352
O5    O     O_R   0.500030 0.614650 0.428760 -0.574679
O6    O     O_R   0.499970 0.385350 0.571240 -0.561119
O7    O     O_R   0.499970 0.614650 0.571240 -0.601681
O8    O     O_R   0.500030 0.385350 0.428760 -0.584596
C3    C     C_R   0.497484 0.500865 0.405884 0.979714
C4    C     C_R   0.497658 0.499878 0.594101 0.973098
Zn1   Zn    Zn3+2 0.500000 0.653120 0.500000 1.118829
Zn2   Zn    Zn3+2 0.500000 0.346880 0.500000 1.133612
C5    C     C_R   0.419520 0.346047 0.177182 0.638994
C6    C     C_R   0.466972 0.636325 0.821138 0.644683
O9    O     O_2   0.366052 0.249212 0.203734 -0.425690
O10   O     O_2   0.548084 0.708809 0.795379 -0.418077
N1    N     N_R   0.500316 0.430789 0.199525 -0.329562
N2    N     N_R   0.389526 0.552924 0.796635 -0.338385
C7    C     C_R   0.603543 0.459430 0.173141 0.665225
C8    C     C_R   0.301067 0.482567 0.820396 0.703332
C9    C     C_R   0.569648 0.562034 0.273687 0.451569
C10   C     C_R   0.332300 0.586069 0.709495 0.470041
C11   C     C_R   0.575598 0.564930 0.324730 -0.205447
C12   C     C_R   0.361324 0.572612 0.660172 -0.205725
C13   C     C_R   0.378009 0.458469 0.328803 0.345262
C14   C     C_R   0.551249 0.446190 0.682265 0.331984
C15   C     C_R   0.373553 0.451692 0.277006 0.244459
C16   C     C_R   0.520982 0.456010 0.732232 0.229000
C17   C     C_R   0.482991 0.478264 0.249996 -0.033317
C18   C     C_R   0.411838 0.528113 0.745684 -0.000466
C19   C     C_R   0.482844 0.433631 0.098604 -0.106706
C20   C     C_R   0.389456 0.551146 0.898046 -0.103350
C21   C     C_R   0.399934 0.355607 0.125857 -0.123888
C22   C     C_R   0.468189 0.638570 0.872788 -0.115718
C23   C     C_R   0.304355 0.289121 0.100750 0.324045
C24   C     C_R   0.550374 0.717827 0.900193 0.324570
C25   C     C_R   0.592261 0.477600 0.121814 -0.178972
C26   C     C_R   0.295680 0.484570 0.872120 -0.170917
C27   C     C_R   0.485966 0.502532 0.352400 -0.227025
C28   C     C_R   0.470165 0.503386 0.646365 -0.192979
C29   C     C_R   0.324162 0.445547 0.974845 -0.053314
C30   C     C_R   0.545638 0.536323 0.021264 -0.063199
C31   C     C_R   0.511242 0.581194 0.973215 0.062318
C32   C     C_R   0.353939 0.407988 0.024483 0.061329
C33   C     C_R   0.407807 0.526180 0.948922 0.079575
C34   C     C_R   0.460337 0.460193 0.048054 0.077597
C35   C     C_R   0.211153 0.411757 0.950478 0.163263
C36   C     C_R   0.664924 0.558705 0.042705 0.166536
C37   C     C_R   0.201736 0.421449 0.898748 0.245284
C38   C     C_R   0.686229 0.533509 0.093194 0.249023
O11   O     O_2   0.224082 0.405522 0.794081 -0.406134
O12   O     O_2   0.715814 0.459843 0.195740 -0.404671
C39   C     C_R   0.286852 0.311058 0.050309 -0.166419
C40   C     C_R   0.571226 0.687584 0.949902 -0.171351
H1    H     H_    0.299677 0.618331 0.632359 0.208280
H2    H     H_    0.646825 0.621519 0.342659 0.264899
H3    H     H_    0.218905 0.251023 0.032022 0.212350
H4    H     H_    0.631819 0.751486 0.970570 0.207275
C41   C     C_R   0.069393 0.401259 0.527764 0.221615
C42   C     C_R   0.932047 0.601599 0.474590 0.229517
C43   C     C_R   0.941570 0.393020 0.523853 0.203565
C44   C     C_R   0.059831 0.607239 0.477202 0.213193
C45   C     C_R   0.872880 0.494817 0.498082 -0.335979
C46   C     C_R   0.128113 0.506052 0.503126 -0.333935
C47   C     C_R   0.537429 0.068027 0.540839 0.240313
C48   C     C_R   0.463902 0.931655 0.459007 0.253103
C49   C     C_R   0.459118 0.074406 0.459780 0.236633
C50   C     C_R   0.539867 0.925217 0.540447 0.236389
N3    N     N_R   0.500000 0.857200 0.500000 -0.216647
N4    N     N_R   0.500000 0.142800 0.500000 -0.217158
Cl1   Cl    Cl    0.243149 0.434814 0.363681 -0.383851
Cl2   Cl    Cl    0.692938 0.369155 0.665058 -0.315335
N5    N     N_R   0.569823 0.131963 0.585651 0.259297
O13   O     O_R   0.683961 0.119568 0.601680 -0.201987
O14   O     O_R   0.482645 0.153291 0.617496 -0.265050
N6    N     N_R   0.438709 0.867249 0.413502 0.254474
O15   O     O_R   0.324855 0.863075 0.397201 -0.225304
O16   O     O_R   0.528509 0.853608 0.382320 -0.286257
N7    N     N_R   0.400421 0.145905 0.419616 0.260963
O17   O     O_R   0.451029 0.144467 0.376453 -0.278125
O18   O     O_R   0.284084 0.182427 0.423302 -0.248044
N8    N     N_R   0.590329 0.852842 0.582243 0.261621
O19   O     O_R   0.536387 0.861764 0.624641 -0.274912
O20   O     O_R   0.699457 0.793987 0.579690 -0.280861
N9    N     N_R   0.254968 0.443174 0.252210 0.269991
O21   O     O_R   0.175952 0.353727 0.265381 -0.162161
O22   O     O_R   0.224560 0.527546 0.216780 -0.279908
N10   N     N_R   0.601839 0.396480 0.769605 0.256031
O23   O     O_R   0.556580 0.322879 0.804476 -0.298468
O24   O     O_R   0.719160 0.424092 0.771188 -0.187110
N11   N     N_R   0.219687 0.204497 0.125702 0.261052
O25   O     O_R   0.201205 0.084216 0.109503 -0.277401
O26   O     O_R   0.141486 0.257255 0.156517 -0.186454
N12   N     N_R   0.610729 0.830829 0.878956 0.259136
O27   O     O_R   0.724919 0.855371 0.891474 -0.239296
O28   O     O_R   0.545310 0.922247 0.854629 -0.242404
Cl3   Cl    Cl    0.198998 0.681636 0.725226 -0.357313
Cl4   Cl    Cl    0.645887 0.692868 0.243134 -0.343683
N13   N     N_R   0.090275 0.380992 0.874284 0.280425
O29   O     O_R   0.069434 0.254075 0.868660 -0.206248
O30   O     O_R   0.013771 0.470912 0.854732 -0.211125
N14   N     N_R   0.804255 0.563804 0.114734 0.283093
O31   O     O_R   0.900434 0.484617 0.107664 -0.207626
O32   O     O_R   0.817691 0.675867 0.138066 -0.207489
N15   N     N_R   0.099802 0.391895 0.977877 0.218767
O33   O     O_R   0.069317 0.474930 0.012599 -0.252458
O34   O     O_R   0.027948 0.292571 0.968170 -0.249993
N16   N     N_R   0.769055 0.590564 0.012650 0.226369
O35   O     O_R   0.840913 0.688401 0.024325 -0.251917
O36   O     O_R   0.794384 0.518750 0.974170 -0.253845
N17   N     N_R   0.139122 0.303918 0.557419 0.263484
O37   O     O_R   0.208594 0.342870 0.593869 -0.339247
O38   O     O_R   0.133089 0.176386 0.548123 -0.234143
N18   N     N_R   0.863258 0.703023 0.446665 0.264737
O39   O     O_R   0.797402 0.669716 0.408488 -0.349170
O40   O     O_R   0.871436 0.829192 0.457801 -0.237014
N19   N     N_R   0.882568 0.284274 0.548146 0.255377
O41   O     O_R   0.847787 0.182536 0.522242 -0.265456
O42   O     O_R   0.897127 0.269177 0.595523 -0.202086
N20   N     N_R   0.119405 0.711947 0.450812 0.258240
O43   O     O_R   0.151168 0.819233 0.474200 -0.266271
O44   O     O_R   0.111133 0.715696 0.402987 -0.217005

loop_
_geom_bond_atom_site_label_1
_geom_bond_atom_site_label_2
_geom_bond_distance
_ccdc_geom_bond_type
N9    O21   1.301536 A    
C43   C45   1.409334 A    
N11   O25   1.300939 A    
C39   H3    1.077559 S    
C13   C15   1.409663 A    
C10   Cl3   1.759495 S    
C16   N10   1.437380 S    
O3    C2    1.295074 A    
N1    C17   1.468568 S    
N14   O32   1.300727 A    
N7    O17   1.301162 A    
C35   N15   1.439047 S    
C5    N1    1.369977 A    
C19   C25   1.410941 A    
C20   C26   1.408358 A    
N1    C7    1.367866 A    
C10   C12   1.387987 A    
C7    O12   1.346987 S    
N6    O16   1.301005 A    
C36   N16   1.438741 S    
N18   O39   1.298765 A    
C47   N4    1.376889 A    
C14   C28   1.402485 A    
C41   C43   1.383679 A    
O7    Zn1   1.968545 S    
N16   O35   1.301414 A    
C4    C28   1.455747 S    
C41   C46   1.405221 A    
C2    C45   1.433432 S    
C31   C40   1.407208 A    
C48   C49   1.421614 A    
C35   C37   1.409307 A    
N12   O28   1.301486 A    
C32   C39   1.410351 A    
C36   C38   1.405420 A    
N15   O33   1.301378 A    
C24   C40   1.393321 A    
C50   N3    1.367549 A    
C50   N8    1.428682 S    
C42   C44   1.379452 A    
O3    Zn1   1.998420 S    
O6    C4    1.304980 A    
C31   C33   1.413334 A    
C25   C38   1.410002 A    
C14   Cl2   1.759483 S    
N13   O30   1.301039 A    
N15   O34   1.300979 A    
O2    C2    1.292997 A    
C5    C21   1.408481 A    
N14   O31   1.300798 A    
N7    O18   1.299575 A    
C8    O11   1.348697 S    
N19   O42   1.300458 A    
C48   N6    1.425322 S    
C32   C34   1.418697 A    
N13   O29   1.300868 A    
N8    O19   1.301209 A    
O8    Zn2   1.968550 S    
C11   C27   1.389931 A    
N6    O15   1.298627 A    
C29   C35   1.426805 A    
Zn1   N3    2.032671 S    
C40   H4    1.080516 S    
C9    C17   1.421632 A    
C12   H1    1.084476 S    
C49   N4    1.368054 A    
O5    C3    1.299687 A    
N5    O13   1.298943 A    
C10   C18   1.400880 A    
C42   N18   1.436321 S    
C43   N19   1.432121 S    
C13   C27   1.402803 A    
N10   O24   1.301077 A    
C7    C25   1.406787 A    
C6    N2    1.365739 A    
C8    C26   1.407700 A    
N12   O27   1.301369 A    
C23   N11   1.433315 S    
N5    O14   1.301380 A    
C6    O10   1.349098 S    
N2    C8    1.365626 A    
N9    O22   1.301513 A    
C41   N17   1.438951 S    
O1    C1    1.290605 A    
C47   N5    1.423729 S    
C11   H2    1.078640 S    
N20   O44   1.300876 A    
C30   C31   1.414693 A    
C12   C28   1.400408 A    
N17   O37   1.301122 A    
N2    C18   1.431805 S    
C30   C36   1.426358 A    
C5    O9    1.346461 S    
C38   N14   1.432284 S    
O6    Zn2   1.977348 S    
C42   C45   1.408113 A    
C21   C23   1.411272 A    
O7    C4    1.295652 A    
Zn2   N4    2.032671 S    
N8    O20   1.300415 A    
O4    C1    1.294383 A    
N19   O41   1.301301 A    
C37   N13   1.433120 S    
C26   C37   1.411946 A    
C47   C50   1.422025 A    
C9    Cl4   1.767121 S    
C22   C24   1.412443 A    
C15   C17   1.428185 A    
C1    C46   1.427646 S    
C16   C18   1.414054 A    
N10   O23   1.301097 A    
C48   N3    1.374873 A    
C44   N20   1.432189 S    
C14   C16   1.405048 A    
C19   C21   1.413930 A    
N18   O40   1.301229 A    
C3    C27   1.456124 S    
C20   C22   1.413326 A    
C9    C11   1.387789 A    
O4    Zn2   1.998420 S    
O2    Zn2   2.021198 S    
C29   C32   1.424079 A    
N16   O36   1.301497 A    
C15   N9    1.439122 S    
C49   N7    1.424471 S    
O8    C3    1.300583 A    
C23   C39   1.393960 A    
O5    Zn1   1.977353 S    
O1    Zn1   2.021198 S    
N11   O26   1.301002 A    
C24   N12   1.436431 S    
C19   C34   1.411164 A    
C20   C33   1.411113 A    
N20   O43   1.301324 A    
C13   Cl1   1.767054 S    
C29   C33   1.415429 A    
C6    C22   1.403470 A    
C30   C34   1.414003 A    
C44   C46   1.404936 A    
N17   O38   1.301334 A    
