data_mof_unit_17180.cif
_audit_creation_date              2013-03-05T16:07:19-0500
_audit_creation_method            fapswitch 2.2
_symmetry_space_group_name_H-M    P1
_symmetry_Int_Tables_number       1
_space_group_crystal_system       triclinic
_cell_length_a                    6.958436
_cell_length_b                    13.632209
_cell_length_c                    20.210902
_cell_angle_alpha                 102.939587
_cell_angle_beta                  90.34398
_cell_angle_gamma                 90.596538
_cell_volume                      1868.32981473

loop_
_atom_site_label
_atom_site_type_symbol
_atom_site_description
_atom_site_fract_x
_atom_site_fract_y
_atom_site_fract_z
_atom_type_partial_charge
O1    O     O_R   0.506770 0.599700 0.449550 -0.600552
O2    O     O_R   0.179980 0.595740 0.587960 -0.558627
O3    O     O_R   0.004580 0.400300 0.550450 -0.569597
C1    C     C_R   0.349412 0.618520 0.614888 0.955487
O4    O     O_R   0.177380 0.611700 0.452380 -0.606723
O5    O     O_R   0.001970 0.416370 0.413900 -0.610971
C2    C     C_R   0.346785 0.637884 0.435376 0.905784
O6    O     O_R   0.509390 0.583630 0.586100 -0.575994
O7    O     O_3   0.337530 0.435890 0.487530 -0.278017
V1    V     V_3+5 0.064660 0.511890 0.502310 1.210249
O8    O     O_R   0.671950 0.404260 0.412040 -0.593535
C3    C     C_R   0.840034 0.382796 0.384731 0.919031
O9    O     O_R   0.674540 0.388300 0.547620 -0.583232
C4    C     C_R   0.843468 0.359644 0.562638 1.031494
V2    V     V_3+5 0.564030 0.488110 0.497690 1.207537
O10   O     O_3   0.841030 0.564110 0.512470 -0.259868
C5    C     C_R   0.912700 0.110872 0.609635 -0.159380
H1    H     H_    0.911458 0.161219 0.516315 0.130073
H2    H     H_    0.946502 0.987346 0.693467 0.123777
H3    H     H_    0.943257 0.033907 0.584184 0.117178
C6    C     C_R   0.853378 0.282364 0.602386 -0.136067
C7    C     C_R   0.824172 0.313859 0.929559 -0.182930
C8    C     C_R   0.801218 0.388567 0.893544 -0.075251
C9    C     C_R   0.810668 0.365415 0.822933 -0.154798
C10   C     C_R   0.845227 0.265810 0.786165 0.075811
C11   C     C_R   0.870245 0.189664 0.823555 0.113250
C12   C     C_R   0.856491 0.239324 0.713737 0.066141
C13   C     C_R   0.895343 0.138066 0.680594 0.196019
C14   C     C_R   0.917898 0.064807 0.718399 -0.245254
C15   C     C_R   0.904958 0.089974 0.788670 -0.221470
C16   C     C_R   0.832407 0.310021 0.672861 -0.197231
C17   C     C_R   0.893968 0.182913 0.570861 -0.168995
C18   C     C_R   0.858594 0.214782 0.895348 -0.162329
H4    H     H_    0.799755 0.387428 0.694181 0.166581
H5    H     H_    0.813494 0.333173 0.984417 0.103866
H6    H     H_    0.790088 0.427443 0.798936 0.163209
H7    H     H_    0.774367 0.465143 0.920544 0.127206
H8    H     H_    0.923730 0.030431 0.815570 0.118493
C19   C     C_R   0.716223 0.255907 0.201540 0.143627
C20   C     C_R   0.868654 0.189352 0.182294 -0.192840
C21   C     C_R   0.021588 0.194583 0.229095 -0.085541
H9    H     H_    0.142557 0.144987 0.216626 0.133643
C22   C     C_R   0.012843 0.258024 0.294544 -0.109735
H10   H     H_    0.128442 0.256306 0.330234 0.150045
C23   C     C_R   0.850264 0.317551 0.315381 -0.185208
C24   C     C_R   0.706957 0.317906 0.266475 0.163196
C25   C     C_3   0.495705 0.301893 0.270321 -0.442804
C26   C     C_3   0.505276 0.235622 0.199128 -0.422507
H11   H     H_    0.414104 0.372184 0.273050 0.178850
H12   H     H_    0.458451 0.259691 0.309601 0.245503
H13   H     H_    0.431328 0.268463 0.160373 0.177701
H14   H     H_    0.470854 0.155189 0.196776 0.214354
C27   C     C_R   0.505982 0.684550 0.729778 0.079940
C28   C     C_R   0.355855 0.686811 0.683483 -0.257140
C29   C     C_R   0.199871 0.750546 0.706548 -0.046638
H15   H     H_    0.081737 0.755359 0.672518 0.113551
C30   C     C_R   0.197944 0.812029 0.772616 -0.139079
H16   H     H_    0.079578 0.862642 0.787409 0.117162
C31   C     C_R   0.353987 0.813204 0.817223 -0.195120
C32   C     C_R   0.505129 0.747717 0.794637 0.128289
C33   C     C_3   0.712682 0.773519 0.793441 -0.583504
C34   C     C_3   0.715892 0.704983 0.722826 0.209733
H17   H     H_    0.793620 0.748207 0.833960 0.244948
H18   H     H_    0.736359 0.854077 0.792739 0.167694
H19   H     H_    0.747038 0.745003 0.681721 0.045634
C35   C     C_R   0.481491 0.879644 0.388640 -0.079587
H20   H     H_    0.479845 0.826854 0.480828 0.104575
H21   H     H_    0.541273 0.951675 0.414537 0.162002
C36   C     C_R   0.362735 0.716088 0.396671 -0.084778
C37   C     C_R   0.308794 0.686765 0.070576 -0.237148
C38   C     C_R   0.313867 0.608839 0.104393 -0.127119
C39   C     C_R   0.358250 0.627230 0.173879 0.331416
C40   C     C_R   0.375953 0.729068 0.212415 0.036807
C41   C     C_R   0.391628 0.806757 0.175622 0.014674
C42   C     C_R   0.384402 0.757327 0.285152 0.077347
C43   C     C_R   0.447313 0.856225 0.317982 -0.007166
C44   C     C_R   0.476894 0.929416 0.279742 0.339483
C45   C     C_R   0.443745 0.905025 0.209976 -0.324791
C46   C     C_R   0.324920 0.692295 0.326871 -0.223995
C47   C     C_R   0.444954 0.808942 0.427102 -0.193232
C48   C     C_R   0.356132 0.784631 0.104691 -0.124534
H22   H     H_    0.250443 0.622342 0.306267 0.134619
H23   H     H_    0.278701 0.669688 0.016497 0.130296
H24   H     H_    0.293047 0.532434 0.075166 0.132773
H25   H     H_    0.460245 0.964505 0.182756 0.147708
O11   O     O_R   0.203450 0.916320 0.913910 -0.598359
O12   O     O_R   0.535520 0.888300 0.047620 -0.592117
O13   O     O_R   0.710860 0.083650 0.086100 -0.593919
C49   C     C_R   0.366481 0.862421 0.064954 0.940376
O14   O     O_R   0.532860 0.904250 0.912040 -0.596396
O15   O     O_R   0.708190 0.099710 0.949550 -0.592693
C50   C     C_R   0.363650 0.883471 0.884625 0.947476
O16   O     O_R   0.206120 0.900260 0.050460 -0.589250
O17   O     O_3   0.375280 0.064080 0.012470 -0.282092
V3    V     V_3+5 0.648180 0.988110 0.997690 1.166166
O18   O     O_R   0.038220 0.111740 0.952370 -0.596222
C51   C     C_R   0.869408 0.137858 0.935429 0.923287
O19   O     O_R   0.040880 0.095790 0.087940 -0.607833
C52   C     C_R   0.873111 0.117766 0.115092 0.941607
V4    V     V_3+5 0.148800 0.011950 0.002300 1.159949
O20   O     O_3   0.871820 0.935920 0.987530 -0.271972
N1    N     N_R   0.829158 0.613880 0.717799 0.236355
O21   O     O_R   0.846781 0.553414 0.658821 -0.411775
O22   O     O_R   0.932088 0.598405 0.768410 -0.440153
N2    N     N_R   0.533147 0.030605 0.311336 0.218065
O23   O     O_R   0.679719 0.072181 0.288316 -0.431151
O24   O     O_R   0.424675 0.085172 0.357185 -0.449422
C53   C     C_3   0.415965 0.536058 0.199879 -1.104350
H26   H     H_    0.516214 0.555905 0.243836 0.263516
H27   H     H_    0.285967 0.496239 0.212474 0.249873
H28   H     H_    0.495841 0.482442 0.160261 0.257566

loop_
_geom_bond_atom_site_label_1
_geom_bond_atom_site_label_2
_geom_bond_distance
_ccdc_geom_bond_type
C35   H21   1.081630 S    
C29   H15   1.080554 S    
C40   C42   1.434525 A    
C40   C41   1.427505 A    
C1    O6    1.303389 A    
C20   C52   1.485117 S    
O14   V3    2.006327 S    
C25   H11   1.109817 S    
C44   C45   1.391579 A    
C7    H5    1.083881 S    
N2    O24   1.301201 A    
C9    H6    1.075220 S    
C4    C6    1.462812 S    
C13   C14   1.396202 A    
O5    C3    1.298927 A    
C30   C31   1.404798 A    
V2    O10   2.165810 S    
C5    H3    1.083923 S    
C53   H26   1.109097 S    
C15   H8    1.081898 S    
C21   H9    1.080407 S    
C33   H17   1.109933 S    
C37   C48   1.392833 A    
C28   C29   1.412317 A    
O8    V2    2.003603 S    
C26   H13   1.111628 S    
C39   C53   1.510789 S    
O12   V3    2.021492 S    
C8    C9    1.392988 A    
C37   C38   1.386545 A    
O1    V2    2.022453 S    
O11   V4    2.002744 S    
O7    V1    2.162649 S    
C48   C49   1.468082 S    
O13   V3    2.003977 S    
C31   C32   1.397951 A    
O9    C4    1.298023 A    
C21   C22   1.411080 A    
N1    O21   1.295822 A    
C27   C32   1.398042 A    
C25   H12   1.110112 S    
C6    C17   1.395356 A    
C12   C16   1.413394 A    
C9    C10   1.418038 A    
C19   C20   1.402300 A    
O4    C2    1.298500 A    
C3    C23   1.484889 S    
C10   C11   1.425616 A    
C8    H7    1.082864 S    
O15   C51   1.291726 A    
C32   C33   1.484521 S    
C33   H18   1.112027 S    
O2    C1    1.300622 A    
C42   C43   1.425885 A    
O5    V1    2.003870 S    
C14   C15   1.388113 A    
C6    C16   1.398359 A    
C27   C34   1.497447 S    
C11   C18   1.417282 A    
O14   C50   1.299431 A    
C25   C26   1.520276 S    
O9    V2    2.021971 S    
O17   V4    1.714133 S    
C35   C43   1.409961 A    
O18   C51   1.297047 A    
C16   H4    1.073937 S    
O17   V3    2.162645 S    
C43   C44   1.406471 A    
N1    O22   1.301844 A    
C37   H23   1.083947 S    
C22   C23   1.409781 A    
O16   V4    2.023973 S    
O3    C4    1.294690 A    
C19   C24   1.395084 A    
C45   H25   1.082548 S    
C20   C21   1.410107 A    
C11   C15   1.407860 A    
O6    V2    2.002353 S    
O19   V4    2.003401 S    
O12   C49   1.297077 A    
C22   H10   1.081144 S    
C36   C46   1.397643 A    
H1    C17   1.083494 S    
C41   C48   1.416922 A    
O2    V1    2.006277 S    
C38   H24   1.083997 S    
C7    C18   1.396484 A    
C24   C25   1.488901 S    
C34   H19   1.112404 S    
C1    C28   1.486970 S    
O1    C2    1.291260 A    
C5    C13   1.404892 A    
H20   C47   1.083735 S    
C39   C40   1.435314 A    
C2    C36   1.460449 S    
C46   H22   1.077327 S    
O8    C3    1.304136 A    
C27   C28   1.403414 A    
C10   C12   1.429902 A    
C35   C47   1.389495 A    
N2    O23   1.299875 A    
C53   H28   1.111752 S    
C29   C30   1.408863 A    
O7    V2    1.714719 S    
O4    V1    2.021651 S    
O3    V1    2.022378 S    
O11   C50   1.301194 A    
C30   H16   1.079921 S    
O18   V4    2.021946 S    
C44   N2    1.433547 S    
V4    O20   2.165861 S    
C53   H27   1.110022 S    
C18   C51   1.463857 S    
C31   C50   1.480211 S    
C49   O16   1.293361 A    
C33   C34   1.521170 S    
O13   C52   1.301305 A    
O15   V3    2.022394 S    
C23   C24   1.400659 A    
C26   H14   1.110388 S    
C38   C39   1.402152 A    
O19   C52   1.301960 A    
C41   C45   1.406585 A    
C12   C13   1.422339 A    
C5    C17   1.393446 A    
C7    C8    1.387990 A    
C36   C47   1.392797 A    
V1    O10   1.712268 S    
C42   C46   1.414046 A    
V3    O20   1.712169 S    
C19   C26   1.489335 S    
C34   N1    1.462445 S    
H2    C14   1.084373 S    
