data_mof_unit_53445.cif
_audit_creation_date              2012-12-10T17:09:19-0500
_audit_creation_method            fapswitch 2.2
_symmetry_space_group_name_H-M    P1
_symmetry_Int_Tables_number       1
_space_group_crystal_system       triclinic
_cell_length_a                    17.294944
_cell_length_b                    19.303313
_cell_length_c                    11.824801
_cell_angle_alpha                 91.104414
_cell_angle_beta                  78.017918
_cell_angle_gamma                 90.068303
_cell_volume                      3860.96278861

loop_
_atom_site_label
_atom_site_type_symbol
_atom_type_description
_atom_site_fract_x
_atom_site_fract_y
_atom_site_fract_z
_atom_type_partial_charge
C1    C     C_R   0.401878 0.101657 0.520650 0.838462
C2    C     C_R   0.601394 0.900782 0.478815 0.821272
C3    C     C_R   0.600643 0.099336 0.480111 0.810884
C4    C     C_R   0.401428 0.899007 0.519004 0.840040
C5    C     C_R   0.901878 0.601657 0.520650 0.838462
C6    C     C_R   0.101394 0.400782 0.478815 0.821272
C7    C     C_R   0.100643 0.599336 0.480111 0.810884
C8    C     C_R   0.901428 0.399007 0.519004 0.840040
C9    C     C_R   0.532729 0.022301 0.969512 -0.248652
C10   C     C_R   0.456394 0.014806 0.037275 -0.234851
C11   C     C_R   0.032730 0.522301 0.969512 -0.248652
C12   C     C_R   0.956394 0.514806 0.037275 -0.234851
C13   C     C_R   0.407219 0.995051 0.858064 -0.072942
C14   C     C_R   0.590410 0.014460 0.140558 -0.072210
C15   C     C_R   0.907219 0.495051 0.858064 -0.072942
C16   C     C_R   0.090410 0.514460 0.140558 -0.072210
C17   C     C_R   0.391904 0.015268 0.975208 0.415218
C18   C     C_R   0.594188 0.039863 0.029766 0.434495
C19   C     C_R   0.891904 0.515268 0.975208 0.415218
C20   C     C_R   0.094188 0.539863 0.029766 0.434495
C21   C     C_R   0.544787 0.013945 0.845349 0.555659
C22   C     C_R   0.450128 0.006171 0.161413 0.541162
C23   C     C_R   0.044787 0.513945 0.845349 0.555659
C24   C     C_R   0.950128 0.506171 0.161413 0.541162
C25   C     C_R   0.652887 0.158426 0.470388 -0.041327
C26   C     C_R   0.351876 0.837981 0.524573 -0.057081
C27   C     C_R   0.350268 0.162159 0.531781 -0.086846
C28   C     C_R   0.661373 0.846706 0.466402 -0.059444
C29   C     C_R   0.152887 0.658426 0.470388 -0.041327
C30   C     C_R   0.851876 0.337981 0.524573 -0.057081
C31   C     C_R   0.850268 0.662159 0.531781 -0.086846
C32   C     C_R   0.161373 0.346706 0.466402 -0.059444
C33   C     C_R   0.320894 0.721549 0.591088 -0.133687
C34   C     C_R   0.686955 0.273042 0.398444 -0.178372
C35   C     C_R   0.756057 0.770522 0.344582 -0.150687
C36   C     C_R   0.263211 0.244513 0.652567 -0.186438
C37   C     C_R   0.820894 0.221549 0.591088 -0.133687
C38   C     C_R   0.186955 0.773042 0.398444 -0.178372
C39   C     C_R   0.256057 0.270522 0.344582 -0.150687
C40   C     C_R   0.763211 0.744513 0.652567 -0.186439
C41   C     C_R   0.364466 0.782135 0.592618 -0.192086
C42   C     C_R   0.638515 0.215186 0.405640 -0.160925
C43   C     C_R   0.698102 0.821401 0.356129 -0.186733
C44   C     C_R   0.317929 0.190957 0.641159 -0.157431
C45   C     C_R   0.864466 0.282135 0.592618 -0.192086
C46   C     C_R   0.138515 0.715186 0.405640 -0.160925
C47   C     C_R   0.198102 0.321401 0.356129 -0.186733
C48   C     C_R   0.817929 0.690957 0.641159 -0.157431
C49   C     C_R   0.294732 0.833763 0.456869 -0.213983
C50   C     C_R   0.716877 0.158563 0.525130 -0.173437
C51   C     C_R   0.683503 0.821231 0.565048 -0.220957
C52   C     C_R   0.333091 0.191640 0.432801 -0.192949
C53   C     C_R   0.794732 0.333763 0.456869 -0.213983
C54   C     C_R   0.216877 0.658563 0.525130 -0.173437
C55   C     C_R   0.183503 0.321231 0.565048 -0.220957
C56   C     C_R   0.833090 0.691640 0.432801 -0.192949
C57   C     C_R   0.248039 0.775156 0.459684 0.144796
C58   C     C_R   0.762319 0.217936 0.525298 0.150609
C59   C     C_R   0.741184 0.770207 0.554180 0.149882
C60   C     C_R   0.277348 0.244328 0.443199 0.147436
C61   C     C_R   0.748040 0.275156 0.459684 0.144796
C62   C     C_R   0.262319 0.717936 0.525298 0.150609
C63   C     C_R   0.241184 0.270207 0.554180 0.149882
C64   C     C_R   0.777348 0.744328 0.443199 0.147436
Cu1   Cu    Cu3+1 0.507800 0.000000 0.383250 1.035966
Cu2   Cu    Cu3+1 0.492200 0.000000 0.616750 1.045043
Cu3   Cu    Cu3+1 0.007800 0.500000 0.383250 1.035966
Cu4   Cu    Cu3+1 0.992200 0.500000 0.616750 1.045043
H1    H     H_    0.640105 0.022017 0.181943 0.190025
H2    H     H_    0.358793 0.988709 0.813791 0.209258
H3    H     H_    0.140105 0.522017 0.181943 0.190025
H4    H     H_    0.858793 0.488709 0.813791 0.209258
H5    H     H_    0.731861 0.112480 0.566005 0.188196
H6    H     H_    0.285420 0.876001 0.402984 0.206801
H7    H     H_    0.362421 0.173354 0.347761 0.208960
H8    H     H_    0.655782 0.840751 0.650440 0.185658
H9    H     H_    0.231861 0.612480 0.566005 0.188196
H10   H     H_    0.785420 0.376001 0.402984 0.206801
H11   H     H_    0.862421 0.673354 0.347761 0.208960
H12   H     H_    0.155782 0.340751 0.650440 0.185658
H13   H     H_    0.589234 0.214967 0.362075 0.178611
H14   H     H_    0.409544 0.784735 0.643953 0.156971
H15   H     H_    0.334939 0.172148 0.717752 0.219824
H16   H     H_    0.682123 0.840820 0.278736 0.175564
H17   H     H_    0.089234 0.714966 0.362075 0.178611
H18   H     H_    0.909544 0.284735 0.643953 0.156971
H19   H     H_    0.834939 0.672148 0.717752 0.219824
H20   H     H_    0.182123 0.340820 0.278736 0.175564
H21   H     H_    0.831980 0.178184 0.642448 0.176697
H22   H     H_    0.175365 0.816668 0.347984 0.169470
H23   H     H_    0.283431 0.251126 0.259010 0.191315
H24   H     H_    0.737499 0.765108 0.738007 0.159347
H25   H     H_    0.331980 0.678184 0.642448 0.176697
H26   H     H_    0.675365 0.316668 0.347984 0.169470
H27   H     H_    0.783431 0.751126 0.259010 0.191315
H28   H     H_    0.237499 0.265108 0.738007 0.159347
N1    N     N_R   0.519530 0.000000 0.207810 -0.271390
N2    N     N_R   0.480470 0.000000 0.792190 -0.268183
N3    N     N_R   0.019530 0.500000 0.207810 -0.271390
N4    N     N_R   0.980470 0.500000 0.792190 -0.268183
O1    O     O_R   0.430030 0.075530 0.417420 -0.523966
O2    O     O_R   0.569970 0.924470 0.582580 -0.532406
O3    O     O_R   0.569970 0.075530 0.582580 -0.506903
O4    O     O_R   0.430030 0.924470 0.417420 -0.515230
O5    O     O_R   0.930030 0.575530 0.417420 -0.523966
O6    O     O_R   0.069970 0.424470 0.582580 -0.532406
O7    O     O_R   0.069970 0.575530 0.582580 -0.506903
O8    O     O_R   0.930030 0.424470 0.417420 -0.515230
O9    O     O_R   0.416860 0.075510 0.614610 -0.574219
O10   O     O_R   0.583140 0.924490 0.385390 -0.605096
O11   O     O_R   0.583140 0.075510 0.385390 -0.580292
O12   O     O_R   0.416860 0.924490 0.614610 -0.601561
O13   O     O_R   0.916860 0.575510 0.614610 -0.574219
O14   O     O_R   0.083140 0.424490 0.385390 -0.605096
O15   O     O_R   0.083140 0.575510 0.385390 -0.580292
O16   O     O_R   0.916860 0.424490 0.614610 -0.601561
S1    S     S_3+6 0.349926 0.006886 0.247463 0.050233
O17   O     O_2   0.318094 0.078083 0.238839 -0.252489
O18   O     O_2   0.303641 0.954965 0.192370 -0.301014
O19   O     O_3   0.324723 0.993944 0.389616 -0.543766
H29   H     H_    0.267441 0.004530 0.411849 0.357166
S2    S     S_3+6 0.646149 0.021296 0.767939 0.036964
O20   O     O_2   0.664245 0.097093 0.758956 -0.241824
O21   O     O_2   0.698667 0.988415 0.838604 -0.314210
O22   O     O_3   0.675189 0.987881 0.634652 -0.550448
H30   H     H_    0.733728 0.988049 0.619077 0.352187
S3    S     S_3+6 0.849926 0.506886 0.247463 0.050233
O23   O     O_2   0.818094 0.578083 0.238839 -0.252489
O24   O     O_2   0.803641 0.454965 0.192370 -0.301014
O25   O     O_3   0.824723 0.493944 0.389616 -0.543766
H31   H     H_    0.767441 0.504530 0.411849 0.357166
S4    S     S_3+6 0.146149 0.521296 0.767939 0.036964
O26   O     O_2   0.164245 0.597093 0.758956 -0.241824
O27   O     O_2   0.198667 0.488415 0.838604 -0.314210
O28   O     O_3   0.175189 0.487881 0.634652 -0.550448
H32   H     H_    0.233728 0.488049 0.619077 0.352187
S5    S     S_3+6 0.311606 0.076039 0.001224 0.065920
O29   O     O_2   0.239612 0.047652 0.080177 -0.188192
O30   O     O_2   0.337213 0.142817 0.049692 -0.253525
O31   O     O_3   0.284150 0.094322 0.876776 -0.582577
H33   H     H_    0.239744 0.127585 0.898832 0.371584
S6    S     S_3+6 0.641997 0.121644 0.011337 0.071309
O32   O     O_2   0.726854 0.112989 0.950261 -0.214517
O33   O     O_2   0.599456 0.168988 0.944988 -0.227949
O34   O     O_3   0.640412 0.158391 0.141967 -0.558837
H34   H     H_    0.668433 0.203034 0.125659 0.376644
S7    S     S_3+6 0.811606 0.576039 0.001224 0.065920
O35   O     O_2   0.739612 0.547652 0.080177 -0.188192
O36   O     O_2   0.837213 0.642817 0.049692 -0.253525
O37   O     O_3   0.784150 0.594322 0.876776 -0.582577
H35   H     H_    0.739744 0.627585 0.898832 0.371584
S8    S     S_3+6 0.141997 0.621644 0.011337 0.071309
O38   O     O_2   0.226854 0.612989 0.950261 -0.214517
O39   O     O_2   0.099456 0.668988 0.944988 -0.227949
O40   O     O_3   0.140412 0.658391 0.141967 -0.558837
H36   H     H_    0.168433 0.703034 0.125659 0.376644

loop_
_geom_bond_atom_site_label_1
_geom_bond_atom_site_label_2
_ccdc_geom_bond_type
C22   S1    S    
C6    C32   S    
C7    C29   S    
C24   N3    A    
C14   C18   A    
C30   C45   A    
S7    O35   D    
C34   C42   A    
Cu1   O1    S    
C15   N4    A    
C52   H7    S    
C9    C21   A    
S3    O24   D    
O34   H34   S    
C57   C62   A    
C5    O5    A    
C10   C22   A    
C15   C19   A    
C15   H4    S    
S5    O30   D    
C59   C64   A    
C56   H11   S    
Cu2   O2    S    
C60   C63   A    
S7    O36   D    
Cu3   O14   S    
S1    O18   D    
C28   C51   A    
Cu3   O8    S    
C13   H2    S    
C39   C60   A    
C10   C17   A    
C21   S2    S    
C49   C57   A    
C7    O15   A    
C13   N2    A    
Cu3   O15   S    
C25   C50   A    
C6    O14   A    
C52   C60   A    
C1    O9    A    
C53   C61   A    
C27   C44   A    
Cu1   O11   S    
C3    O11   A    
S4    O26   D    
C55   C63   A    
C24   S3    S    
C56   C64   A    
C35   C64   A    
C21   N2    A    
Cu4   O7    S    
C31   C56   A    
C36   C63   A    
C35   C43   A    
C9    C10   A    
C32   C55   A    
C37   C58   A    
Cu3   N3    S    
Cu4   O13   S    
C46   H17   S    
C1    C27   S    
C44   H15   S    
C58   C61   A    
C23   N4    A    
C4    O12   A    
O19   H29   S    
C22   N1    A    
C16   H3    S    
C26   C49   A    
C43   H16   S    
S6    O34   S    
C42   H13   S    
Cu4   O6    S    
C8    O8    A    
C39   H23   S    
C30   C53   A    
S5    O31   S    
C11   C20   A    
C38   C46   A    
Cu3   Cu4   S    
C50   C58   A    
O28   H32   S    
S7    O37   S    
O31   H33   S    
S1    O19   S    
C33   C62   A    
C54   C62   A    
C34   C61   A    
C19   S7    S    
C20   S8    S    
Cu4   N4    S    
C38   C57   A    
C36   H28   S    
O25   H31   S    
S8    O40   S    
C3    C25   S    
C16   C20   A    
C6    O6    A    
C48   H19   S    
C51   H8    S    
Cu4   O16   S    
S8    O39   D    
C31   C48   A    
O22   H30   S    
C14   H1    S    
C7    O7    A    
C50   H5    S    
C51   C59   A    
S2    O21   D    
S3    O23   D    
C1    O1    A    
C27   C52   A    
C14   N1    A    
C39   C47   A    
C3    O3    A    
C40   C48   A    
C12   C24   A    
C2    O10   A    
C18   S6    S    
C5    O13   A    
S6    O32   D    
Cu2   O3    S    
Cu3   O5    S    
C34   H26   S    
C33   H25   S    
C25   C42   A    
C4    C26   S    
C11   C12   A    
C16   N3    A    
C35   H27   S    
S5    O29   D    
C38   H22   S    
C28   C43   A    
O37   H35   S    
C37   H21   S    
C29   C46   A    
C33   C41   A    
C47   H20   S    
C54   H9    S    
S2    O22   S    
C17   S5    S    
C45   H18   S    
S3    O25   S    
C8    C30   S    
S1    O17   D    
C55   H12   S    
Cu2   N2    S    
S4    O28   S    
C41   H14   S    
C4    O4    A    
C12   C19   A    
C11   C23   A    
C32   C47   A    
C23   S4    S    
C53   H10   S    
S6    O33   D    
Cu2   O9    S    
Cu1   O10   S    
C40   H24   S    
C36   C44   A    
C8    O16   A    
Cu1   N1    S    
C13   C17   A    
C9    C18   A    
S8    O38   D    
S4    O27   D    
Cu1   Cu2   S    
C29   C54   A    
O40   H36   S    
C40   C59   A    
C2    O2    A    
C49   H6    S    
C2    C28   S    
Cu1   O4    S    
Cu2   O12   S    
S2    O20   D    
C37   C45   A    
C26   C41   A    
C5    C31   S    
