data_mof_unit_65533.cif
_audit_creation_date              2012-12-10T18:45:41-0500
_audit_creation_method            fapswitch 2.2
_symmetry_space_group_name_H-M    P1
_symmetry_Int_Tables_number       1
_space_group_crystal_system       triclinic
_cell_length_a                    18.10358
_cell_length_b                    18.10372
_cell_length_c                    43.003408
_cell_angle_alpha                 90.000506
_cell_angle_beta                  90.000627
_cell_angle_gamma                 90.000315
_cell_volume                      14094.0291063

loop_
_atom_site_label
_atom_site_type_symbol
_atom_type_description
_atom_site_fract_x
_atom_site_fract_y
_atom_site_fract_z
_atom_type_partial_charge
Br1   Br    Br    0.128503 0.205235 0.303315 -0.455674
Br2   Br    Br    0.371499 0.294766 0.196686 -0.455673
Br3   Br    Br    0.294918 0.628356 0.803227 -0.455720
Br4   Br    Br    0.705017 0.371708 0.196807 -0.455714
Br5   Br    Br    0.371362 0.294628 0.803387 -0.455671
Br6   Br    Br    0.628691 0.705423 0.196577 -0.455780
Br7   Br    Br    0.705135 0.371598 0.803257 -0.455725
Br8   Br    Br    0.294531 0.628736 0.196553 -0.455807
Br9   Br    Br    0.871371 0.794637 0.696619 -0.455656
Br10  Br    Br    0.794983 0.128292 0.303193 -0.455719
Br11  Br    Br    0.205082 0.871644 0.696773 -0.455716
Br12  Br    Br    0.871308 0.794577 0.303423 -0.455781
Br13  Br    Br    0.128636 0.205371 0.696613 -0.455671
Br14  Br    Br    0.205463 0.871268 0.303443 -0.455791
Br15  Br    Br    0.794865 0.128403 0.696743 -0.455723
Br16  Br    Br    0.628629 0.705363 0.803382 -0.455656
C1    C     C_R   0.500000 0.000000 0.334215 0.781745
C2    C     C_R   0.500000 0.000000 0.868503 -0.020053
C3    C     C_3   0.732043 0.300910 0.228723 0.320981
C4    C     C_3   0.300777 0.267818 0.771354 0.320959
C5    C     C_3   0.699245 0.732202 0.228631 0.320954
C6    C     C_3   0.732090 0.300868 0.771302 0.320948
C7    C     C_3   0.267781 0.699259 0.228622 0.320939
C8    C     C_R   0.499557 0.066890 0.114967 -0.170015
C9    C     C_R   0.500445 0.933110 0.885033 -0.169981
C10   C     C_R   0.933108 0.499561 0.114967 -0.170022
C11   C     C_R   0.066892 0.500472 0.885033 -0.170011
C12   C     C_R   0.500444 0.933108 0.114967 -0.169931
C13   C     C_R   0.999999 0.500011 0.131497 -0.020052
C14   C     C_R   0.499555 0.066891 0.885033 -0.169976
C15   C     C_R   0.066891 0.500476 0.114968 -0.169943
C16   C     C_R   0.933110 0.499560 0.885033 -0.170002
C17   C     C_R   0.999555 0.566890 0.614967 -0.169981
C18   C     C_R   0.000443 0.433110 0.385032 -0.170014
C19   C     C_R   0.433108 0.999565 0.614967 -0.170012
C20   C     C_R   0.566892 0.000437 0.385033 -0.170020
C21   C     C_R   0.000445 0.433109 0.614967 -0.169977
C22   C     C_R   0.999557 0.566891 0.385033 -0.169930
C23   C     C_R   0.566891 0.000435 0.614967 -0.170000
C24   C     C_R   0.000001 0.500010 0.868503 -0.020040
C25   C     C_R   0.433109 0.999563 0.385032 -0.169943
C26   C     C_R   0.499555 0.066899 0.082527 -0.153465
C27   C     C_R   0.500447 0.933101 0.917473 -0.153458
C28   C     C_R   0.933099 0.499573 0.082527 -0.153459
C29   C     C_R   0.066902 0.500488 0.917474 -0.153459
C30   C     C_R   0.500445 0.933100 0.082527 -0.153441
C31   C     C_R   0.499553 0.066900 0.917473 -0.153458
C32   C     C_R   0.066900 0.500493 0.082528 -0.153452
C33   C     C_R   0.933101 0.499571 0.917473 -0.153460
C34   C     C_R   0.999554 0.566899 0.582527 -0.153458
C35   C     C_R   0.000000 0.499999 0.631497 -0.020053
C36   C     C_R   0.000445 0.433101 0.417473 -0.153465
C37   C     C_R   0.433099 0.999563 0.582527 -0.153459
C38   C     C_R   0.566901 0.000439 0.417473 -0.153456
C39   C     C_R   0.000447 0.433100 0.582527 -0.153458
C40   C     C_R   0.999555 0.566900 0.417473 -0.153441
C41   C     C_R   0.566899 0.000437 0.582527 -0.153461
C42   C     C_R   0.433100 0.999562 0.417473 -0.153451
C43   C     C_R   0.500000 0.999999 0.065947 0.071348
C44   C     C_R   0.500000 0.000000 0.934052 0.071352
C45   C     C_R   0.999999 0.500040 0.065948 0.071353
C46   C     C_R   1.000000 0.500001 0.368503 -0.020057
C47   C     C_R   0.000002 0.500036 0.934053 0.071359
C48   C     C_R   0.000000 0.500000 0.565948 0.071352
C49   C     C_R   1.000000 0.500001 0.434053 0.071348
C50   C     C_R   0.499999 1.000000 0.565947 0.071360
C51   C     C_R   0.500000 0.000000 0.434053 0.071351
C52   C     C_3   0.186801 0.109898 0.234235 -0.353191
C53   C     C_3   0.105776 0.116026 0.224802 -0.833424
C54   C     C_3   0.813234 0.890135 0.765681 -0.353098
C55   C     C_3   0.894279 0.884030 0.775085 -0.833318
C56   C     C_3   0.890062 0.186922 0.234101 -0.353229
C57   C     C_R   0.499999 1.000000 0.631497 -0.020037
C58   C     C_3   0.883946 0.105931 0.224619 -0.833650
C59   C     C_3   0.109930 0.813115 0.765859 -0.353220
C60   C     C_3   0.116055 0.894114 0.775329 -0.833646
C61   C     C_3   0.813241 0.890167 0.234365 -0.352967
C62   C     C_3   0.894298 0.884086 0.224975 -0.833402
C63   C     C_3   0.186769 0.109860 0.765673 -0.353076
C64   C     C_3   0.105723 0.115958 0.775075 -0.833335
C65   C     C_3   0.109840 0.813282 0.234379 -0.353073
C66   C     C_3   0.115948 0.894346 0.225003 -0.833296
C67   C     C_3   0.890085 0.186861 0.765825 -0.353183
C68   C     C_R   0.500000 0.000000 0.368503 -0.020051
C69   C     C_3   0.883963 0.105855 0.775286 -0.833576
C70   C     C_3   0.686766 0.609865 0.734318 -0.353101
C71   C     C_3   0.605720 0.615970 0.724916 -0.833312
C72   C     C_3   0.313199 0.390102 0.265765 -0.353180
C73   C     C_3   0.394223 0.383973 0.275201 -0.833429
C74   C     C_3   0.390070 0.686884 0.734142 -0.353218
C75   C     C_3   0.383944 0.605886 0.724670 -0.833646
C76   C     C_3   0.609937 0.313080 0.265897 -0.353202
C77   C     C_3   0.616055 0.394068 0.275383 -0.833737
C78   C     C_3   0.313231 0.390140 0.734327 -0.353083
C79   C     C_R   1.000000 0.500000 0.468414 0.293932
C80   C     C_3   0.394279 0.384042 0.724927 -0.833326
C81   C     C_3   0.686758 0.609833 0.265635 -0.352966
C82   C     C_3   0.605701 0.615913 0.275025 -0.833388
C83   C     C_3   0.609914 0.313139 0.734175 -0.353182
C84   C     C_3   0.616037 0.394144 0.724714 -0.833579
C85   C     C_3   0.390158 0.686714 0.265616 -0.353076
C86   C     C_3   0.384052 0.605644 0.274985 -0.833255
C87   C     C_R   0.000000 0.500000 0.531586 0.293929
C88   C     C_R   0.500000 0.000000 0.468414 0.293931
C89   C     C_R   0.500000 0.000000 0.665785 0.781718
C90   C     C_R   0.499999 0.000000 0.531586 0.293925
C91   C     C_R   0.500000 1.000000 0.968414 0.293929
C92   C     C_R   0.500000 1.000000 0.031586 0.293932
C93   C     C_R   0.000001 0.500046 0.968415 0.293924
C94   C     C_R   1.000000 0.500049 0.031586 0.293931
C95   C     C_R   0.641540 0.141623 0.250129 0.820688
C96   C     C_R   0.358462 0.858375 0.749870 0.820693
C97   C     C_R   0.858370 0.641533 0.250132 0.820737
C98   C     C_R   0.141631 0.358467 0.749867 0.820724
C99   C     C_R   0.358471 0.858366 0.250134 0.820728
C100  C     C_R   1.000000 0.500000 0.334215 0.781754
C101  C     C_R   0.641537 0.141626 0.749869 0.820696
C102  C     C_R   0.141630 0.358467 0.250132 0.820694
C103  C     C_R   0.858369 0.641532 0.749867 0.820712
C104  C     C_R   0.141538 0.641625 0.750130 0.820692
C105  C     C_R   0.858460 0.358377 0.249871 0.820688
C106  C     C_R   0.358369 0.141533 0.750133 0.820723
C107  C     C_R   0.641630 0.858466 0.249868 0.820737
C108  C     C_R   0.858463 0.358374 0.750130 0.820696
C109  C     C_R   0.141529 0.641634 0.249865 0.820727
C110  C     C_R   0.641631 0.858468 0.750133 0.820712
C111  C     C_R   0.000000 0.500000 0.665785 0.781750
C112  C     C_R   0.358370 0.141533 0.249867 0.820694
C113  C     C_3   0.219453 0.185182 0.242744 0.105249
C114  C     C_3   0.780563 0.814833 0.757217 0.105215
C115  C     C_3   0.814796 0.219498 0.242682 0.105227
C116  C     C_3   0.185199 0.780514 0.757300 0.105233
C117  C     C_3   0.780570 0.814846 0.242805 0.105215
C118  C     C_3   0.219437 0.185166 0.757214 0.105212
C119  C     C_3   0.185153 0.780583 0.242812 0.105267
C120  C     C_3   0.814808 0.219476 0.757284 0.105229
C121  C     C_3   0.719437 0.685168 0.742783 0.105218
C122  C     C_R   0.000000 0.500001 0.834215 0.781716
C123  C     C_3   0.280547 0.314818 0.257256 0.105246
C124  C     C_3   0.314801 0.719486 0.742700 0.105232
C125  C     C_3   0.685204 0.280502 0.257318 0.105219
C126  C     C_3   0.280563 0.314834 0.742786 0.105215
C127  C     C_3   0.719429 0.685154 0.257195 0.105212
C128  C     C_3   0.685192 0.280524 0.742716 0.105229
C129  C     C_3   0.314846 0.719417 0.257186 0.105258
C130  C     C_3   0.218143 0.254420 0.221631 -0.280251
C131  C     C_3   0.781922 0.745643 0.778357 -0.280312
C132  C     C_3   0.745483 0.218257 0.221612 -0.280171
C133  C     C_R   1.000000 0.500001 0.165785 0.781747
C134  C     C_3   0.254490 0.781776 0.778382 -0.280179
C135  C     C_3   0.781957 0.745682 0.221648 -0.280328
C136  C     C_3   0.218074 0.254351 0.778356 -0.280316
C137  C     C_3   0.254308 0.781977 0.221651 -0.280346
C138  C     C_3   0.745537 0.218198 0.778378 -0.280194
C139  C     C_3   0.718078 0.754357 0.721643 -0.280314
C140  C     C_3   0.281857 0.245580 0.278369 -0.280246
C141  C     C_3   0.245510 0.718224 0.721618 -0.280177
C142  C     C_3   0.754517 0.281743 0.278388 -0.280154
C143  C     C_3   0.281926 0.245648 0.721644 -0.280320
C144  C     C_R   0.500000 0.000000 0.834215 0.781751
C145  C     C_3   0.718042 0.754318 0.278352 -0.280330
C146  C     C_3   0.754463 0.281802 0.721622 -0.280193
C147  C     C_3   0.245691 0.718023 0.278347 -0.280357
C148  C     C_3   0.198534 0.301185 0.250430 -0.140649
C149  C     C_3   0.801464 0.698813 0.749569 -0.140633
C150  C     C_3   0.698827 0.198523 0.250426 -0.140686
C151  C     C_3   0.301177 0.801473 0.749573 -0.140674
C152  C     C_3   0.801466 0.698816 0.250430 -0.140636
C153  C     C_3   0.198536 0.301186 0.749569 -0.140636
C154  C     C_3   0.301191 0.801460 0.250432 -0.140622
C155  C     C_R   0.500000 1.000000 0.165785 0.781753
C156  C     C_3   0.698821 0.198528 0.749572 -0.140666
C157  C     C_3   0.698536 0.801187 0.750431 -0.140632
C158  C     C_3   0.301466 0.198815 0.249570 -0.140648
C159  C     C_3   0.198823 0.698527 0.750427 -0.140675
C160  C     C_3   0.801173 0.301477 0.249574 -0.140689
C161  C     C_3   0.301464 0.198814 0.750431 -0.140635
C162  C     C_3   0.698534 0.801184 0.249570 -0.140636
C163  C     C_3   0.801179 0.301471 0.750428 -0.140666
C164  C     C_3   0.198808 0.698540 0.249566 -0.140613
C165  C     C_3   0.199170 0.232129 0.271325 0.320935
C166  C     C_R   0.500000 0.999999 0.131497 -0.020056
C167  C     C_3   0.800780 0.767821 0.728648 0.320954
C168  C     C_3   0.767957 0.199090 0.271277 0.320989
C169  C     C_3   0.232069 0.800886 0.728710 0.320966
C170  C     C_3   0.800755 0.767798 0.271369 0.320952
C171  C     C_3   0.199223 0.232182 0.728646 0.320958
C172  C     C_3   0.232217 0.800742 0.271375 0.320922
C173  C     C_3   0.767910 0.199132 0.728698 0.320949
C174  C     C_3   0.699220 0.732179 0.771352 0.320956
C175  C     C_3   0.300830 0.267871 0.228675 0.320934
C176  C     C_3   0.267931 0.699114 0.771290 0.320963
H1    H     H_    0.191462 0.258997 0.198467 0.177315
H2    H     H_    0.308538 0.241003 0.301533 0.177313
H3    H     H_    0.347983 0.599989 0.703905 0.248754
H4    H     H_    0.439592 0.584264 0.718831 0.246023
H5    H     H_    0.413734 0.718866 0.714478 0.191910
H6    H     H_    0.427889 0.691948 0.754370 0.246830
H7    H     H_    0.652045 0.399950 0.296140 0.248793
H8    H     H_    0.639064 0.427646 0.256099 0.292701
H9    H     H_    0.560410 0.415666 0.281242 0.246004
H10   H     H_    0.572098 0.308032 0.245675 0.246842
H11   H     H_    0.586300 0.281071 0.285559 0.191911
H12   H     H_    0.427713 0.360850 0.744218 0.292822
H13   H     H_    0.240875 0.691608 0.698444 0.177354
H14   H     H_    0.400273 0.348218 0.704125 0.248622
H15   H     H_    0.415958 0.439720 0.719176 0.246072
H16   H     H_    0.281360 0.413915 0.714654 0.191890
H17   H     H_    0.308071 0.427856 0.754585 0.247098
H18   H     H_    0.599686 0.651724 0.295832 0.248646
H19   H     H_    0.572279 0.639111 0.255730 0.292799
H20   H     H_    0.584024 0.560226 0.280768 0.246047
H21   H     H_    0.691936 0.572141 0.245368 0.247147
H22   H     H_    0.718614 0.586038 0.285309 0.191884
H23   H     H_    0.639122 0.427674 0.743997 0.292728
H24   H     H_    0.759174 0.308332 0.301567 0.177368
H25   H     H_    0.651965 0.400050 0.703938 0.248730
H26   H     H_    0.560381 0.415781 0.718893 0.246026
H27   H     H_    0.586225 0.281174 0.714511 0.191902
H28   H     H_    0.572117 0.308065 0.754410 0.246854
H29   H     H_    0.348235 0.599609 0.295791 0.248601
H30   H     H_    0.360847 0.572255 0.255681 0.292835
H31   H     H_    0.439732 0.583940 0.280725 0.246038
H32   H     H_    0.427850 0.691911 0.245350 0.246988
H33   H     H_    0.413964 0.718536 0.285298 0.191890
H34   H     H_    0.308664 0.241127 0.698491 0.177293
H35   H     H_    0.691277 0.758810 0.301503 0.177278
H36   H     H_    0.759076 0.308439 0.698451 0.177341
H37   H     H_    0.241206 0.691242 0.301495 0.177269
H38   H     H_    0.499193 0.119341 0.127079 0.183190
H39   H     H_    0.500810 0.880659 0.872921 0.183207
H40   H     H_    0.880657 0.499181 0.127078 0.183176
H41   H     H_    0.808657 0.741117 0.801511 0.177296
H42   H     H_    0.119343 0.500842 0.872922 0.183181
H43   H     H_    0.500807 0.880658 0.127078 0.183227
H44   H     H_    0.499190 0.119342 0.872922 0.183208
H45   H     H_    0.119342 0.500847 0.127079 0.183228
H46   H     H_    0.880659 0.499182 0.872921 0.183188
H47   H     H_    0.999191 0.619341 0.627079 0.183207
H48   H     H_    0.000807 0.380659 0.372921 0.183190
H49   H     H_    0.380657 0.999208 0.627078 0.183178
H50   H     H_    0.619343 0.000795 0.372922 0.183174
H51   H     H_    0.000810 0.380658 0.627078 0.183208
H52   H     H_    0.740826 0.191668 0.198433 0.177362
H53   H     H_    0.999193 0.619342 0.372922 0.183227
H54   H     H_    0.619342 0.000792 0.627079 0.183187
H55   H     H_    0.380658 0.999205 0.372921 0.183224
H56   H     H_    0.499202 0.119419 0.070484 0.163113
H57   H     H_    0.500801 0.880580 0.929516 0.163121
H58   H     H_    0.880578 0.499213 0.070483 0.163114
H59   H     H_    0.119423 0.500855 0.929517 0.163115
H60   H     H_    0.500799 0.880579 0.070483 0.163130
H61   H     H_    0.499199 0.119420 0.929516 0.163119
H62   H     H_    0.119421 0.500862 0.070485 0.163127
H63   H     H_    0.259125 0.808392 0.801556 0.177354
H64   H     H_    0.880580 0.499212 0.929516 0.163116
H65   H     H_    0.999199 0.619420 0.570484 0.163121
H66   H     H_    0.000798 0.380581 0.429516 0.163114
H67   H     H_    0.380578 0.999216 0.570483 0.163114
H68   H     H_    0.619422 0.000787 0.429517 0.163113
H69   H     H_    0.000801 0.380580 0.570483 0.163119
H70   H     H_    0.999202 0.619421 0.429517 0.163130
H71   H     H_    0.619421 0.000784 0.570484 0.163116
H72   H     H_    0.380579 0.999214 0.429515 0.163126
H73   H     H_    0.072292 0.139150 0.244092 0.292791
H74   H     H_    0.808723 0.741190 0.198497 0.177280
H75   H     H_    0.099835 0.151922 0.204018 0.248662
H76   H     H_    0.084110 0.060366 0.219005 0.246024
H77   H     H_    0.218720 0.086172 0.214566 0.191898
H78   H     H_    0.191908 0.072130 0.254480 0.246856
H79   H     H_    0.900265 0.848202 0.795887 0.248619
H80   H     H_    0.927717 0.860840 0.755796 0.292822
H81   H     H_    0.915963 0.939705 0.780840 0.246068
H82   H     H_    0.808082 0.927854 0.745424 0.247071
H83   H     H_    0.781359 0.913909 0.785353 0.191891
H84   H     H_    0.860981 0.072351 0.243914 0.292705
H85   H     H_    0.191335 0.258873 0.801509 0.177294
H86   H     H_    0.847915 0.100037 0.203873 0.248785
H87   H     H_    0.939590 0.084345 0.218741 0.245978
H88   H     H_    0.913691 0.218926 0.214436 0.191912
H89   H     H_    0.927908 0.191977 0.254321 0.246832
H90   H     H_    0.152021 0.900014 0.796092 0.248754
H91   H     H_    0.139095 0.927662 0.756042 0.292726
H92   H     H_    0.060408 0.915733 0.781171 0.246022
H93   H     H_    0.072110 0.808049 0.745631 0.246829
H94   H     H_    0.086268 0.781134 0.785523 0.191911
H95   H     H_    0.927719 0.860884 0.244268 0.292797
H96   H     H_    0.258794 0.808758 0.198503 0.177272
H97   H     H_    0.900311 0.848280 0.204167 0.248650
H98   H     H_    0.915975 0.939774 0.219234 0.246050
H99   H     H_    0.781385 0.913963 0.214692 0.191884
H100  H     H_    0.808064 0.927859 0.254632 0.247148
H101  H     H_    0.099732 0.151780 0.795878 0.248624
H102  H     H_    0.072286 0.139151 0.755785 0.292821
H103  H     H_    0.084043 0.060280 0.780826 0.246072
H104  H     H_    0.191926 0.072146 0.745414 0.247100
H105  H     H_    0.218642 0.086083 0.785345 0.191889
H106  H     H_    0.139186 0.927738 0.244298 0.292824
H107  H     H_    0.740924 0.191561 0.801549 0.177340
H108  H     H_    0.151739 0.900362 0.204189 0.248607
H109  H     H_    0.060264 0.916057 0.219274 0.246051
H110  H     H_    0.086031 0.781451 0.214701 0.191890
H111  H     H_    0.072149 0.808099 0.254646 0.246994
H112  H     H_    0.848033 0.099948 0.796061 0.248730
H113  H     H_    0.860881 0.072325 0.756001 0.292728
H114  H     H_    0.939619 0.084220 0.781108 0.246025
H115  H     H_    0.927883 0.191936 0.745590 0.246853
H116  H     H_    0.913774 0.218826 0.785490 0.191902
H117  H     H_    0.572284 0.639159 0.744207 0.292823
H118  H     H_    0.691343 0.758883 0.698489 0.177295
H119  H     H_    0.599731 0.651800 0.704115 0.248618
H120  H     H_    0.584037 0.560295 0.719161 0.246069
H121  H     H_    0.718639 0.586092 0.714646 0.191891
H122  H     H_    0.691921 0.572145 0.754576 0.247069
H123  H     H_    0.400159 0.348077 0.295985 0.248666
H124  H     H_    0.427710 0.360849 0.255912 0.292783
H125  H     H_    0.415889 0.439632 0.280999 0.246021
H126  H     H_    0.308096 0.427868 0.245520 0.246853
H127  H     H_    0.281277 0.413830 0.285433 0.191897
H128  H     H_    0.360897 0.572338 0.743955 0.292724
N1    N     N_R   0.500434 0.935512 0.015471 -0.167356
N2    N     N_R   0.999566 0.564488 0.484529 -0.167356
N3    N     N_R   0.564488 0.000425 0.515472 -0.167366
N4    N     N_R   0.435512 0.999575 0.484528 -0.167360
N5    N     N_R   0.999566 0.564487 0.515472 -0.167360
N6    N     N_R   0.000434 0.435513 0.484528 -0.167369
N7    N     N_R   0.435512 0.999575 0.515471 -0.167363
N8    N     N_R   0.564488 0.000425 0.484529 -0.167367
N9    N     N_R   0.499567 0.064487 0.984529 -0.167366
N10   N     N_R   0.064488 0.500525 0.015473 -0.167361
N11   N     N_R   0.935513 0.499574 0.984528 -0.167366
N12   N     N_R   0.499567 0.064487 0.015472 -0.167369
N13   N     N_R   0.500434 0.935513 0.984528 -0.167360
N14   N     N_R   0.935512 0.499576 0.015472 -0.167367
N15   N     N_R   0.064489 0.500523 0.984529 -0.167363
N16   N     N_R   0.000434 0.435513 0.515471 -0.167366
O1    O     O_3   0.500000 0.000000 0.250000 -0.504701
O2    O     O_R   0.438450 0.000020 0.680680 -0.632965
O3    O     O_R   0.000020 0.561550 0.319320 -0.632913
O4    O     O_R   0.999980 0.438450 0.680680 -0.632937
O5    O     O_R   0.938450 0.500020 0.819320 -0.632953
O6    O     O_R   0.061550 0.499980 0.180680 -0.632914
O7    O     O_R   0.499980 0.938450 0.819320 -0.632938
O8    O     O_R   0.500020 0.061550 0.180680 -0.632961
O9    O     O_R   0.061550 0.499980 0.819320 -0.632964
O10   O     O_R   0.938450 0.500020 0.180680 -0.632978
O11   O     O_R   0.500020 0.061550 0.819320 -0.632937
O12   O     O_3   0.500000 1.000000 0.750000 -0.504704
O13   O     O_R   0.499980 0.938450 0.180680 -0.632913
O14   O     O_R   0.648010 0.086580 0.268180 -0.608050
O15   O     O_R   0.351990 0.913420 0.731820 -0.608041
O16   O     O_R   0.913420 0.648010 0.268180 -0.608046
O17   O     O_R   0.086580 0.351990 0.731820 -0.608025
O18   O     O_R   0.351990 0.913420 0.268180 -0.608021
O19   O     O_R   0.648010 0.086580 0.731820 -0.608037
O20   O     O_R   0.086580 0.351990 0.268180 -0.608016
O21   O     O_R   0.913420 0.648010 0.731820 -0.608021
O22   O     O_R   0.148010 0.586580 0.768180 -0.608042
O23   O     O_3   0.000000 0.500000 0.250000 -0.504702
O24   O     O_R   0.851990 0.413420 0.231820 -0.608053
O25   O     O_R   0.413420 0.148010 0.768180 -0.608025
O26   O     O_R   0.586580 0.851990 0.231820 -0.608046
O27   O     O_R   0.851990 0.413420 0.768180 -0.608038
O28   O     O_R   0.148010 0.586580 0.231820 -0.608023
O29   O     O_R   0.586580 0.851990 0.768180 -0.608021
O30   O     O_R   0.413420 0.148010 0.231820 -0.608016
O31   O     O_R   0.413460 0.851950 0.231830 -0.636615
O32   O     O_R   0.586540 0.148050 0.768170 -0.636548
O33   O     O_R   0.148050 0.413460 0.231830 -0.636578
O34   O     O_3   0.000000 0.500000 0.750000 -0.504704
O35   O     O_R   0.851950 0.586540 0.768170 -0.636557
O36   O     O_R   0.586540 0.148050 0.231830 -0.636510
O37   O     O_R   0.413460 0.851950 0.768170 -0.636536
O38   O     O_R   0.851950 0.586540 0.231830 -0.636554
O39   O     O_R   0.148050 0.413460 0.768170 -0.636553
O40   O     O_R   0.913460 0.351950 0.731830 -0.636548
O41   O     O_R   0.086540 0.648050 0.268170 -0.636612
O42   O     O_R   0.648050 0.913460 0.731830 -0.636557
O43   O     O_R   0.351950 0.086540 0.268170 -0.636580
O44   O     O_R   0.086540 0.648050 0.731830 -0.636536
O45   O     O_R   0.438450 0.000020 0.319320 -0.632913
O46   O     O_R   0.913460 0.351950 0.268170 -0.636509
O47   O     O_R   0.351950 0.086540 0.731830 -0.636555
O48   O     O_R   0.648050 0.913460 0.268170 -0.636555
O49   O     O_R   0.561550 0.999980 0.680680 -0.632954
O50   O     O_R   0.999980 0.438450 0.319320 -0.632961
O51   O     O_R   0.000020 0.561550 0.680680 -0.632938
O52   O     O_R   0.561550 0.999980 0.319320 -0.632977
Zn1   Zn    Zn3+2 0.499980 0.087890 0.224030 0.997384
Zn2   Zn    Zn3+2 0.000020 0.412110 0.275970 0.997384
Zn3   Zn    Zn3+2 0.412110 0.999980 0.724030 0.997349
Zn4   Zn    Zn3+2 0.587890 0.000020 0.275970 0.997353
Zn5   Zn    Zn3+2 0.000020 0.412110 0.724030 0.997382
Zn6   Zn    Zn3+2 0.999980 0.587890 0.275970 0.997358
Zn7   Zn    Zn3+2 0.587890 0.000020 0.724030 0.997349
Zn8   Zn    Zn3+2 0.412110 0.999980 0.275970 0.997365
Zn9   Zn    Zn3+2 0.500020 0.912110 0.775970 0.997384
Zn10  Zn    Zn3+2 0.912110 0.499980 0.224030 0.997352
Zn11  Zn    Zn3+2 0.087890 0.500020 0.775970 0.997349
Zn12  Zn    Zn3+2 0.500020 0.912110 0.224030 0.997357
Zn13  Zn    Zn3+2 0.499980 0.087890 0.775970 0.997382
Zn14  Zn    Zn3+2 0.087890 0.500020 0.224030 0.997365
Zn15  Zn    Zn3+2 0.912110 0.499980 0.775970 0.997350
Zn16  Zn    Zn3+2 0.999980 0.587890 0.724030 0.997384

loop_
_geom_bond_atom_site_label_1
_geom_bond_atom_site_label_2
_ccdc_geom_bond_type
C48   C87   S    
C19   C37   A    
C38   H68   S    
C117  C135  S    
C98   O17   A    
C102  C148  S    
C125  C150  S    
C90   N3    A    
C56   C115  S    
C21   H51   S    
C60   H90   S    
C123  C148  S    
O23   Zn2   S    
O47   Zn3   S    
C118  C136  S    
O48   Zn4   S    
C53   H73   S    
C66   H108  S    
N2    N5    A    
C131  C174  S    
C151  C169  S    
Br8   C7    S    
Br10  C168  S    
C87   N16   A    
C85   H33   S    
C3    C160  S    
C41   H71   S    
C24   C122  S    
C72   H127  S    
C10   C13   A    
C18   H48   S    
C66   H109  S    
C158  C175  S    
C3    C125  S    
C2    C9    A    
C107  C162  S    
O6    Zn14  S    
C62   H98   S    
C71   H119  S    
N6    N16   A    
C149  C167  S    
C77   H8    S    
N1    N13   A    
C153  C171  S    
O23   Zn6   S    
C93   N15   A    
Br1   C165  S    
C17   C34   A    
C143  C161  S    
Br6   C5    S    
O43   Zn8   S    
C122  O9    A    
O18   Zn8   S    
C116  C159  S    
O41   Zn6   S    
O37   Zn9   S    
C59   C60   S    
C53   H75   S    
C145  C170  S    
C75   H3    S    
C115  C168  S    
C104  C159  S    
C74   C124  S    
C36   H66   S    
C83   H28   S    
C78   C80   S    
C88   N8    A    
C44   C91   S    
C81   H22   S    
C7    C137  S    
C96   O37   A    
C25   C42   A    
C86   H30   S    
C129  C154  S    
C103  O35   A    
C60   H92   S    
C6    C163  S    
C119  C164  S    
C146  H36   S    
C66   H106  S    
O26   Zn12  S    
C4    C161  S    
Br7   C6    S    
C82   H19   S    
C123  C175  S    
C3    C132  S    
C2    C144  S    
C25   C68   A    
C101  C156  S    
N4    N7    A    
C59   H94   S    
C55   H81   S    
C118  C161  S    
C136  H85   S    
C13   C133  S    
C42   C51   A    
C72   C73   S    
C87   N5    A    
C6    C128  S    
O40   Zn5   S    
C108  O27   A    
C127  C145  S    
C36   C49   A    
C22   C46   A    
C71   H117  S    
C106  C161  S    
Br13  C171  S    
C18   C46   A    
C41   C50   A    
C110  O42   A    
C9    C27   A    
C97   C152  S    
C81   C82   S    
C10   C28   A    
C109  O28   A    
C52   H78   S    
C12   C30   A    
C141  C169  S    
O8    Zn1   S    
C114  C167  S    
C139  C167  S    
C117  C162  S    
C142  H24   S    
C115  C160  S    
C121  C139  S    
C99   O18   A    
O34   Zn5   S    
C104  O22   A    
C12   C166  A    
C148  C165  S    
C131  C149  S    
C110  O29   A    
C137  C154  S    
O14   Zn4   S    
C103  C149  S    
C70   C121  S    
C124  C151  S    
Br15  C173  S    
C84   H26   S    
C72   H126  S    
C1    O45   A    
C99   C154  S    
C45   C94   S    
C65   H111  S    
C80   H12   S    
O28   Zn14  S    
C152  C170  S    
C78   C126  S    
C159  C176  S    
C105  O24   A    
C52   C53   S    
O36   Zn1   S    
C129  C147  S    
O9    Zn11  S    
C96   C151  S    
C130  C148  S    
C104  O44   A    
C101  O32   A    
C147  C172  S    
C56   H88   S    
O33   Zn14  S    
C47   C93   S    
C140  H2    S    
O12   Zn9   S    
C23   H54   S    
C27   H57   S    
C135  H74   S    
C57   C89   S    
C11   C24   A    
O15   Zn3   S    
O51   Zn16  S    
C92   N12   A    
O7    Zn9   S    
C76   C125  S    
C73   H123  S    
C67   C120  S    
O31   Zn12  S    
C27   C44   A    
C85   H32   S    
C19   H49   S    
N10   N15   A    
C130  C175  S    
O22   Zn11  S    
C103  O21   A    
O23   Zn10  S    
C93   N11   A    
C76   H10   S    
C59   C116  S    
O1    Zn4   S    
C64   H102  S    
C63   C118  S    
C58   H86   S    
C42   H72   S    
C92   N1    A    
C150  C168  S    
O38   Zn10  S    
C116  C169  S    
C84   H25   S    
C28   C45   A    
C112  C158  S    
C120  C173  S    
C1    C68   S    
C20   H50   S    
O34   Zn11  S    
C88   N4    A    
C52   H77   S    
C94   N14   A    
Br3   C176  S    
C29   H59   S    
C134  H63   S    
C67   H116  S    
C114  C131  S    
C5    C135  S    
C96   O15   A    
C16   C33   A    
C20   C38   A    
C121  C174  S    
C21   C39   A    
C64   H101  S    
C49   C79   S    
C22   C40   A    
C154  C172  S    
C132  H52   S    
C132  C150  S    
C101  O19   A    
O30   Zn1   S    
C89   O49   A    
C56   H89   S    
C14   H44   S    
O3    Zn6   S    
O23   Zn14  S    
C69   H114  S    
C98   C153  S    
O21   Zn16  S    
C85   C86   S    
C54   H82   S    
O39   Zn11  S    
C62   H95   S    
C126  C143  S    
C63   H105  S    
C61   H100  S    
C121  C149  S    
C74   H5    S    
C61   C62   S    
C120  C163  S    
C140  C158  S    
C70   H121  S    
C37   H67   S    
C77   H7    S    
O34   Zn15  S    
C8    H38   S    
O16   Zn6   S    
C112  O43   A    
C157  C174  S    
C54   C114  S    
C106  O25   A    
O32   Zn13  S    
C143  H34   S    
C73   H125  S    
C108  C163  S    
C155  C166  S    
C11   H42   S    
C55   H80   S    
C95   O14   A    
C54   C55   S    
C85   C129  S    
C11   C29   A    
O12   Zn13  S    
C139  H118  S    
C105  O46   A    
C39   H69   S    
O19   Zn7   S    
C107  O48   A    
O50   Zn2   S    
C155  O8    A    
O17   Zn5   S    
C81   H21   S    
C86   H31   S    
C65   C119  S    
C79   N2    A    
C114  C157  S    
C111  O51   A    
C97   O38   A    
C83   C128  S    
Br2   C175  S    
C56   C58   S    
Br5   C4    S    
C33   H64   S    
C70   C71   S    
C80   H15   S    
C82   H20   S    
C4    C136  S    
C26   C43   A    
C40   H70   S    
Br9   C167  S    
C63   H104  S    
C7    C129  S    
C64   H103  S    
O49   Zn7   S    
C102  O33   A    
C26   H56   S    
C59   H93   S    
C109  C164  S    
C78   H16   S    
C130  H1    S    
C99   O31   A    
C7    C164  S    
C110  C157  S    
Br16  C174  S    
C126  C153  S    
C28   H58   S    
C5    C162  S    
C67   C69   S    
C83   H27   S    
C113  C158  S    
C91   N13   A    
O12   Zn3   S    
C32   H62   S    
C111  O4    A    
O11   Zn13  S    
C62   H97   S    
C71   H120  S    
C9    H39   S    
C102  O20   A    
C118  C171  S    
C98   O39   A    
O42   Zn7   S    
C97   O16   A    
O1    Zn1   S    
C156  C173  S    
C17   C35   A    
C128  C156  S    
C18   C36   A    
C35   C111  S    
C136  C153  S    
C22   H53   S    
C74   C75   S    
C16   H46   S    
C134  C151  S    
C76   C77   S    
C100  O3    A    
C112  O30   A    
C125  C142  S    
C69   H112  S    
O46   Zn2   S    
C145  C162  S    
O12   Zn7   S    
C142  C168  S    
C146  C173  S    
C40   C49   A    
C86   H29   S    
C84   H23   S    
C33   C47   A    
C30   C43   A    
C34   C48   A    
C60   H91   S    
C94   N10   A    
C75   H4    S    
C65   H110  S    
C53   H76   S    
C109  O41   A    
C65   C66   S    
C8    C26   A    
C82   H18   S    
C155  O13   A    
C31   H61   S    
C21   C35   A    
C105  C160  S    
C143  C171  S    
C135  C152  S    
C23   C41   A    
O35   Zn15  S    
Br14  C172  S    
N3    N8    A    
C75   H128  S    
O1    Zn8   S    
O2    Zn3   S    
C81   C127  S    
C31   C44   A    
Br4   C3    S    
O1    Zn12  S    
C90   N7    A    
C108  O40   A    
C122  O5    A    
C2    C14   A    
C107  O26   A    
C139  C157  S    
C23   C57   A    
C15   H45   S    
Br12  C170  S    
C25   H55   S    
C120  C138  S    
C61   C117  S    
C50   C90   S    
N11   N14   A    
O20   Zn2   S    
C51   C88   S    
C70   H122  S    
O45   Zn8   S    
C58   H87   S    
C144  O11   A    
C8    C166  A    
C4    C126  S    
C14   C31   A    
C100  O50   A    
C5    C127  S    
C38   C51   A    
C10   H40   S    
C29   C47   A    
C72   C123  S    
C46   C100  S    
C17   H47   S    
C124  C141  S    
O27   Zn15  S    
C80   H14   S    
C83   C84   S    
C67   H115  S    
O52   Zn4   S    
O25   Zn13  S    
C39   C48   A    
C137  H96   S    
C113  C130  S    
C138  C156  S    
C115  C132  S    
C95   C150  S    
C37   C50   A    
C76   H11   S    
C30   H60   S    
C146  C163  S    
O10   Zn10  S    
O13   Zn12  S    
C117  C170  S    
C141  C159  S    
C79   N6    A    
C131  H41   S    
C142  C160  S    
O44   Zn16  S    
O4    Zn5   S    
C133  O10   A    
C116  C134  S    
C124  C176  S    
N9    N12   A    
O24   Zn10  S    
C119  C172  S    
C69   H113  S    
C6    C138  S    
C106  O47   A    
C113  C165  S    
C19   C57   A    
C54   H83   S    
C128  C146  S    
Br11  C169  S    
C144  O7    A    
C89   O2    A    
O5    Zn15  S    
C147  H37   S    
C138  H107  S    
C61   H99   S    
C140  C165  S    
C95   O36   A    
C74   H6    S    
C34   H65   S    
C77   H9    S    
C43   C92   S    
C119  C137  S    
C15   C32   A    
O34   Zn16  S    
C13   C15   A    
C1    O52   A    
C32   C45   A    
C123  C140  S    
C20   C68   A    
C58   H84   S    
C91   N9    A    
C16   C24   A    
C52   C113  S    
C73   H124  S    
C127  C152  S    
C12   H43   S    
C134  C176  S    
C63   C64   S    
C78   H17   S    
C55   H79   S    
C147  C164  S    
C133  O6    A    
O29   Zn9   S    
C141  H13   S    
C145  H35   S    
