data_mof_unit_38440.cif
_audit_creation_date              2012-12-11T16:15:17-0500
_audit_creation_method            fapswitch 2.2
_symmetry_space_group_name_H-M    P1
_symmetry_Int_Tables_number       1
_space_group_crystal_system       triclinic
_cell_length_a                    7.207687
_cell_length_b                    23.400865
_cell_length_c                    25.668027
_cell_angle_alpha                 89.991516
_cell_angle_beta                  90.030013
_cell_angle_gamma                 89.973186
_cell_volume                      4329.32516131

loop_
_atom_site_label
_atom_site_type_symbol
_atom_type_description
_atom_site_fract_x
_atom_site_fract_y
_atom_site_fract_z
_atom_type_partial_charge
O1    O     O_R   0.694650 0.802620 0.195790 -0.540072
O2    O     O_R   0.305350 0.197380 0.804210 -0.540067
O3    O     O_R   0.305350 0.197380 0.695790 -0.540012
O4    O     O_R   0.694650 0.802620 0.304210 -0.540074
O5    O     O_R   0.194650 0.697380 0.304210 -0.540053
O6    O     O_R   0.805350 0.302620 0.695790 -0.540714
O7    O     O_R   0.805350 0.302620 0.804210 -0.539864
O8    O     O_R   0.194650 0.697380 0.195790 -0.540060
O9    O     O_R   0.364900 0.809540 0.303840 -0.543810
O10   O     O_R   0.635100 0.190460 0.696160 -0.544187
O11   O     O_R   0.635100 0.190460 0.803840 -0.543771
O12   O     O_R   0.364900 0.809540 0.196160 -0.543824
O13   O     O_R   0.864900 0.690460 0.196160 -0.543818
O14   O     O_R   0.135100 0.309540 0.803840 -0.543855
O15   O     O_R   0.135100 0.309540 0.696160 -0.542660
O16   O     O_R   0.864900 0.690460 0.303840 -0.543688
C1    C     C_R   0.533674 0.823331 0.320931 0.693537
C2    C     C_R   0.466335 0.176709 0.679037 0.692746
C3    C     C_R   0.466376 0.176680 0.820940 0.693785
C4    C     C_R   0.533623 0.823319 0.179060 0.693605
C5    C     C_R   0.033664 0.676681 0.179060 0.693522
C6    C     C_R   0.966336 0.323321 0.820938 0.693969
C7    C     C_R   0.966273 0.323173 0.678989 0.692454
C8    C     C_R   0.033743 0.676693 0.320960 0.693553
H1    H     H_    0.795479 0.514964 0.509070 0.135351
H2    H     H_    0.202287 0.483077 0.490872 0.139052
H3    H     H_    0.198609 0.480778 0.011707 0.140667
H4    H     H_    0.801393 0.519237 0.988279 0.140688
H5    H     H_    0.301552 0.980722 0.988214 0.140662
H6    H     H_    0.698448 0.019279 0.011786 0.140653
H7    H     H_    0.698548 0.019404 0.488137 0.140633
H8    H     H_    0.301425 0.981013 0.511513 0.140683
H9    H     H_    0.208161 0.473455 0.582824 0.123553
H10   H     H_    0.780737 0.531538 0.421408 0.112812
H11   H     H_    0.779263 0.532007 0.078088 0.115797
H12   H     H_    0.220735 0.468006 0.921897 0.115824
H13   H     H_    0.720868 0.031944 0.921933 0.115851
H14   H     H_    0.279133 0.968056 0.078068 0.115839
H15   H     H_    0.279153 0.968128 0.421738 0.115818
H16   H     H_    0.720883 0.032179 0.577925 0.115876
H17   H     H_    0.683482 0.340843 0.612414 0.139505
H18   H     H_    0.330462 0.650770 0.381891 0.128120
H19   H     H_    0.330930 0.650067 0.118666 0.128138
H20   H     H_    0.669070 0.349939 0.881331 0.128116
H21   H     H_    0.169090 0.150102 0.881298 0.128155
H22   H     H_    0.830910 0.849899 0.118703 0.128169
H23   H     H_    0.831050 0.850009 0.381318 0.128129
H24   H     H_    0.169025 0.150225 0.618563 0.127929
O17   O     O_3   0.528130 0.713200 0.250000 -0.378200
O18   O     O_3   0.471870 0.286800 0.750000 -0.377691
O19   O     O_3   0.028130 0.786800 0.250000 -0.378236
O20   O     O_3   0.971870 0.213200 0.750000 -0.378306
V1    V     V_3+5 0.253280 0.756820 0.250000 1.394884
V2    V     V_3+5 0.746720 0.243180 0.750000 1.394219
V3    V     V_3+5 0.753280 0.743180 0.250000 1.394903
V4    V     V_3+5 0.246720 0.256820 0.750000 1.395298
C9    C     C_R   0.044369 0.633199 0.363018 -0.067419
C10   C     C_R   0.955617 0.366202 0.636636 -0.085916
C11   C     C_R   0.955966 0.366867 0.862928 -0.067271
C12   C     C_R   0.044033 0.633139 0.137066 -0.067183
C13   C     C_R   0.543946 0.866864 0.137070 -0.067164
C14   C     C_R   0.456054 0.133136 0.862931 -0.067210
C15   C     C_R   0.455978 0.133234 0.636990 -0.067488
C16   C     C_R   0.544047 0.866914 0.362889 -0.067206
C17   C     C_R   0.889966 0.599390 0.375347 -0.188982
C18   C     C_R   0.103393 0.403745 0.627593 -0.192298
C19   C     C_R   0.111013 0.400331 0.875517 -0.188147
C20   C     C_R   0.888984 0.599678 0.124472 -0.188141
C21   C     C_R   0.388866 0.900351 0.124465 -0.188198
C22   C     C_R   0.611134 0.099650 0.875535 -0.188154
C23   C     C_R   0.611092 0.099790 0.624369 -0.188654
C24   C     C_R   0.388939 0.900395 0.375437 -0.188098
C25   C     C_R   0.900848 0.558172 0.414481 -0.173420
C26   C     C_R   0.092909 0.444331 0.587965 -0.148811
C27   C     C_R   0.100298 0.441615 0.914581 -0.176356
C28   C     C_R   0.899699 0.558397 0.085406 -0.176476
C29   C     C_R   0.399596 0.941647 0.085408 -0.176430
C30   C     C_R   0.600405 0.058353 0.914593 -0.176404
C31   C     C_R   0.600391 0.058564 0.585256 -0.176464
C32   C     C_R   0.399648 0.941728 0.414457 -0.176486
C33   C     C_R   0.065156 0.550206 0.443230 0.152731
C34   C     C_R   0.934766 0.448293 0.556085 0.108088
C35   C     C_R   0.935521 0.450010 0.942877 0.152617
C36   C     C_R   0.064478 0.550004 0.057110 0.152646
C37   C     C_R   0.564424 0.950026 0.057141 0.152634
C38   C     C_R   0.435576 0.049974 0.942859 0.152620
C39   C     C_R   0.435554 0.050209 0.556941 0.152566
C40   C     C_R   0.564483 0.950155 0.442755 0.152678
C41   C     C_R   0.222923 0.583845 0.430903 0.169591
C42   C     C_R   0.783459 0.410657 0.564502 0.165175
C43   C     C_R   0.777289 0.416708 0.930393 0.170923
C44   C     C_R   0.222711 0.583304 0.069598 0.170902
C45   C     C_R   0.722682 0.916701 0.069639 0.170843
C46   C     C_R   0.277318 0.083299 0.930361 0.170859
C47   C     C_R   0.277277 0.083510 0.569441 0.170972
C48   C     C_R   0.722780 0.916837 0.430311 0.170948
C49   C     C_R   0.210261 0.624797 0.390880 -0.202520
C50   C     C_R   0.796383 0.370080 0.605117 -0.161202
C51   C     C_R   0.789719 0.375657 0.890481 -0.202784
C52   C     C_R   0.210281 0.624351 0.109513 -0.202923
C53   C     C_R   0.710235 0.875637 0.109541 -0.202884
C54   C     C_R   0.289765 0.124363 0.890459 -0.202890
C55   C     C_R   0.289703 0.124506 0.609400 -0.203171
C56   C     C_R   0.710352 0.875737 0.390440 -0.202907
C57   C     C_2   0.072697 0.505607 0.484560 -0.193912
C58   C     C_2   0.926242 0.492870 0.514904 -0.226938
C59   C     C_2   0.928279 0.494802 0.983890 -0.207248
C60   C     C_2   0.071723 0.505213 0.016096 -0.207337
C61   C     C_2   0.571665 0.994818 0.016132 -0.207309
C62   C     C_2   0.428335 0.005183 0.983869 -0.207266
C63   C     C_2   0.428279 0.005433 0.515912 -0.207221
C64   C     C_2   0.571693 0.994985 0.483735 -0.207411
H25   H     H_    0.760843 0.604041 0.354164 0.132452
H26   H     H_    0.226877 0.402292 0.651621 0.135558
H27   H     H_    0.240498 0.395345 0.854616 0.132445
H28   H     H_    0.759497 0.604663 0.145373 0.132427
H29   H     H_    0.259356 0.895373 0.145350 0.132413
H30   H     H_    0.740644 0.104627 0.854650 0.132443
H31   H     H_    0.740619 0.104742 0.645288 0.132574
H32   H     H_    0.259405 0.895386 0.354532 0.132466
C65   C     C_3   0.405766 0.577647 0.459620 -0.395643
C66   C     C_3   0.395031 0.601736 0.514820 -0.744849
H33   H     H_    0.354322 0.647509 0.513620 0.232551
H34   H     H_    0.293433 0.577810 0.538811 0.228759
H35   H     H_    0.533234 0.598233 0.533699 0.214052
H36   H     H_    0.449770 0.532207 0.460587 0.159629
H37   H     H_    0.517395 0.601107 0.438810 0.183235
C67   C     C_3   0.612270 0.414625 0.529658 -0.386691
C68   C     C_3   0.476750 0.364461 0.532959 -0.767965
H38   H     H_    0.549102 0.323650 0.524231 0.228744
H39   H     H_    0.412108 0.362252 0.572073 0.229241
H40   H     H_    0.364120 0.370520 0.503928 0.224566
H41   H     H_    0.536255 0.454646 0.539022 0.172564
H42   H     H_    0.658124 0.417262 0.488378 0.187464
C69   C     C_3   0.594383 0.423369 0.958903 -0.396929
C70   C     C_3   0.604319 0.399703 0.014278 -0.747169
H43   H     H_    0.645563 0.353967 0.013463 0.233162
H44   H     H_    0.705104 0.423941 0.038301 0.229855
H45   H     H_    0.465731 0.403194 0.032889 0.211816
H46   H     H_    0.551265 0.468893 0.959540 0.169945
H47   H     H_    0.482683 0.399870 0.938150 0.182553
C71   C     C_3   0.405617 0.576645 0.041088 -0.397050
C72   C     C_3   0.395683 0.600314 0.985713 -0.746886
H48   H     H_    0.294899 0.576077 0.961689 0.229866
H49   H     H_    0.354436 0.646050 0.986530 0.233174
H50   H     H_    0.534271 0.596826 0.967103 0.211833
H51   H     H_    0.517317 0.600143 0.061841 0.182567
H52   H     H_    0.448737 0.531122 0.040448 0.169928
C73   C     C_3   0.905621 0.923347 0.041151 -0.396943
C74   C     C_3   0.895820 0.899687 0.985779 -0.746905
H53   H     H_    0.854679 0.853953 0.986599 0.233162
H54   H     H_    0.795011 0.923935 0.961741 0.229868
H55   H     H_    0.034425 0.903169 0.967183 0.211804
H56   H     H_    0.948646 0.968868 0.040507 0.169924
H57   H     H_    0.017338 0.899838 0.061922 0.182551
C75   C     C_3   0.094379 0.076653 0.958850 -0.396876
C76   C     C_3   0.104180 0.100314 0.014221 -0.747063
H58   H     H_    0.204989 0.076066 0.038260 0.229866
H59   H     H_    0.145321 0.146048 0.013401 0.233142
H60   H     H_    0.965575 0.096832 0.032817 0.211796
H61   H     H_    0.982662 0.100163 0.938078 0.182540
H62   H     H_    0.051354 0.031133 0.959493 0.169929
C77   C     C_3   0.094324 0.076906 0.540900 -0.396919
C78   C     C_3   0.104116 0.100640 0.485552 -0.747651
H63   H     H_    0.145267 0.146372 0.486422 0.232965
H64   H     H_    0.204916 0.076421 0.461522 0.229978
H65   H     H_    0.965504 0.097185 0.466916 0.211897
H66   H     H_    0.051286 0.031388 0.540210 0.169995
H67   H     H_    0.982617 0.100390 0.561662 0.182373
C79   C     C_3   0.905757 0.923532 0.458822 -0.397077
C80   C     C_3   0.896080 0.899924 0.514217 -0.746876
H68   H     H_    0.795277 0.924180 0.538214 0.229849
H69   H     H_    0.855004 0.854184 0.513440 0.233228
H70   H     H_    0.034711 0.903442 0.532832 0.211840
H71   H     H_    0.017468 0.900015 0.438094 0.182577
H72   H     H_    0.948729 0.969058 0.459420 0.169890

loop_
_geom_bond_atom_site_label_1
_geom_bond_atom_site_label_2
_ccdc_geom_bond_type
C7    C10   S    
O14   V4    S    
C80   H68   S    
C40   C48   A    
C76   H58   S    
H8    C63   S    
C14   C54   A    
C72   H50   S    
C11   C51   A    
C21   C29   A    
C63   C64   D    
C10   C50   A    
C16   C24   A    
C67   C68   S    
C28   C36   A    
C31   C39   A    
C19   C27   A    
C69   C70   S    
C79   H72   S    
C68   H39   S    
C80   H69   S    
O11   C3    A    
O5    V1    S    
C78   H63   S    
C38   C62   S    
C26   C34   A    
C65   H37   S    
C67   H42   S    
C1    C16   S    
H20   C51   S    
C2    C15   S    
C39   C63   S    
C79   C80   S    
C3    C14   S    
C13   C21   A    
C72   H48   S    
C18   C26   A    
C17   C25   A    
C14   C22   A    
O3    C2    A    
C72   H49   S    
C4    C13   S    
C19   H27   S    
C38   C46   A    
C11   C19   A    
C37   C45   A    
C10   C18   A    
C77   C78   S    
C47   C55   A    
C8    C9    S    
C74   H55   S    
C39   C47   A    
H7    C64   S    
C44   C71   S    
O12   V1    S    
C46   C75   S    
C68   H40   S    
C33   C41   A    
C30   C38   A    
O15   C7    A    
C29   C37   A    
C76   H59   S    
C48   C79   S    
C32   C40   A    
O12   C4    A    
O6    V2    S    
C70   H45   S    
O10   V2    S    
H2    C57   S    
C25   C33   A    
C80   H70   S    
O20   V2    S    
H1    C58   S    
O8    C5    A    
C79   H71   S    
C69   H46   S    
O10   C2    A    
H22   C53   S    
C33   C57   S    
H11   C28   S    
H6    C61   S    
C71   H52   S    
H5    C62   S    
H19   C52   S    
C5    C12   S    
C70   H44   S    
H18   C49   S    
C45   C53   A    
C6    C11   S    
O17   V3    S    
H24   C55   S    
O18   V4    S    
C23   C31   A    
C41   C49   A    
O19   V1    S    
C13   C53   A    
C73   H56   S    
H12   C27   S    
C47   C77   S    
O3    V4    S    
C59   C60   D    
C9    C49   A    
C24   H32   S    
C45   C73   S    
H16   C31   S    
O13   C5    A    
C12   C20   A    
C65   C66   S    
O11   V2    S    
C20   H28   S    
O4    C1    A    
C15   C55   A    
C15   C23   A    
C75   H61   S    
C76   H60   S    
C48   C56   A    
O4    V3    S    
H4    C59   S    
C74   H54   S    
O9    V1    S    
C66   H34   S    
C44   C52   A    
C68   H38   S    
H13   C30   S    
C22   C30   A    
O9    C1    A    
C16   C56   A    
C75   C76   S    
O1    C4    A    
H23   C56   S    
C18   H26   S    
O2    C3    A    
C71   C72   S    
C17   H25   S    
C71   H51   S    
C78   H65   S    
C9    C17   A    
C70   H43   S    
C12   C52   A    
O8    V1    S    
H14   C29   S    
C20   C28   A    
O7    C6    A    
C35   C43   A    
C57   C58   D    
C37   C61   S    
C34   C42   A    
C23   H31   S    
H15   C32   S    
O14   C6    A    
C66   H35   S    
C78   H64   S    
C77   H66   S    
O1    V3    S    
O16   V3    S    
C65   H36   S    
C24   C32   A    
O2    V4    S    
C73   C74   S    
O15   V4    S    
C27   C35   A    
O5    C8    A    
C41   C65   S    
H3    C60   S    
C22   H30   S    
O6    C7    A    
C21   H29   S    
C36   C60   S    
C35   C59   S    
C34   C58   S    
C73   H57   S    
C77   H67   S    
H21   C54   S    
H10   C25   S    
C75   H62   S    
C40   C64   S    
H9    C26   S    
C69   H47   S    
C43   C69   S    
C46   C54   A    
O16   C8    A    
C61   C62   D    
C42   C67   S    
H17   C50   S    
C36   C44   A    
O7    V2    S    
C43   C51   A    
C66   H33   S    
C67   H41   S    
C42   C50   A    
C74   H53   S    
O13   V3    S    
