data_mof_unit_53285.cif
_audit_creation_date              2012-12-11T14:04:24-0500
_audit_creation_method            fapswitch 2.2
_symmetry_space_group_name_H-M    P1
_symmetry_Int_Tables_number       1
_space_group_crystal_system       triclinic
_cell_length_a                    19.118702
_cell_length_b                    11.051077
_cell_length_c                    18.944961
_cell_angle_alpha                 89.976387
_cell_angle_beta                  90.318122
_cell_angle_gamma                 90.251418
_cell_volume                      4002.63341278

loop_
_atom_site_label
_atom_site_type_symbol
_atom_type_description
_atom_site_fract_x
_atom_site_fract_y
_atom_site_fract_z
_atom_type_partial_charge
C1    C     C_R   0.240008 0.467069 0.646839 0.537822
C2    C     C_R   0.775931 0.522078 0.360291 0.562173
C3    C     C_R   0.740007 0.967071 0.646839 0.538341
C4    C     C_R   0.275930 0.022075 0.360291 0.562441
C5    C     C_2   0.287388 0.856708 0.534730 0.105827
C6    C     C_2   0.712184 0.828596 0.465560 0.107836
C7    C     C_2   0.787398 0.356722 0.534735 0.105645
C8    C     C_2   0.212185 0.328593 0.465560 0.108203
C9    C     C_R   0.956191 0.650798 0.438330 -0.045037
C10   C     C_R   0.038563 0.655995 0.562127 -0.038189
C11   C     C_R   0.456187 0.150797 0.438330 -0.044963
C12   C     C_R   0.538559 0.155994 0.562127 -0.038188
C13   C     C_R   0.929500 0.862999 0.458529 -0.082961
C14   C     C_R   0.036732 0.880063 0.555153 -0.087985
C15   C     C_R   0.429496 0.362997 0.458529 -0.083005
C16   C     C_R   0.536728 0.380063 0.555154 -0.087862
C17   C     C_R   0.944439 0.974118 0.489136 -0.127477
C18   C     C_R   0.000638 0.983337 0.535396 -0.128948
C19   C     C_R   0.444435 0.474117 0.489135 -0.127486
C20   C     C_R   0.500634 0.483337 0.535396 -0.128878
C21   C     C_R   0.015836 0.765140 0.530827 0.013304
C22   C     C_R   0.968354 0.760120 0.474165 0.009824
C23   C     C_R   0.515832 0.265139 0.530828 0.013422
C24   C     C_R   0.468349 0.260119 0.474166 0.009913
C25   C     C_R   0.023858 0.545286 0.527219 0.015808
C26   C     C_R   0.975827 0.541580 0.471396 0.020630
C27   C     C_R   0.523853 0.045284 0.527220 0.015910
C28   C     C_R   0.475822 0.041580 0.471397 0.020701
C29   C     C_R   0.055338 0.436392 0.547854 -0.085016
C30   C     C_R   0.950083 0.427481 0.449239 -0.075066
C31   C     C_R   0.555332 0.936391 0.547855 -0.084938
C32   C     C_R   0.450078 0.927481 0.449240 -0.075090
C33   C     C_R   0.032438 0.325803 0.522901 -0.144596
C34   C     C_R   0.978398 0.321209 0.474264 -0.138832
C35   C     C_R   0.532432 0.825802 0.522902 -0.144555
C36   C     C_R   0.478392 0.821209 0.474265 -0.138855
C37   C     C_2   0.259146 0.925204 0.916169 0.274445
C38   C     C_2   0.740722 0.928796 0.085073 0.283256
C39   C     C_2   0.759003 0.426880 0.915793 0.274242
C40   C     C_2   0.240868 0.425654 0.083978 0.274920
C41   C     C_2   0.249243 0.928197 0.076937 0.321273
C42   C     C_2   0.749662 0.929513 0.923767 0.319198
C43   C     C_2   0.750472 0.430222 0.076581 0.320006
C44   C     C_2   0.250442 0.428324 0.923187 0.322220
C45   C     C_R   0.227182 0.874808 0.648436 0.539532
C46   C     C_R   0.772214 0.873349 0.352455 0.529045
C47   C     C_R   0.727183 0.374810 0.648437 0.540012
C48   C     C_R   0.272213 0.373351 0.352453 0.527924
C49   C     C_2   0.238198 0.017781 0.029805 -0.069337
C50   C     C_2   0.762400 0.019122 0.970493 -0.081467
C51   C     C_2   0.736448 0.519102 0.029605 -0.088333
C52   C     C_2   0.262023 0.518001 0.970214 -0.068343
C53   C     C_2   0.218971 0.994203 0.956813 -0.087310
C54   C     C_2   0.781660 0.995649 0.043522 -0.080977
C55   C     C_2   0.718132 0.494838 0.956429 -0.102515
C56   C     C_2   0.281362 0.494455 0.043166 -0.087194
C57   C     C_2   0.001248 0.659684 0.920955 -0.121586
C58   C     C_2   0.999924 0.660438 0.079548 -0.121889
C59   C     C_2   0.500078 0.159629 0.920389 -0.127110
C60   C     C_2   0.497442 0.160482 0.078450 -0.124622
C61   C     C_2   0.989422 0.566975 0.036153 -0.168418
C62   C     C_2   0.013460 0.567372 0.964663 -0.167422
C63   C     C_2   0.487006 0.066416 0.035472 -0.167477
C64   C     C_2   0.510750 0.066420 0.963872 -0.173064
C65   C     C_R   0.060335 0.650948 0.637500 0.538033
C66   C     C_R   0.937897 0.649478 0.362032 0.521385
C67   C     C_R   0.560333 0.150948 0.637499 0.538132
C68   C     C_R   0.437895 0.149477 0.362032 0.522219
C69   C     C_R   0.239174 0.467056 0.850691 0.533689
C70   C     C_R   0.760955 0.467646 0.149080 0.558979
C71   C     C_R   0.739011 0.967411 0.850954 0.536454
C72   C     C_R   0.260739 0.967206 0.149363 0.539072
C73   C     C_R   0.228965 0.874805 0.851553 0.542696
C74   C     C_R   0.771093 0.875406 0.148642 0.548732
C75   C     C_R   0.728963 0.375077 0.851462 0.539989
C76   C     C_R   0.271008 0.375022 0.148489 0.543687
C77   C     C_R   0.030430 0.652158 0.850975 0.555735
C78   C     C_R   0.969761 0.652451 0.149132 0.555727
C79   C     C_R   0.530232 0.152152 0.850838 0.554362
C80   C     C_R   0.469125 0.152397 0.148754 0.558676
C81   C     C_2   0.248968 0.922098 0.580633 -0.080201
C82   C     C_2   0.749035 0.907398 0.423587 -0.082533
C83   C     C_2   0.748972 0.422106 0.580637 -0.080186
C84   C     C_2   0.249035 0.407398 0.423587 -0.083040
C85   C     C_2   0.274344 0.996812 0.435193 -0.134777
C86   C     C_2   0.756721 0.912989 0.578499 -0.146219
C87   C     C_2   0.774347 0.496820 0.435195 -0.135034
C88   C     C_2   0.256721 0.412987 0.578500 -0.146331
C89   C     C_2   0.282943 0.884244 0.459342 -0.135646
C90   C     C_2   0.712067 0.841954 0.543538 -0.177209
C91   C     C_2   0.782953 0.384256 0.459347 -0.135204
C92   C     C_2   0.212069 0.341950 0.543538 -0.177268
Cr1   Cr    Cr6+3 0.113970 0.508630 0.747920 1.003264
Cr2   Cr    Cr6+3 0.886030 0.508630 0.252080 1.004356
Cr3   Cr    Cr6+3 0.613970 0.008630 0.747920 1.003426
Cr4   Cr    Cr6+3 0.386030 0.008630 0.252080 0.999986
Cr5   Cr    Cr6+3 0.269200 0.666740 0.749850 0.985013
Cr6   Cr    Cr6+3 0.730800 0.666740 0.250150 0.994092
Cr7   Cr    Cr6+3 0.769200 0.166740 0.749850 0.985353
Cr8   Cr    Cr6+3 0.230800 0.166740 0.250150 0.988753
Cr9   Cr    Cr6+3 0.112300 0.820070 0.749800 1.008054
Cr10  Cr    Cr6+3 0.887700 0.820070 0.250200 1.016635
Cr11  Cr    Cr6+3 0.612300 0.320070 0.749800 1.005645
Cr12  Cr    Cr6+3 0.387700 0.320070 0.250200 1.016253
H1    H     H_    0.289390 0.809626 0.422566 0.154075
H2    H     H_    0.672963 0.792730 0.573263 0.123030
H3    H     H_    0.789405 0.309636 0.422574 0.155263
H4    H     H_    0.172966 0.292725 0.573264 0.122903
H5    H     H_    0.170888 0.034071 0.936966 0.121631
H6    H     H_    0.831326 0.031825 0.062221 0.124295
H7    H     H_    0.669560 0.532865 0.936560 0.122370
H8    H     H_    0.329863 0.533868 0.062763 0.120561
H9    H     H_    0.964579 0.483712 0.053772 0.169335
H10   H     H_    0.038887 0.485043 0.947024 0.169533
H11   H     H_    0.463448 0.982519 0.053827 0.169586
H12   H     H_    0.535699 0.983621 0.946295 0.170539
H13   H     H_    0.024071 0.744104 0.061605 0.107047
H14   H     H_    0.976353 0.742345 0.938800 0.103926
H15   H     H_    0.520199 0.244749 0.059820 0.095149
H16   H     H_    0.475797 0.242862 0.938192 0.105356
H17   H     H_    0.274139 0.073466 0.470670 0.086685
H18   H     H_    0.803198 0.947323 0.552644 0.111230
H19   H     H_    0.774137 0.573476 0.470670 0.086557
H20   H     H_    0.303198 0.447323 0.552644 0.111339
H21   H     H_    0.220288 0.001020 0.562776 0.063909
H22   H     H_    0.772709 0.988521 0.445431 0.058712
H23   H     H_    0.720290 0.501025 0.562778 0.064010
H24   H     H_    0.272707 0.488522 0.445430 0.058274
H25   H     H_    0.911957 0.051258 0.477268 0.114211
H26   H     H_    0.014718 0.068174 0.559021 0.091252
H27   H     H_    0.411954 0.551256 0.477265 0.114052
H28   H     H_    0.514714 0.568173 0.559021 0.091255
H29   H     H_    0.883729 0.852406 0.428315 0.144198
H30   H     H_    0.080670 0.891551 0.589072 0.168635
H31   H     H_    0.383725 0.352402 0.428315 0.144394
H32   H     H_    0.580665 0.391552 0.589073 0.168660
H33   H     H_    0.908851 0.418049 0.411490 0.165352
H34   H     H_    0.097459 0.436693 0.584309 0.164600
H35   H     H_    0.408846 0.918050 0.411490 0.165393
H36   H     H_    0.597454 0.936690 0.584309 0.164550
H37   H     H_    0.057626 0.244582 0.540882 0.098130
H38   H     H_    0.959344 0.235703 0.454378 0.111866
H39   H     H_    0.557620 0.744581 0.540883 0.098157
H40   H     H_    0.459339 0.735703 0.454377 0.111711
H41   H     H_    0.237540 0.111948 0.046534 0.153577
H42   H     H_    0.765157 0.112886 0.953171 0.150562
H43   H     H_    0.732886 0.612819 0.046704 0.157662
H44   H     H_    0.263084 0.612145 0.953404 0.155105
O1    O     O_R   0.043230 0.549300 0.667990 -0.524152
O2    O     O_R   0.956770 0.549300 0.332010 -0.528982
O3    O     O_R   0.543230 0.049300 0.667990 -0.524091
O4    O     O_R   0.456770 0.049300 0.332010 -0.528342
O5    O     O_R   0.262920 0.788600 0.824420 -0.497996
O6    O     O_R   0.737080 0.788600 0.175580 -0.497029
O7    O     O_R   0.762920 0.288600 0.824420 -0.497662
O8    O     O_R   0.237080 0.288600 0.175580 -0.500715
O9    O     O_R   0.167530 0.905110 0.830340 -0.536960
O10   O     O_R   0.832470 0.905110 0.169660 -0.535051
O11   O     O_R   0.667530 0.405110 0.830340 -0.538822
O12   O     O_R   0.332470 0.405110 0.169660 -0.535593
O13   O     O_R   0.054010 0.748440 0.822860 -0.484795
O14   O     O_R   0.945990 0.748440 0.177140 -0.485243
O15   O     O_R   0.554010 0.248440 0.822860 -0.487104
O16   O     O_R   0.445990 0.248440 0.177140 -0.483675
O17   O     O_3   0.165160 0.665150 0.749190 -0.264744
O18   O     O_3   0.834840 0.665150 0.250810 -0.293817
O19   O     O_3   0.665160 0.165150 0.749190 -0.265229
O20   O     O_3   0.334840 0.165150 0.250810 -0.290814
O21   O     O_R   0.178620 0.457600 0.674100 -0.528878
O22   O     O_R   0.821380 0.457600 0.325900 -0.535925
O23   O     O_R   0.678620 0.957600 0.674100 -0.528643
O24   O     O_R   0.321380 0.957600 0.325900 -0.537496
O25   O     O_R   0.284680 0.542100 0.669460 -0.530647
O26   O     O_R   0.715320 0.542100 0.330540 -0.488256
O27   O     O_R   0.784680 0.042100 0.669460 -0.530413
O28   O     O_R   0.215320 0.042100 0.330540 -0.489347
O29   O     O_R   0.262860 0.790390 0.676650 -0.500445
O30   O     O_R   0.737140 0.790390 0.323350 -0.499273
O31   O     O_R   0.762860 0.290390 0.676650 -0.500290
O32   O     O_R   0.237140 0.290390 0.323350 -0.498494
O33   O     O_R   0.167460 0.907030 0.670940 -0.555849
O34   O     O_R   0.832540 0.907030 0.329060 -0.542382
O35   O     O_R   0.667460 0.407030 0.670940 -0.555254
O36   O     O_R   0.332540 0.407030 0.329060 -0.543715
O37   O     O_R   0.053950 0.750220 0.675100 -0.501712
O38   O     O_R   0.946050 0.750220 0.324900 -0.485488
O39   O     O_R   0.553950 0.250220 0.675100 -0.501421
O40   O     O_R   0.446050 0.250220 0.324900 -0.484718
O41   O     O_R   0.043300 0.547370 0.827390 -0.521241
O42   O     O_R   0.956700 0.547370 0.172610 -0.520106
O43   O     O_R   0.543300 0.047370 0.827390 -0.520021
O44   O     O_R   0.456700 0.047370 0.172610 -0.521046
O45   O     O_R   0.178690 0.455820 0.821860 -0.490000
O46   O     O_R   0.821310 0.455820 0.178140 -0.480187
O47   O     O_R   0.678690 0.955820 0.821860 -0.489011
O48   O     O_R   0.321310 0.955820 0.178140 -0.485893
O49   O     O_R   0.284750 0.540170 0.828860 -0.545620
O50   O     O_R   0.715250 0.540170 0.171140 -0.545602
O51   O     O_R   0.784750 0.040170 0.828860 -0.544900
O52   O     O_R   0.215250 0.040170 0.171140 -0.544817
O53   O     O_3   0.243227 0.807350 0.057541 -0.548364
C93   C     C_3   0.198589 0.745685 0.104597 -0.139036
H45   H     H_    0.151849 0.799962 0.119317 0.107556
H46   H     H_    0.227991 0.717291 0.152537 0.124795
H47   H     H_    0.178364 0.663855 0.077687 0.144243
O54   O     O_3   0.753222 0.808852 0.943661 -0.548975
C94   C     C_3   0.802278 0.748268 0.901143 -0.141367
H48   H     H_    0.849493 0.804294 0.889432 0.103931
H49   H     H_    0.777096 0.716981 0.851356 0.121463
H50   H     H_    0.821318 0.668411 0.930581 0.147501
O55   O     O_3   0.748328 0.308926 0.058582 -0.544245
C95   C     C_3   0.679805 0.266004 0.070458 -0.138040
H51   H     H_    0.639417 0.324924 0.045622 0.108705
H52   H     H_    0.669817 0.256179 0.127956 0.116010
H53   H     H_    0.674040 0.176021 0.045602 0.147007
O56   O     O_3   0.256048 0.307544 0.942646 -0.548637
C96   C     C_3   0.301517 0.246781 0.896332 -0.141387
H54   H     H_    0.348375 0.301991 0.882239 0.106331
H55   H     H_    0.272882 0.217706 0.847987 0.121148
H56   H     H_    0.321519 0.165445 0.923626 0.144007
O57   O     O_3   0.321109 0.878441 0.943847 -0.535826
C97   C     C_3   0.377782 0.901315 0.898303 -0.099356
H57   H     H_    0.378832 0.837887 0.853109 0.143632
H58   H     H_    0.426460 0.883359 0.928141 0.141646
H59   H     H_    0.379149 0.996523 0.879402 0.088586
O58   O     O_3   0.676730 0.886640 0.059638 -0.538310
C98   C     C_3   0.622620 0.921966 0.105430 -0.103548
H60   H     H_    0.626794 0.880462 0.158526 0.133014
H61   H     H_    0.572570 0.888992 0.082875 0.146168
H62   H     H_    0.620151 0.021879 0.110527 0.095812
O59   O     O_3   0.821807 0.382939 0.943003 -0.533615
C99   C     C_3   0.877632 0.408391 0.896846 -0.098334
H63   H     H_    0.878155 0.347183 0.850608 0.142273
H64   H     H_    0.926902 0.389899 0.925561 0.143099
H65   H     H_    0.878232 0.504414 0.879394 0.086821
O60   O     O_3   0.178356 0.379670 0.056533 -0.536869
C100  C     C_3   0.122281 0.400112 0.103084 -0.098919
H66   H     H_    0.120746 0.332803 0.146362 0.144416
H67   H     H_    0.073195 0.385699 0.073189 0.140552
H68   H     H_    0.122160 0.493674 0.124657 0.087165
N1    N     N_2   0.320135 0.745542 0.553630 -0.511173
H69   H     H_    0.287360 0.672387 0.560112 0.265618
C101  C     C_3   0.382375 0.751036 0.597787 -0.241400
H70   H     H_    0.373001 0.713539 0.651019 0.180593
H71   H     H_    0.402668 0.845097 0.602919 0.166660
H72   H     H_    0.422584 0.692454 0.574998 0.123115
N2    N     N_2   0.675472 0.725433 0.437416 -0.477616
H73   H     H_    0.665902 0.658326 0.474028 0.231029
C102  C     C_3   0.614999 0.746541 0.392170 -0.225899
H74   H     H_    0.624366 0.713644 0.337929 0.186108
H75   H     H_    0.600728 0.843913 0.390044 0.159912
H76   H     H_    0.570436 0.690677 0.410359 0.110612
N3    N     N_2   0.820148 0.245559 0.553637 -0.511178
H77   H     H_    0.787376 0.172398 0.560114 0.265635
C103  C     C_3   0.882386 0.251056 0.597797 -0.241411
H78   H     H_    0.873008 0.213562 0.651029 0.180699
H79   H     H_    0.902678 0.345117 0.602927 0.166655
H80   H     H_    0.922596 0.192472 0.575011 0.123129
N4    N     N_2   0.175474 0.225429 0.437416 -0.477255
H81   H     H_    0.165905 0.158323 0.474027 0.230955
C104  C     C_3   0.115001 0.246535 0.392169 -0.226063
H82   H     H_    0.124369 0.213645 0.337927 0.185485
H83   H     H_    0.100727 0.343905 0.390046 0.159782
H84   H     H_    0.070439 0.190666 0.410355 0.110591

loop_
_geom_bond_atom_site_label_1
_geom_bond_atom_site_label_2
_ccdc_geom_bond_type
C84   H24   S    
C7    C83   D    
C103  H79   S    
Cr11  O19   S    
C59   H16   S    
C6    C82   D    
C87   C91   D    
Cr2   O46   S    
O53   C93   S    
C14   C18   A    
C5    C89   S    
Cr1   O1    S    
C19   C20   A    
C78   O42   A    
C40   O60   S    
C3    O23   A    
Cr2   O18   S    
Cr6   O6    S    
C45   O33   A    
C57   C62   D    
C96   H56   S    
C15   C19   A    
C29   H34   S    
C12   C23   A    
Cr1   O21   S    
C59   C64   D    
C50   C54   S    
C93   H46   S    
C60   C63   D    
Cr11  O35   S    
C32   C36   A    
C14   C21   A    
Cr12  O12   S    
C66   O2    A    
N3    H77   S    
Cr6   O26   S    
C49   C53   S    
C9    C22   A    
C15   H31   S    
C53   H5    S    
C101  H70   S    
Cr4   O4    S    
C33   H37   S    
C73   O9    A    
C11   C24   A    
C5    C81   D    
O60   C100  S    
C74   O6    A    
C60   H15   S    
N1    H69   S    
C98   H60   S    
C46   O30   A    
C9    C66   S    
C80   O16   A    
C47   O31   A    
C43   C51   D    
C46   C82   S    
C71   O47   A    
C92   H4    S    
C39   C55   D    
C88   C92   D    
C29   C33   A    
C42   C71   S    
C40   C56   D    
C93   H47   S    
Cr7   O7    S    
Cr8   O28   S    
C94   H50   S    
Cr3   O47   S    
C23   C24   A    
Cr4   O20   S    
C8    N4    S    
C85   H17   S    
C8    C92   S    
C39   C75   S    
Cr6   O30   S    
C43   O55   S    
C39   O59   S    
C96   H55   S    
C2    O26   A    
Cr10  O14   S    
C38   O58   S    
C37   C53   D    
C70   O46   A    
C44   C52   D    
C58   C61   D    
C103  H80   S    
Cr1   O17   S    
C52   H44   S    
C30   H33   S    
C79   O43   A    
C21   C22   A    
C7    N3    S    
C3    C86   S    
C69   O49   A    
C80   O44   A    
Cr10  O10   S    
C61   C62   S    
C20   H28   S    
Cr9   O37   S    
C41   C49   D    
C67   O39   A    
C9    C26   A    
C17   C18   A    
Cr7   O19   S    
C71   O51   A    
N2    C102  S    
C10   C21   A    
C19   H27   S    
C100  H67   S    
Cr12  O40   S    
C12   C67   S    
C65   O37   A    
C102  H75   S    
C70   O50   A    
Cr5   O25   S    
C93   H45   S    
C30   C34   A    
C12   C27   A    
C27   C31   A    
C94   H48   S    
Cr10  O34   S    
C91   H3    S    
C6    N2    S    
C28   C32   A    
Cr11  O39   S    
O56   C96   S    
C90   H2    S    
C32   H35   S    
C47   O35   A    
C86   C90   D    
C59   C79   S    
C104  H83   S    
Cr6   O50   S    
O54   C94   S    
N3    C103  S    
C4    C85   S    
C14   H30   S    
C97   H59   S    
C101  H71   S    
C25   C26   A    
C6    C90   S    
C17   H25   S    
C64   H12   S    
C76   O8    A    
C58   H13   S    
C48   C84   S    
C41   O53   S    
N1    C101  S    
C54   H6    S    
C97   H58   S    
Cr2   O42   S    
Cr7   O31   S    
O57   C97   S    
C68   O4    A    
Cr5   O49   S    
C72   O52   A    
C34   H38   S    
Cr5   O29   S    
O55   C95   S    
C38   C54   D    
C95   H53   S    
C51   H43   S    
C16   C20   A    
C101  H72   S    
C1    O25   A    
C86   H18   S    
C69   O45   A    
C33   C34   A    
C102  H74   S    
C49   H41   S    
C2    C87   S    
Cr10  O38   S    
C74   O10   A    
Cr9   O17   S    
Cr1   O45   S    
Cr6   O18   S    
C42   C50   D    
C41   C72   S    
Cr8   O52   S    
C10   C25   A    
C3    O27   A    
C15   C24   A    
Cr12  O36   S    
C95   H52   S    
C78   O14   A    
C16   C23   A    
Cr5   O5    S    
C66   O38   A    
C61   H9    S    
C31   C35   A    
C18   H26   S    
C55   H7    S    
Cr3   O3    S    
Cr8   O8    S    
C73   O5    A    
C103  H78   S    
C16   H32   S    
C7    C91   S    
C48   O32   A    
Cr9   O33   S    
C11   C68   S    
C48   O36   A    
C38   C74   S    
C10   C65   S    
C75   O11   A    
C37   C73   S    
C100  H68   S    
C60   C80   S    
C102  H76   S    
C85   C89   D    
Cr3   O43   S    
C4    O24   A    
C81   H21   S    
C99   H64   S    
C8    C84   D    
C13   H29   S    
C45   C81   S    
C79   O15   A    
C47   C83   S    
N4    C104  S    
Cr3   O19   S    
Cr4   O24   S    
C72   O48   A    
C104  H84   S    
Cr12  O20   S    
C62   H10   S    
Cr4   O44   S    
Cr1   O41   S    
C43   C70   S    
C50   H42   S    
Cr11  O15   S    
C13   C17   A    
Cr8   O20   S    
C77   O41   A    
C89   H1    S    
C46   O34   A    
C57   C77   S    
Cr9   O13   S    
C96   H54   S    
C63   H11   S    
Cr9   O9    S    
C2    O22   A    
C98   H61   S    
Cr2   O22   S    
C25   C29   A    
C87   H19   S    
C45   O29   A    
Cr11  O11   S    
Cr12  O16   S    
C104  H82   S    
C76   O12   A    
C52   C56   S    
C11   C28   A    
C1    C88   S    
C67   O3    A    
Cr5   O17   S    
C1    O21   A    
C99   H63   S    
C77   O13   A    
C13   C22   A    
C42   O54   S    
C51   C55   S    
C99   H65   S    
C88   H20   S    
C36   H40   S    
C97   H57   S    
C83   H23   S    
C58   C78   S    
C37   O57   S    
C63   C64   S    
C75   O7    A    
Cr2   O2    S    
Cr4   O48   S    
C98   H62   S    
Cr7   O27   S    
C95   H51   S    
C68   O40   A    
Cr10  O18   S    
O58   C98   S    
C4    O28   A    
C40   C76   S    
Cr7   O51   S    
O59   C99   S    
C94   H49   S    
C65   O1    A    
C44   C69   S    
C35   C36   A    
C5    N1    S    
C31   H36   S    
C100  H66   S    
Cr3   O23   S    
C44   O56   S    
C56   H8    S    
C82   H22   S    
N4    H81   S    
N2    H73   S    
C35   H39   S    
C57   H14   S    
C27   C28   A    
C26   C30   A    
Cr8   O32   S    
