data_mof_unit_24558.cif
_audit_creation_date              2012-12-11T17:06:37-0500
_audit_creation_method            fapswitch 2.2
_symmetry_space_group_name_H-M    P1
_symmetry_Int_Tables_number       1
_space_group_crystal_system       triclinic
_cell_length_a                    6.987862
_cell_length_b                    14.513114
_cell_length_c                    15.96448
_cell_angle_alpha                 90.49671
_cell_angle_beta                  90.03513
_cell_angle_gamma                 89.954069
_cell_volume                      1618.98626425

loop_
_atom_site_label
_atom_site_type_symbol
_atom_type_description
_atom_site_fract_x
_atom_site_fract_y
_atom_site_fract_z
_atom_type_partial_charge
O1    O     O_R   0.494400 0.415450 0.412630 -0.536002
O2    O     O_R   0.823940 0.405730 0.586760 -0.543245
O3    O     O_R   0.994240 0.584550 0.587370 -0.538850
C1    C     C_R   0.655216 0.383642 0.615191 0.704731
O4    O     O_R   0.824110 0.404430 0.413240 -0.544331
O5    O     O_R   0.994420 0.583240 0.412620 -0.541312
C2    C     C_R   0.655225 0.381843 0.384689 0.700620
O6    O     O_R   0.494230 0.416760 0.587380 -0.534517
O7    O     O_3   0.660800 0.558670 0.500000 -0.372461
V1    V     V_3+5 0.935650 0.489120 0.500000 1.407154
O8    O     O_R   0.324140 0.594270 0.413240 -0.540838
C3    C     C_R   0.155061 0.615930 0.384228 0.688928
O9    O     O_R   0.323960 0.595570 0.586760 -0.543143
C4    C     C_R   0.155228 0.617635 0.615528 0.673446
V2    V     V_3+5 0.435660 0.510880 0.500000 1.413640
O10   O     O_3   0.160640 0.441330 0.500000 -0.365092
C5    C     C_3   0.056005 0.667887 0.772174 -0.140116
C6    C     C_3   0.228493 0.716305 0.814864 -0.138254
H1    H     H_    0.307068 0.690487 0.870385 0.106010
H2    H     H_    0.992592 0.601308 0.791629 0.105326
C7    C     C_3   0.121120 0.808795 0.810216 -0.008014
C8    C     C_3   0.948429 0.761167 0.768311 -0.115655
C9    C     C_3   0.037536 0.779792 0.681228 -0.138338
C10   C     C_3   0.210027 0.828206 0.723915 -0.140186
C11   C     C_3   0.317599 0.734926 0.727779 -0.115567
C12   C     C_3   0.144904 0.687307 0.685873 -0.007595
H3    H     H_    0.796046 0.772172 0.785327 0.107904
H4    H     H_    0.958961 0.805604 0.625706 0.105255
H5    H     H_    0.273480 0.894772 0.704451 0.104339
H6    H     H_    0.469977 0.723915 0.710761 0.107943
C13   C     C_R   0.273390 0.814624 0.238838 0.105858
C14   C     C_R   0.118557 0.815261 0.182993 -0.112136
C15   C     C_R   0.966478 0.754378 0.199470 -0.177541
H7    H     H_    0.843499 0.752457 0.158475 0.135448
C16   C     C_R   0.977470 0.690746 0.265544 -0.175805
H8    H     H_    0.862005 0.642075 0.273556 0.129137
C17   C     C_R   0.141241 0.685740 0.317014 -0.110838
C18   C     C_R   0.284727 0.751387 0.303959 0.107253
C19   C     C_3   0.494092 0.737858 0.291356 -0.410855
C20   C     C_3   0.481863 0.807106 0.220722 -0.401058
H9    H     H_    0.528403 0.666867 0.269408 0.166670
H10   H     H_    0.579288 0.762962 0.345747 0.177350
H11   H     H_    0.509817 0.776471 0.157845 0.170508
H12   H     H_    0.559312 0.872396 0.234431 0.170219
C21   C     C_R   0.484489 0.256758 0.690640 0.115837
C22   C     C_R   0.646427 0.312374 0.680800 -0.101137
C23   C     C_R   0.800106 0.298796 0.736276 -0.184359
H13   H     H_    0.924429 0.342650 0.732884 0.135569
C24   C     C_R   0.788210 0.233506 0.800777 -0.169732
H14   H     H_    0.902941 0.227745 0.845293 0.143360
C25   C     C_R   0.622658 0.180660 0.812449 -0.110163
C26   C     C_R   0.471280 0.194228 0.756553 0.054848
C27   C     C_3   0.270562 0.222514 0.775508 -0.231395
C28   C     C_3   0.282505 0.287303 0.701452 -0.430128
H15   H     H_    0.167301 0.165014 0.767176 0.128885
H16   H     H_    0.270799 0.361917 0.717577 0.163330
H17   H     H_    0.191955 0.265050 0.647687 0.186098
C29   C     C_R   0.483077 0.308061 0.263281 0.060546
C30   C     C_R   0.645974 0.315100 0.313966 -0.113715
C31   C     C_R   0.798757 0.255574 0.295833 -0.174051
H18   H     H_    0.920406 0.254882 0.336669 0.145524
C32   C     C_R   0.788523 0.191311 0.229530 -0.179936
H19   H     H_    0.905800 0.143696 0.220350 0.133572
C33   C     C_R   0.623193 0.184074 0.179469 -0.100749
C34   C     C_R   0.472803 0.245251 0.196452 0.112893
C35   C     C_3   0.269787 0.222107 0.215462 -0.448145
C36   C     C_3   0.282495 0.288380 0.289493 -0.222336
H20   H     H_    0.251265 0.148342 0.232266 0.164013
H21   H     H_    0.172113 0.246631 0.165382 0.183677
H22   H     H_    0.187484 0.349559 0.284614 0.127810
O11   O     O_R   0.771650 0.079500 0.908680 -0.540747
O12   O     O_R   0.441690 0.091800 0.082800 -0.535923
O13   O     O_R   0.271460 0.912980 0.083410 -0.538667
C37   C     C_R   0.610540 0.113735 0.111894 0.702269
O14   O     O_R   0.441930 0.090510 0.909280 -0.537484
O15   O     O_R   0.271690 0.911670 0.908660 -0.539313
C38   C     C_R   0.610812 0.113097 0.881242 0.704292
O16   O     O_R   0.771410 0.080810 0.083440 -0.540534
O17   O     O_3   0.605100 0.937580 0.996050 -0.374245
V3    V     V_3+5 0.330220 0.007110 0.996030 1.420598
O18   O     O_R   0.941980 0.900620 0.909250 -0.542886
C39   C     C_R   0.110737 0.878519 0.880528 0.674544
O19   O     O_R   0.941740 0.901920 0.082770 -0.544687
C40   C     C_R   0.110557 0.880200 0.111709 0.687896
V4    V     V_3+5 0.830220 0.985300 0.996000 1.399606
O20   O     O_3   0.105210 0.054870 0.996020 -0.365521
C41   C     C_1   0.255236 0.272355 0.856344 0.345123
N1    N     N_1   0.243430 0.311327 0.919690 -0.376748
C42   C     C_1   0.273503 0.241318 0.371153 0.355555
N2    N     N_1   0.266539 0.204608 0.435149 -0.379233

loop_
_geom_bond_atom_site_label_1
_geom_bond_atom_site_label_2
_ccdc_geom_bond_type
C35   H20   S    
C41   N1    T    
C6    C7    S    
C16   H8    S    
O17   V4    S    
C1    O6    A    
O18   C39   A    
C23   C24   A    
C1    C22   S    
V4    O20   S    
C17   C18   A    
C5    C12   S    
C16   C17   A    
O5    C3    A    
C18   C19   S    
C35   H21   S    
V2    O10   S    
C36   C42   S    
C5    H2    S    
C13   C20   S    
C31   C32   A    
C6    H1    S    
C9    C12   S    
C3    C17   S    
C10   H5    S    
V3    O20   S    
O11   V4    S    
O8    V2    S    
C20   H11   S    
O19   C40   A    
C24   C25   A    
C32   C33   A    
C9    C10   S    
O1    V2    S    
O14   V3    S    
O13   C40   A    
C35   C36   S    
C30   C31   A    
O9    C4    A    
C6    C11   S    
C2    C30   S    
C15   H7    S    
C19   H10   S    
C27   H15   S    
C14   C40   S    
C28   H16   S    
C25   C26   A    
C23   H13   S    
C10   C11   S    
O12   C37   A    
O15   C39   A    
C19   C20   S    
O4    C2    A    
C21   C26   A    
C29   C30   A    
C21   C22   A    
C31   H18   S    
O2    C1    A    
C25   C38   S    
C32   H19   S    
C29   C34   A    
C13   C14   A    
C5    C6    S    
C27   C41   S    
C9    H4    S    
C4    C12   S    
O14   C38   A    
O3    C4    A    
O16   V4    S    
O19   V4    S    
C21   C28   S    
C34   C35   S    
O6    V2    S    
C8    H3    S    
O9    V2    S    
O2    V1    S    
O11   C38   A    
C26   C27   S    
O7    V1    S    
C11   H6    S    
C22   C23   A    
O1    C2    A    
O15   V3    S    
O5    V1    S    
O8    C3    A    
C27   C28   S    
C5    C8    S    
C13   C18   A    
C36   H22   S    
C14   C15   A    
C11   C12   S    
O4    V1    S    
O12   V3    S    
O3    V1    S    
V1    O10   S    
C33   C34   A    
C15   C16   A    
O13   V3    S    
O7    V2    S    
O17   V3    S    
C29   C36   S    
C20   H12   S    
C7    C39   S    
C19   H9    S    
C24   H14   S    
C37   O16   A    
C7    C10   S    
C33   C37   S    
C8    C9    S    
C42   N2    T    
C7    C8    S    
O18   V4    S    
C28   H17   S    
