data_mof_unit_57848.cif
_audit_creation_date              2013-03-05T15:46:33-0500
_audit_creation_method            fapswitch 2.2
_symmetry_space_group_name_H-M    P1
_symmetry_Int_Tables_number       1
_space_group_crystal_system       triclinic
_cell_length_a                    10.218519
_cell_length_b                    10.553964
_cell_length_c                    10.833921
_cell_angle_alpha                 89.69439
_cell_angle_beta                  95.936311
_cell_angle_gamma                 79.120255
_cell_volume                      1140.87000481

loop_
_atom_site_label
_atom_site_type_symbol
_atom_site_description
_atom_site_fract_x
_atom_site_fract_y
_atom_site_fract_z
_atom_type_partial_charge
O1    O     O_R   0.568940 0.489660 0.307530 -0.595076
O2    O     O_R   0.431060 0.510340 0.692470 -0.600116
O3    O     O_R   0.348880 0.522640 0.340350 -0.613267
O4    O     O_R   0.651120 0.477360 0.659650 -0.619508
C1    C     C_R   0.443020 0.504240 0.267814 0.937194
C2    C     C_R   0.556987 0.496322 0.732113 0.941671
O5    O     O_R   0.610030 0.300280 0.483580 -0.623937
O6    O     O_R   0.389970 0.699720 0.516420 -0.622963
O7    O     O_R   0.389970 0.333270 0.516400 -0.605042
O8    O     O_R   0.610030 0.666730 0.483600 -0.608081
C3    C     C_R   0.507760 0.258676 0.517601 0.888045
C4    C     C_R   0.492272 0.741374 0.482630 0.892029
Zn1   Zn    Zn3+2 0.646940 0.477980 0.478080 0.963951
Zn2   Zn    Zn3+2 0.353060 0.522020 0.521920 0.964978
H1    H     H_    0.134974 0.148552 0.737447 0.146276
H2    H     H_    0.870660 0.846691 0.271463 0.146801
C5    C     C_R   0.755133 0.060426 0.484924 -0.110611
C6    C     C_R   0.245982 0.938327 0.519539 -0.112077
C7    C     C_R   0.844192 0.989616 0.410386 -0.173484
C8    C     C_R   0.159022 0.006740 0.597285 -0.179061
C9    C     C_R   0.804111 0.894554 0.335776 -0.171808
C10   C     C_R   0.199689 0.102260 0.670965 -0.164133
C11   C     C_R   0.678385 0.862860 0.342636 0.049503
C12   C     C_R   0.323927 0.136099 0.660730 0.051174
C13   C     C_R   0.592651 0.925391 0.428537 0.036966
C14   C     C_R   0.407989 0.074554 0.573140 0.036736
C15   C     C_R   0.623853 0.035796 0.486267 0.085368
C16   C     C_R   0.376622 0.964035 0.515714 0.082580
C17   C     C_R   0.478660 0.880486 0.460671 -0.241881
C18   C     C_R   0.521562 0.119638 0.540402 -0.243664
H3    H     H_    0.790437 0.133224 0.542304 0.152289
H4    H     H_    0.209688 0.865979 0.462252 0.155064
H5    H     H_    0.942389 0.012252 0.405898 0.156786
H6    H     H_    0.062263 0.981738 0.604833 0.146651
C19   C     C_2   0.408039 0.517667 0.135658 -0.371132
C20   C     C_2   0.592200 0.484301 0.864235 -0.383269
C21   C     C_2   0.499754 0.468921 0.060122 0.009852
C22   C     C_2   0.500428 0.533261 0.939635 0.014947
H7    H     H_    0.680162 0.412432 0.896241 0.152556
H8    H     H_    0.320424 0.590067 0.103944 0.159472
N1    N     N_2   0.157300 0.551390 0.551120 -0.175250
N2    N     N_2   0.842700 0.448610 0.448880 -0.165387
C23   C     C_2   0.061575 0.525042 0.470819 -0.071322
C24   C     C_2   0.920747 0.522307 0.502262 -0.068237
C25   C     C_1   0.632605 0.781750 0.247543 0.166728
N3    N     N_1   0.596846 0.718620 0.169037 -0.202678
C26   C     C_1   0.371305 0.217031 0.755148 0.164419
N4    N     N_1   0.408580 0.279866 0.833184 -0.198373
C27   C     C_1   0.401995 0.649907 0.902322 0.243851
N5    N     N_1   0.324295 0.742538 0.872702 -0.196131
C28   C     C_1   0.597913 0.351958 0.097003 0.236461
N6    N     N_1   0.675312 0.259005 0.126126 -0.186869
C29   C     C_1   0.866525 0.617274 0.588408 0.289028
N7    N     N_1   0.825221 0.693517 0.658179 -0.199090
C30   C     C_1   0.080594 0.519955 0.340690 0.259306
N8    N     N_1   0.092380 0.515977 0.235538 -0.201536
C31   C     C_1   0.896643 0.345633 0.378476 0.298111
N9    N     N_1   0.941564 0.260113 0.319827 -0.226981
C32   C     C_1   0.143414 0.536507 0.676758 0.324296
N10   N     N_1   0.132308 0.523879 0.781145 -0.222125

loop_
_geom_bond_atom_site_label_1
_geom_bond_atom_site_label_2
_geom_bond_distance
_ccdc_geom_bond_type
O7    Zn2   1.958685 S    
N2    C24   1.311128 D    
H2    C9    1.084058 S    
C11   C25   1.440101 S    
C4    C17   1.464188 S    
C13   C15   1.399044 A    
N1    C23   1.311575 D    
C14   C16   1.399268 A    
C26   N4    1.155140 T    
O6    C4    1.292675 A    
C23   C24   1.518132 S    
C8    H6    1.081157 S    
C30   N8    1.158034 T    
C20   C22   1.339308 D    
C19   H8    1.085712 S    
C6    C16   1.416141 A    
C32   N10   1.157705 T    
C22   C27   1.460762 S    
C29   N7    1.158123 T    
C15   C18   1.415174 A    
O5    C3    1.293034 A    
O7    C3    1.306767 A    
C31   N9    1.157205 T    
O2    C2    1.294340 A    
O3    Zn2   1.963105 S    
O8    C4    1.306949 A    
Zn2   N1    2.023745 S    
O1    C1    1.294024 A    
C1    C19   1.438978 S    
N2    C31   1.391568 S    
C23   C30   1.442832 S    
Zn1   N2    2.023743 S    
C19   C21   1.339337 D    
C21   C22   1.469437 S    
C2    C20   1.438325 S    
C14   C18   1.410990 A    
C6    C8    1.392660 A    
C11   C13   1.423404 A    
C9    C11   1.396306 A    
C13   C17   1.411784 A    
O2    Zn2   1.928840 S    
C10   C12   1.396922 A    
C6    H4    1.081717 S    
C5    C7    1.393018 A    
C28   N6    1.157440 T    
C5    C15   1.415275 A    
O3    C1    1.291561 A    
O5    Zn1   1.983320 S    
O1    Zn1   1.928838 S    
N1    C32   1.394135 S    
O4    C2    1.291054 A    
C27   N5    1.157605 T    
C7    H5    1.080169 S    
O4    Zn1   1.963106 S    
C16   C17   1.416855 A    
O6    Zn2   1.983321 S    
C21   C28   1.460817 S    
C25   N3    1.155209 T    
C12   C26   1.439902 S    
C24   C29   1.445652 S    
C20   H7    1.085743 S    
H1    C10   1.084012 S    
C5    H3    1.081773 S    
C12   C14   1.422962 A    
C3    C18   1.464572 S    
C8    C10   1.387189 A    
C7    C9    1.386715 A    
O8    Zn1   1.958686 S    
