data_mof_unit_11412.cif
_audit_creation_date              2012-12-11T15:52:27-0500
_audit_creation_method            fapswitch 2.2
_symmetry_space_group_name_H-M    P1
_symmetry_Int_Tables_number       1
_space_group_crystal_system       triclinic
_cell_length_a                    8.234635
_cell_length_b                    19.125021
_cell_length_c                    19.018522
_cell_angle_alpha                 98.786278
_cell_angle_beta                  94.514359
_cell_angle_gamma                 92.331782
_cell_volume                      2946.62304847

loop_
_atom_site_label
_atom_site_type_symbol
_atom_type_description
_atom_site_fract_x
_atom_site_fract_y
_atom_site_fract_z
_atom_type_partial_charge
Ba1   Ba    Ba6+2 0.152000 0.534910 0.469330 1.336752
Ba2   Ba    Ba6+2 0.658180 0.465080 0.530610 1.112530
C1    C     C_3   0.358635 0.696322 0.204907 -0.317025
C2    C     C_R   0.985025 0.274356 0.474290 0.130880
C3    C     C_R   0.134211 0.188393 0.561692 -0.102826
C4    C     C_3   0.892054 0.729917 0.317732 0.392382
C5    C     C_R   0.203594 0.255696 0.558856 0.033443
C6    C     C_R   0.667736 0.813169 0.441951 -0.166761
C7    C     C_R   0.595471 0.746859 0.447214 -0.021054
C8    C     C_R   0.859891 0.800654 0.540772 -0.156648
C9    C     C_R   0.822509 0.726685 0.527496 0.131972
C10   C     C_R   0.015712 0.155181 0.506797 -0.013837
C11   C     C_R   0.116598 0.301075 0.522143 -0.175251
C12   C     C_3   0.432377 0.711236 0.281809 0.302344
C13   C     C_R   0.794528 0.845878 0.493294 0.016136
C14   C     C_R   0.682618 0.701413 0.484262 -0.231234
C15   C     C_R   0.236458 0.043631 0.539438 -0.099140
C16   C     C_3   0.882404 0.799594 0.287181 -0.205279
C17   C     C_R   0.337396 0.002000 0.574938 -0.051758
C18   C     C_R   0.289768 0.931600 0.575532 0.037918
C19   C     C_R   0.139759 0.905762 0.539264 -0.102966
C20   C     C_R   0.018039 0.951299 0.519503 0.020251
C21   C     C_R   0.069532 0.024364 0.520598 0.005170
C22   C     C_R   0.852056 0.925488 0.497565 -0.011351
C23   C     C_3   0.382570 0.697397 0.693277 0.264495
C24   C     C_R   0.741153 0.977322 0.478375 0.033237
C25   C     C_R   0.793708 0.050421 0.479680 0.015821
C26   C     C_R   0.959140 0.075717 0.501217 -0.025421
C27   C     C_R   0.572916 0.959260 0.459812 -0.130875
C28   C     C_3   0.796766 0.381407 0.310157 0.327810
C29   C     C_R   0.472122 0.002640 0.426183 -0.063607
C30   C     C_R   0.521449 0.072588 0.428416 -0.073662
C31   C     C_R   0.673319 0.097129 0.461523 -0.085884
C32   C     C_R   0.613557 0.529820 0.301257 -0.294436
C33   C     C_R   0.466291 0.492682 0.275760 0.166942
C34   C     C_3   0.345799 0.718060 0.770692 -0.427673
C35   C     C_R   0.412435 0.486633 0.203201 -0.102926
C36   C     C_R   0.507590 0.516788 0.155735 -0.022337
C37   C     C_R   0.659627 0.551305 0.182119 -0.123929
C38   C     C_R   0.712510 0.557147 0.254454 0.000843
C39   C     C_R   0.482485 0.567394 0.041165 -0.121415
C40   C     C_3   0.792057 0.367159 0.228594 -0.279861
C41   C     C_R   0.430492 0.562264 0.968818 -0.053791
C42   C     C_R   0.347850 0.500185 0.931596 0.094104
C43   C     C_R   0.316174 0.443848 0.969127 -0.122578
C44   C     C_R   0.366609 0.449302 0.041769 -0.068011
C45   C     C_3   0.901772 0.272402 0.716985 1.365154
C46   C     C_R   0.451036 0.511081 0.078699 0.066964
C47   C     C_R   0.150466 0.455843 0.824449 -0.125455
C48   C     C_R   0.106296 0.447427 0.750911 -0.011123
C49   C     C_R   0.345229 0.519992 0.735711 0.053908
C50   C     C_R   0.393756 0.526418 0.808528 -0.122348
C51   C     C_R   0.297163 0.493801 0.853877 -0.033554
C52   C     C_3   0.977518 0.616965 0.692838 0.356737
C53   C     C_R   0.206553 0.477581 0.706941 -0.238281
C54   C     C_3   0.934116 0.631202 0.769906 -0.335533
C55   C     C_3   0.300050 0.322611 0.373070 0.311540
C56   C     C_3   0.036712 0.260007 0.773210 0.382116
C57   C     C_3   0.283045 0.242200 0.352414 0.225754
C58   C     C_3   0.647941 0.316380 0.195371 -0.180583
C59   C     C_3   0.642745 0.304380 0.113684 -0.232548
C60   C     C_3   0.495741 0.256070 0.080397 -0.508558
C61   C     C_3   0.176698 0.200515 0.236032 0.176929
C62   C     C_3   0.805036 0.162938 0.651989 0.276566
C63   C     C_3   0.090470 0.226207 0.883569 0.110896
C64   C     C_3   0.396866 0.881266 0.610136 -0.230987
C65   C     C_3   0.554539 0.915780 0.652387 -0.213741
C66   C     C_3   0.644430 0.863670 0.692537 -0.407206
C67   C     C_3   0.434079 0.322558 0.722488 0.367417
C68   C     C_3   0.048135 0.840886 0.294395 -0.209126
C69   C     C_3   0.038066 0.911817 0.266074 -0.227826
C70   C     C_3   0.964752 0.968878 0.317554 -0.408626
C71   C     C_3   0.461691 0.304794 0.797738 -0.330195
C72   C     C_R   0.954013 0.200129 0.458500 -0.115304
H1    H     H_    0.491910 0.662643 0.293302 0.006479
H2    H     H_    0.398630 0.335482 0.416863 0.062094
H3    H     H_    0.265537 0.651577 0.197927 0.157758
H4    H     H_    0.272394 0.218536 0.401707 -0.016230
H5    H     H_    0.397137 0.222439 0.330094 0.019837
H6    H     H_    0.524048 0.756258 0.286916 -0.019675
H7    H     H_    0.456404 0.682123 0.169357 0.048635
H8    H     H_    0.412893 0.746256 0.671610 0.040442
H9    H     H_    0.275738 0.672523 0.659431 0.094133
H10   H     H_    0.455292 0.745306 0.802678 0.122150
H11   H     H_    0.244328 0.754593 0.773445 0.102076
H12   H     H_    0.781831 0.418038 0.207821 0.069699
H13   H     H_    0.310325 0.670365 0.793697 0.093309
H14   H     H_    0.301989 0.743956 0.189427 0.094349
H15   H     H_    0.794764 0.833046 0.315773 0.073600
H16   H     H_    0.955744 0.276956 0.665619 -0.930006
H17   H     H_    0.109400 0.215942 0.749335 -0.053964
H18   H     H_    0.116649 0.308847 0.787638 -0.117989
H19   H     H_    0.302147 0.330092 0.711180 -0.058847
H20   H     H_    0.504439 0.372835 0.720016 0.094411
H21   H     H_    0.415061 0.346996 0.836461 0.055611
H22   H     H_    0.593333 0.300556 0.812600 0.185576
H23   H     H_    0.908710 0.344704 0.212726 0.144353
H24   H     H_    0.963275 0.738957 0.370772 0.082900
H25   H     H_    0.397051 0.253508 0.801048 0.100738
H26   H     H_    0.877485 0.178963 0.410542 0.078402
H27   H     H_    0.181731 0.161574 0.604285 0.068485
H28   H     H_    0.616948 0.839294 0.399626 0.054283
H29   H     H_    0.940345 0.821353 0.587592 0.063887
H30   H     H_    0.158455 0.356078 0.526803 0.074879
H31   H     H_    0.638016 0.647056 0.481925 0.116379
H32   H     H_    0.294918 0.090390 0.525871 0.083055
H33   H     H_    0.458656 0.023490 0.594810 0.068283
H34   H     H_    0.103440 0.600630 0.692521 -0.086624
H35   H     H_    0.765996 0.711746 0.325154 -0.148686
H36   H     H_    0.123964 0.849725 0.526280 0.122621
H37   H     H_    0.511963 0.913510 0.474066 0.095448
H38   H     H_    0.347903 0.984558 0.407042 0.074631
H39   H     H_    0.436200 0.109216 0.410714 0.072748
H40   H     H_    0.689869 0.153231 0.473818 0.118387
H41   H     H_    0.506144 0.556444 0.829168 0.069648
H42   H     H_    0.453955 0.607415 0.942327 0.052234
H43   H     H_    0.546310 0.615956 0.067708 0.071003
H44   H     H_    0.296930 0.458424 0.184120 0.085150
H45   H     H_    0.898383 0.572282 0.664031 0.129786
H46   H     H_    0.254910 0.394892 0.942134 0.074231
H47   H     H_    0.342496 0.404439 0.068541 0.057999
H48   H     H_    0.068769 0.434187 0.858520 0.079918
H49   H     H_    0.738891 0.571951 0.146474 0.068849
H50   H     H_    0.169612 0.472075 0.650408 0.090845
H51   H     H_    0.655706 0.533741 0.357109 0.108313
H52   H     H_    0.834509 0.787909 0.230062 0.098665
H53   H     H_    0.674840 0.394790 0.326956 0.020704
H54   H     H_    0.884620 0.427093 0.329475 0.086063
H55   H     H_    0.503021 0.203284 0.097677 0.145792
H56   H     H_    0.007502 0.677818 0.799783 0.095083
H57   H     H_    0.380671 0.279701 0.096485 0.141697
H58   H     H_    0.493771 0.249090 0.021280 0.148376
H59   H     H_    0.635029 0.356015 0.093867 0.143009
H60   H     H_    0.756098 0.279794 0.096483 0.134980
H61   H     H_    0.658667 0.264786 0.215094 0.147735
H62   H     H_    0.532426 0.339353 0.211627 0.131505
H63   H     H_    0.248094 0.242768 0.215862 0.063435
H64   H     H_    0.061041 0.189245 0.201300 0.058328
H65   H     H_    0.243852 0.150948 0.231901 0.015048
H66   H     H_    0.710009 0.119632 0.649585 0.030407
H67   H     H_    0.959399 0.584677 0.796617 0.080213
H68   H     H_    0.925659 0.139761 0.658792 -0.017784
H69   H     H_    0.789161 0.184580 0.601204 0.115008
H70   H     H_    0.183838 0.270608 0.899590 0.029310
H71   H     H_    0.148924 0.177177 0.861312 0.047289
H72   H     H_    0.034627 0.215938 0.932462 0.079369
H73   H     H_    0.572671 0.850028 0.736054 0.130318
H74   H     H_    0.665286 0.814552 0.655824 0.144065
H75   H     H_    0.764448 0.888262 0.716621 0.127687
H76   H     H_    0.637189 0.934877 0.615157 0.124928
H77   H     H_    0.525215 0.961522 0.692016 0.124580
H78   H     H_    0.802892 0.641876 0.771518 0.147372
H79   H     H_    0.322689 0.856888 0.647287 0.110419
H80   H     H_    0.429748 0.838379 0.568288 0.130921
H81   H     H_    0.835775 0.954276 0.324270 0.141656
H82   H     H_    0.036514 0.976876 0.370219 0.141259
H83   H     H_    0.968584 0.019738 0.296170 0.135518
H84   H     H_    0.163653 0.930978 0.258226 0.112678
H85   H     H_    0.966070 0.904335 0.213276 0.122701
H86   H     H_    0.100233 0.850124 0.351035 0.138456
H87   H     H_    0.132273 0.808425 0.262348 0.166215
H88   H     H_    0.184831 0.342425 0.392157 0.044798
O1    O     O_2   0.116570 0.673370 0.549300 -0.433470
O2    O     O_2   0.786861 0.464443 0.743928 -0.485434
O3    O     O_3   0.824556 0.334367 0.742425 -0.611169
O4    O     O_3   0.869340 0.584760 0.542960 -0.442980
O5    O     O_3   0.436600 0.464450 0.413780 -0.417570
O6    O     O_2   0.628980 0.533090 0.672420 -0.409635
O7    O     O_3   0.517845 0.655564 0.688979 -0.599237
O8    O     O_2   0.531821 0.239885 0.536818 -0.504312
O9    O     O_3   0.486833 0.267269 0.673599 -0.548662
O10   O     O_3   0.352540 0.630870 0.419750 -0.420192
O11   O     O_2   0.259495 0.755936 0.463425 -0.506586
O12   O     O_3   0.336828 0.353024 0.313404 -0.613367
O13   O     O_3   0.964281 0.679504 0.663012 -0.620480
O14   O     O_3   0.309849 0.729640 0.327443 -0.573413
O15   O     O_2   0.181320 0.466870 0.327560 -0.385277
O16   O     O_3   0.937730 0.595370 0.381630 -0.445865
O17   O     O_2   0.048083 0.548487 0.255649 -0.461949
O18   O     O_3   0.138933 0.222310 0.306821 -0.619415
O19   O     O_3   0.782328 0.215622 0.709987 -0.627094
O20   O     O_3   0.966766 0.243562 0.834607 -0.639515
O21   O     O_3   0.965329 0.679481 0.270367 -0.577588
O22   O     O_2   0.693730 0.326590 0.450680 -0.445766
O23   O     O_3   0.940960 0.415230 0.456980 -0.461358
O24   O     O_3   0.457750 0.369120 0.580200 -0.452221
O25   O     O_3   0.845673 0.320835 0.337276 -0.592873
O26   O     O_3   0.373690 0.535540 0.586160 -0.417976
O27   O     O_3   0.872560 0.404620 0.618320 -0.409018
P1    P     P_3+3 0.945400 0.662120 0.569160 0.855902
P2    P     P_3+3 0.355390 0.445380 0.336430 0.636512
P3    P     P_3+3 0.916337 0.594705 0.289423 0.937703
P4    P     P_3+3 0.864900 0.337880 0.430780 0.913250
P5    P     P_3+3 0.903980 0.409830 0.712159 1.019337
P6    P     P_3+3 0.381783 0.719715 0.414061 0.991761
P7    P     P_3+3 0.457300 0.565120 0.674317 0.828475
P8    P     P_3+3 0.419042 0.280969 0.587719 0.971604

loop_
_geom_bond_atom_site_label_1
_geom_bond_atom_site_label_2
_ccdc_geom_bond_type
C16   C68   S    
C70   H82   S    
C10   C72   A    
C61   H63   S    
C17   C18   A    
Ba2   O27   S    
C45   O19   S    
O3    P5    S    
O13   P1    S    
C19   H36   S    
C59   H59   S    
C43   C44   A    
C25   C31   A    
C31   H40   S    
C15   C21   A    
C10   C26   S    
C32   C38   A    
C4    H24   S    
C55   H2    S    
C18   C64   S    
C57   O18   S    
C33   C35   A    
C7    C14   A    
C22   C24   A    
C32   C33   A    
C67   H19   S    
C49   P7    S    
C36   C37   A    
C35   H44   S    
O2    P5    D    
Ba1   O26   S    
Ba1   O5    S    
O22   P4    D    
C54   H56   S    
C37   H49   S    
Ba1   Ba2   S    
C67   O9    S    
C2    C11   A    
C12   O14   S    
C66   H75   S    
C15   C17   A    
C28   H53   S    
Ba1   O15   S    
C42   C51   S    
O17   P3    D    
C6    C7    A    
C1    H7    S    
C29   H38   S    
C44   H47   S    
C67   C71   S    
C68   C69   S    
C40   H12   S    
C12   H6    S    
C30   H39   S    
C54   H78   S    
C56   H17   S    
Ba2   O4    S    
C2    C72   A    
C66   H74   S    
O12   P2    S    
Ba1   P1    S    
C64   C65   S    
C70   H81   S    
C52   H45   S    
O21   P3    S    
C65   H76   S    
C39   C41   A    
C60   H55   S    
C61   H65   S    
O27   P5    S    
C57   H4    S    
C59   H60   S    
O7    P7    S    
C28   H54   S    
C63   O20   S    
C34   H13   S    
C2    P4    S    
C4    C16   S    
C3    H27   S    
C55   H88   S    
C65   H77   S    
C49   C50   A    
C60   H58   S    
C3    C10   A    
C67   H20   S    
C40   H23   S    
C40   C58   S    
C37   C38   A    
C3    C5    A    
C63   H70   S    
C72   H26   S    
C49   C53   A    
C61   O18   S    
C65   C66   S    
C58   C59   S    
O4    P1    S    
C6    H28   S    
C52   O13   S    
C5    P8    S    
C41   C42   A    
Ba2   O24   S    
O11   P6    D    
C35   C36   A    
C41   H42   S    
O16   P3    S    
Ba1   O16   S    
C29   C30   A    
C38   P3    S    
C24   C25   A    
O24   P8    S    
Ba2   O22   S    
C21   C26   A    
C11   H30   S    
C66   H73   S    
C58   H61   S    
O26   P7    S    
C16   H52   S    
C1    C12   S    
C14   H31   S    
C54   H67   S    
Ba1   P2    S    
C43   H46   S    
C13   C22   S    
C8    C13   A    
C6    C13   A    
C23   H8    S    
C4    H35   S    
C20   C22   A    
C62   O19   S    
C57   H5    S    
C1    H3    S    
C68   H87   S    
Ba2   O6    S    
O5    P2    S    
C42   C43   A    
C64   H80   S    
C62   H66   S    
C50   H41   S    
C23   O7    S    
C71   H25   S    
C69   H84   S    
C58   H62   S    
C53   H50   S    
C8    H29   S    
C33   P2    S    
C1    H14   S    
C16   H15   S    
C36   C46   S    
C60   H57   S    
C27   H37   S    
C48   C53   A    
O23   P4    S    
C64   H79   S    
C7    P6    S    
C52   C54   S    
C62   H69   S    
Ba1   O23   S    
C34   H11   S    
C69   H85   S    
Ba1   O10   S    
O15   P2    D    
C45   O3    S    
C52   H34   S    
C4    O21   S    
C56   O20   S    
Ba2   P4    S    
C28   O25   S    
C9    P1    S    
Ba2   O23   S    
C69   C70   S    
C27   C29   A    
C15   H32   S    
C30   C31   A    
C45   C56   S    
C48   P5    S    
C62   H68   S    
Ba1   O4    S    
C34   H10   S    
C32   H51   S    
C47   C51   A    
C47   H48   S    
C63   H71   S    
C61   H64   S    
C39   C46   A    
O1    P1    D    
C68   H86   S    
O14   P6    S    
C59   C60   S    
Ba2   O26   S    
C45   H16   S    
C9    C14   A    
C55   C57   S    
C8    C9    A    
C70   H83   S    
C23   C34   S    
C55   O12   S    
C44   C46   A    
C5    C11   A    
C18   C19   A    
Ba1   O1    S    
C24   C27   A    
O9    P8    S    
C47   C48   A    
O6    P7    D    
C25   C26   A    
C23   H9    S    
C71   H21   S    
C20   C21   A    
C28   C40   S    
O10   P6    S    
C71   H22   S    
C39   H43   S    
C63   H72   S    
C19   C20   A    
C56   H18   S    
Ba2   O5    S    
O8    P8    D    
O25   P4    S    
C12   H1    S    
C50   C51   A    
C17   H33   S    
