data_mof_unit_38201.cif
_audit_creation_date              2013-03-05T15:42:54-0500
_audit_creation_method            fapswitch 2.2
_symmetry_space_group_name_H-M    P1
_symmetry_Int_Tables_number       1
_space_group_crystal_system       triclinic
_cell_length_a                    15.022562
_cell_length_b                    10.923332
_cell_length_c                    9.722304
_cell_angle_alpha                 89.383588
_cell_angle_beta                  90.634319
_cell_angle_gamma                 90.522852
_cell_volume                      1595.14059537

loop_
_atom_site_label
_atom_site_type_symbol
_atom_site_description
_atom_site_fract_x
_atom_site_fract_y
_atom_site_fract_z
_atom_type_partial_charge
O1    O     O_R   0.500020 0.321960 0.617040 -0.536796
O2    O     O_R   0.499980 0.321920 0.382900 -0.596914
C1    C     C_R   0.494978 0.265529 0.500796 0.753676
O3    O     O_R   0.370270 0.499990 0.617090 -0.565173
O4    O     O_R   0.370240 0.499950 0.382940 -0.574781
C2    C     C_R   0.329150 0.500082 0.499491 0.882055
Cu1   Cu    Cu3+1 0.500020 0.500020 0.638630 1.010497
Cu2   Cu    Cu3+1 0.499980 0.499980 0.361370 1.001284
O5    O     O_R   0.500020 0.678080 0.617100 -0.569555
O6    O     O_R   0.499980 0.678040 0.382960 -0.537198
O7    O     O_R   0.629760 0.500050 0.617060 -0.591053
O8    O     O_R   0.629730 0.500010 0.382910 -0.578928
C3    C     C_R   0.497681 0.734519 0.498802 0.911268
C4    C     C_R   0.670867 0.502045 0.500512 0.801416
C5    C     C_R   0.813459 0.618956 0.512748 -0.061754
C6    C     C_R   0.767316 0.506611 0.501347 -0.078119
C7    C     C_R   0.813041 0.396794 0.488225 -0.270012
C8    C     C_R   0.905741 0.396504 0.486702 0.112609
C9    C     C_R   0.953357 0.507944 0.500088 0.064997
C10   C     C_R   0.907419 0.619545 0.514136 0.073255
C11   C     C_R   0.951522 0.286320 0.471970 -0.208168
C12   C     C_R   0.044246 0.285972 0.470237 -0.167142
C13   C     C_R   0.092375 0.395739 0.483771 0.114184
C14   C     C_R   0.047138 0.507543 0.498908 0.020550
C15   C     C_R   0.095544 0.618557 0.513680 0.005286
C16   C     C_R   0.049100 0.728168 0.530417 -0.138883
C17   C     C_R   0.956687 0.728931 0.529006 -0.225640
C18   C     C_R   0.185101 0.395288 0.483200 -0.277403
C19   C     C_R   0.232905 0.504456 0.498924 -0.164175
C20   C     C_R   0.189239 0.616730 0.514137 0.274225
H1    H     H_    0.776000 0.311469 0.478585 0.129684
H2    H     H_    0.915558 0.200369 0.461663 0.150216
H3    H     H_    0.078373 0.199753 0.458747 0.168405
H4    H     H_    0.220490 0.309885 0.471712 0.173268
H5    H     H_    0.083494 0.814472 0.545435 0.203777
H6    H     H_    0.924506 0.816335 0.540812 0.168554
C21   C     C_2   0.477940 0.935970 0.384557 0.410157
C22   C     C_2   0.497462 0.866861 0.496817 -0.305847
H7    H     H_    0.519968 0.909288 0.591530 0.160147
C23   C     C_2   0.491555 0.068806 0.390956 -0.349431
C24   C     C_2   0.473479 0.135463 0.502763 0.118243
H8    H     H_    0.520564 0.112503 0.300842 0.185437
C25   C     C_2   0.428739 0.506509 0.923470 -0.033598
N1    N     N_2   0.499020 0.498660 0.846910 -0.224931
H9    H     H_    0.363535 0.498461 0.875600 0.173940
C26   C     C_2   0.431555 0.528499 0.076464 -0.031338
N2    N     N_2   0.499000 0.498630 0.153040 -0.281568
H10   H     H_    0.373810 0.568651 0.123564 0.196212
H11   H     H_    0.543747 0.439061 0.111974 0.212654
C27   C     C_R   0.764425 0.735849 0.518176 0.074979
C28   C     C_R   0.742205 0.798081 0.395714 -0.132096
C29   C     C_R   0.709581 0.917438 0.400110 -0.154327
C30   C     C_R   0.698650 0.974807 0.526649 -0.145985
C31   C     C_R   0.718234 0.911797 0.649032 -0.138258
C32   C     C_R   0.751422 0.792774 0.644857 -0.143600
H12   H     H_    0.753031 0.755753 0.297182 0.138437
H13   H     H_    0.693575 0.965893 0.305471 0.143321
H14   H     H_    0.674142 0.067582 0.529936 0.124905
H15   H     H_    0.709250 0.955972 0.746955 0.144456
H16   H     H_    0.770416 0.746682 0.739463 0.153877
N3    N     N_R   0.422621 0.086452 0.616029 0.121419
O9    O     O_R   0.443866 0.114151 0.742088 -0.323649
O10   O     O_R   0.349505 0.024962 0.592558 -0.271793
C33   C     C_R   0.580871 0.549749 0.897240 0.293053
C34   C     C_R   0.656310 0.475440 0.910728 -0.160458
C35   C     C_R   0.735990 0.523545 0.963763 -0.152863
C36   C     C_R   0.741070 0.646226 0.002763 -0.152069
C37   C     C_R   0.667011 0.721750 0.986224 -0.172323
C38   C     C_R   0.587477 0.674366 0.931970 -0.096354
H17   H     H_    0.652603 0.379925 0.882349 0.142890
H18   H     H_    0.793663 0.465533 0.975355 0.148407
H19   H     H_    0.802678 0.683115 0.044415 0.140171
H20   H     H_    0.671340 0.817079 0.015031 0.157264
H21   H     H_    0.530535 0.733672 0.919379 0.184190
N4    N     N_R   0.240169 0.727861 0.528811 0.107228
O11   O     O_R   0.233410 0.814883 0.437008 -0.303338
O12   O     O_R   0.293233 0.742322 0.634122 -0.322889
N5    N     N_R   0.450533 0.884093 0.255198 0.150537
O13   O     O_R   0.484016 0.926535 0.141225 -0.372773
O14   O     O_R   0.380569 0.813216 0.248993 -0.289946

loop_
_geom_bond_atom_site_label_1
_geom_bond_atom_site_label_2
_geom_bond_distance
_ccdc_geom_bond_type
C8    C11   1.401114 A    
C9    C10   1.414932 A    
C24   N3    1.442723 S    
C25   N1    1.302514 D    
Cu1   Cu2   2.695605 S    
N2    H11   1.026731 S    
C30   C31   1.397972 A    
N1    C33   1.429278 S    
Cu1   O7    1.962582 S    
C16   C17   1.388295 A    
C21   C22   1.351407 D    
C18   C19   1.395335 A    
C8    C9    1.412758 A    
C21   C23   1.465393 S    
C22   H7    1.084643 S    
O7    C4    1.296339 A    
N5    O14   1.300952 A    
C34   H17   1.082852 S    
C36   H19   1.082273 S    
C5    C27   1.481633 S    
N3    O10   1.301535 A    
O5    C3    1.299361 A    
C31   C32   1.397847 A    
C6    C7    1.395475 A    
C13   C14   1.412880 A    
C23   H8    1.086727 S    
C35   C36   1.397798 A    
C18   H4    1.085352 S    
C32   H16   1.080635 S    
O3    Cu1   1.958085 S    
C27   C28   1.403222 A    
C31   H15   1.082288 S    
C5    C10   1.411384 A    
C11   H2    1.083965 S    
C26   H10   1.083807 S    
C28   C29   1.398271 A    
C14   C15   1.416067 A    
O3    C2    1.293497 A    
N5    O13   1.301084 A    
C37   C38   1.397976 A    
C15   C16   1.403142 A    
C13   C18   1.393111 A    
C36   C37   1.397915 A    
O1    C1    1.294297 A    
N4    O11   1.300774 A    
C19   C20   1.406048 A    
N4    O12   1.300693 A    
C35   H18   1.082243 S    
Cu2   O8    1.958086 S    
C7    C8    1.392873 A    
C38   H21   1.082803 S    
C33   C38   1.408371 A    
C25   H9    1.083054 S    
C3    C22   1.445572 S    
C23   C24   1.346365 D    
O8    C4    1.293956 A    
C7    H1    1.085515 S    
C4    C6    1.449253 S    
C29   C30   1.398621 A    
C15   C20   1.407827 A    
Cu1   O5    1.953998 S    
C12   H3    1.083810 S    
C26   N2    1.292824 D    
C1    C24   1.454101 S    
O1    Cu1   1.958546 S    
O2    Cu2   1.953998 S    
C28   H12   1.082708 S    
O6    C3    1.290913 A    
O4    Cu2   1.962581 S    
C30   H14   1.082291 S    
C10   C17   1.407693 A    
C17   H6    1.081868 S    
C21   N5    1.439437 S    
C27   C32   1.402050 A    
C33   C34   1.404135 A    
O2    C1    1.297981 A    
C37   H20   1.082413 S    
Cu2   N2    2.025549 S    
C20   N4    1.436557 S    
O4    C2    1.296373 A    
C9    C14   1.409046 A    
N3    O9    1.301155 A    
C25   C26   1.509344 S    
C29   H13   1.082364 S    
C16   H5    1.081394 S    
C2    C19   1.447026 S    
Cu2   O6    1.958546 S    
C34   C35   1.398387 A    
C12   C13   1.401131 A    
Cu1   N1    2.025076 S    
C11   C12   1.393275 A    
C5    C6    1.408705 A    
