data_mof_unit_55094.cif
_audit_creation_date              2013-03-05T16:08:01-0500
_audit_creation_method            fapswitch 2.2
_symmetry_space_group_name_H-M    P1
_symmetry_Int_Tables_number       1
_space_group_crystal_system       triclinic
_cell_length_a                    23.456855
_cell_length_b                    11.562101
_cell_length_c                    10.762183
_cell_angle_alpha                 89.999765
_cell_angle_beta                  90.00443
_cell_angle_gamma                 90.06196
_cell_volume                      2918.81560392

loop_
_atom_site_label
_atom_site_type_symbol
_atom_site_description
_atom_site_fract_x
_atom_site_fract_y
_atom_site_fract_z
_atom_type_partial_charge
O1    O     O_R   0.500000 0.334450 0.602530 -0.617699
O2    O     O_R   0.500000 0.665550 0.397470 -0.618743
O3    O     O_R   0.500000 0.665550 0.602530 -0.617547
O4    O     O_R   0.500000 0.334450 0.397470 -0.618581
C1    C     C_R   0.500044 0.281144 0.499979 0.876748
C2    C     C_R   0.499950 0.718856 0.499979 0.876807
O5    O     O_R   0.416150 0.500000 0.602560 -0.571791
O6    O     O_R   0.583850 0.500000 0.397440 -0.576529
O7    O     O_R   0.583850 0.500000 0.602560 -0.571810
O8    O     O_R   0.416150 0.500000 0.397440 -0.576546
C3    C     C_R   0.388876 0.502423 0.499984 0.983569
C4    C     C_R   0.611122 0.497591 0.499995 0.983621
Zn1   Zn    Zn3+2 0.500000 0.500000 0.636920 0.999098
Zn2   Zn    Zn3+2 0.500000 0.500000 0.363080 0.998172
C5    C     C_R   0.877982 0.588795 0.476458 0.624533
C6    C     C_R   0.122008 0.411111 0.476321 0.624578
C7    C     C_R   0.883982 0.382814 0.492384 0.535492
C8    C     C_R   0.116012 0.617096 0.492180 0.535296
N1    N     N_R   0.852734 0.482368 0.485399 -0.289430
N2    N     N_R   0.147258 0.517541 0.485194 -0.289426
C9    C     C_R   0.943332 0.387415 0.484488 -0.031014
C10   C     C_R   0.056660 0.612492 0.484362 -0.031002
C11   C     C_R   0.937306 0.598257 0.477430 -0.053495
C12   C     C_R   0.062684 0.401647 0.477370 -0.053545
C13   C     C_R   0.970116 0.496380 0.479816 -0.016612
C14   C     C_R   0.029874 0.503525 0.479769 -0.016625
C15   C     C_R   0.976370 0.286284 0.483117 -0.171205
C16   C     C_R   0.023622 0.713622 0.483005 -0.171187
C17   C     C_R   0.964416 0.706563 0.477657 -0.156707
C18   C     C_R   0.035574 0.293342 0.477678 -0.156698
O9    O     O_2   0.845610 0.684939 0.467905 -0.555332
O10   O     O_2   0.154379 0.314966 0.467779 -0.555235
O11   O     O_2   0.857683 0.280187 0.509156 -0.609631
O12   O     O_2   0.142315 0.719729 0.508893 -0.609661
H1    H     H_    0.956615 0.201591 0.485534 0.187878
H2    H     H_    0.043377 0.798317 0.485363 0.187892
H3    H     H_    0.940004 0.786018 0.476185 0.188957
H4    H     H_    0.059986 0.213886 0.476200 0.188962
C19   C     C_R   0.239104 0.569290 0.392554 0.386083
C20   C     C_R   0.760891 0.430558 0.392752 0.386042
C21   C     C_R   0.235307 0.481133 0.598541 0.318305
C22   C     C_R   0.764678 0.518914 0.598646 0.318245
C23   C     C_R   0.298974 0.570473 0.398877 0.272137
C24   C     C_R   0.701020 0.429394 0.399040 0.272170
C25   C     C_R   0.294616 0.469279 0.599055 0.315175
C26   C     C_R   0.705375 0.530895 0.599037 0.315224
C27   C     C_R   0.326704 0.514853 0.499747 -0.393789
C28   C     C_R   0.673290 0.485171 0.499794 -0.393845
C29   C     C_R   0.207910 0.524013 0.492522 0.010460
C30   C     C_R   0.792082 0.475898 0.492708 0.010397
C31   C     C_1   0.500092 0.161048 0.499880 -0.191801
C32   C     C_1   0.499902 0.838952 0.499877 -0.191767
C33   C     C_1   0.500046 0.059146 0.499786 -0.006331
C34   C     C_1   0.499948 0.940853 0.499784 -0.006285
N3    N     N_1   0.500000 0.500000 0.180630 -0.076728
N4    N     N_1   0.500000 0.500000 0.819370 -0.071909
C35   C     C_1   0.500000 0.500000 0.069719 0.048822
C36   C     C_1   0.500000 0.500000 0.930286 0.061686
O13   O     O_3   0.210379 0.596252 0.283531 -0.575801
C37   C     C_3   0.213228 0.716136 0.258370 0.168434
H5    H     H_    0.249714 0.733841 0.195504 0.172819
H6    H     H_    0.217474 0.770221 0.343662 0.151835
C38   C     C_3   0.159103 0.753373 0.191560 -0.805132
H7    H     H_    0.121163 0.734728 0.249879 0.270147
H8    H     H_    0.160749 0.847673 0.172298 0.210814
H9    H     H_    0.155000 0.706427 0.102132 0.242585
O14   O     O_3   0.789620 0.403564 0.283758 -0.575900
C39   C     C_3   0.786756 0.283684 0.258597 0.168454
H10   H     H_    0.750252 0.265990 0.195763 0.172949
H11   H     H_    0.782529 0.229602 0.343892 0.151896
C40   C     C_3   0.840863 0.246446 0.191738 -0.805389
H12   H     H_    0.878809 0.264945 0.250093 0.270142
H13   H     H_    0.839178 0.152181 0.172326 0.210825
H14   H     H_    0.844984 0.293510 0.102392 0.242708
O15   O     O_3   0.203366 0.436696 0.695330 -0.584022
C41   C     C_3   0.196209 0.523816 0.785596 0.096653
H15   H     H_    0.174667 0.601138 0.745395 0.154847
H16   H     H_    0.238072 0.549965 0.825745 0.173021
C42   C     C_3   0.159049 0.476930 0.889827 -0.760332
H17   H     H_    0.179705 0.400389 0.932947 0.265752
H18   H     H_    0.152966 0.544318 0.961925 0.211947
H19   H     H_    0.116701 0.451306 0.852584 0.251826
O16   O     O_3   0.796608 0.563380 0.695445 -0.583914
C43   C     C_3   0.803640 0.476361 0.785871 0.096689
H20   H     H_    0.825319 0.399101 0.745932 0.154820
H21   H     H_    0.761719 0.450097 0.825634 0.172840
C44   C     C_3   0.840542 0.523444 0.890451 -0.760267
H22   H     H_    0.819739 0.599943 0.933275 0.265730
H23   H     H_    0.846513 0.456147 0.962675 0.212145
H24   H     H_    0.882945 0.549161 0.853641 0.251848
O17   O     O_3   0.329776 0.616539 0.300835 -0.559931
C45   C     C_3   0.352057 0.725476 0.336616 0.113063
H25   H     H_    0.381300 0.718182 0.417407 0.128801
H26   H     H_    0.317481 0.786793 0.361983 0.094836
C46   C     C_3   0.385467 0.776694 0.228707 -0.768042
H27   H     H_    0.356907 0.789812 0.147616 0.235410
H28   H     H_    0.403923 0.861352 0.256421 0.203378
H29   H     H_    0.420624 0.717506 0.201762 0.270464
O18   O     O_3   0.670216 0.383152 0.301083 -0.560005
C47   C     C_3   0.647957 0.274261 0.337088 0.112887
H30   H     H_    0.618641 0.281728 0.417722 0.128915
H31   H     H_    0.682539 0.213072 0.362804 0.094881
C48   C     C_3   0.614662 0.222681 0.229194 -0.768266
H32   H     H_    0.643310 0.209262 0.148320 0.235273
H33   H     H_    0.596168 0.138121 0.257149 0.203465
H34   H     H_    0.579536 0.281782 0.201802 0.270456
O19   O     O_3   0.321495 0.416764 0.698954 -0.579392
C49   C     C_3   0.311289 0.295841 0.698284 0.184743
H35   H     H_    0.275803 0.267074 0.636325 0.166654
H36   H     H_    0.299605 0.269185 0.794105 0.169836
C50   C     C_3   0.365327 0.231943 0.661028 -0.850195
H37   H     H_    0.401010 0.256833 0.723390 0.279077
H38   H     H_    0.358375 0.137161 0.668140 0.210277
H39   H     H_    0.376640 0.253422 0.563572 0.236909
O20   O     O_3   0.678499 0.583758 0.698725 -0.579299
C51   C     C_3   0.688765 0.704663 0.697619 0.184892
H40   H     H_    0.724355 0.733122 0.635801 0.166848
H41   H     H_    0.700327 0.731649 0.793404 0.169714
C52   C     C_3   0.634817 0.768551 0.659709 -0.850716
H42   H     H_    0.599082 0.744291 0.722217 0.278854
H43   H     H_    0.641877 0.863358 0.666020 0.210361
H44   H     H_    0.623512 0.746416 0.562410 0.237040

loop_
_geom_bond_atom_site_label_1
_geom_bond_atom_site_label_2
_geom_bond_distance
_ccdc_geom_bond_type
C44   H22   1.110777 S    
C38   H8    1.110467 S    
C46   H27   1.110658 S    
C3    C27   1.465572 S    
C50   H37   1.110515 S    
C43   C44   1.520265 S    
C4    C28   1.465465 S    
O3    C2    1.264106 A    
C46   H29   1.110754 S    
C33   C34   1.367715 S    
C49   H35   1.116902 S    
C5    N1    1.368434 A    
C26   O20   1.386709 S    
C37   C38   1.521591 S    
O1    C1    1.264106 A    
C11   C17   1.403835 A    
C16   C17   1.392285 A    
C43   H21   1.114313 S    
C24   O18   1.385065 S    
O20   C51   1.418294 S    
C51   H40   1.116837 S    
C18   H4    1.083160 S    
C37   H6    1.115090 S    
C22   C26   1.398098 A    
C25   C27   1.409163 A    
O7    Zn1   2.001345 S    
C45   H25   1.110702 S    
C40   H14   1.109025 S    
O18   C47   1.416501 S    
C51   H41   1.110561 S    
C39   H10   1.109907 S    
C20   O14   1.388559 S    
O19   C49   1.418237 S    
C41   C42   1.520230 S    
C48   H34   1.110804 S    
O3    Zn1   1.949559 S    
C6    N2    1.368429 A    
Zn1   N4    1.963559 S    
C5    C11   1.395774 A    
Zn2   N3    1.963560 S    
C9    C15   1.403562 A    
C38   H9    1.109077 S    
O13   C37   1.413825 S    
C6    C12   1.395778 A    
C10   C16   1.403554 A    
C15   C18   1.392292 A    
O2    C2    1.263708 A    
C7    O11   1.348908 S    
C21   C29   1.400448 A    
C32   C34   1.178194 T    
C52   H43   1.110518 S    
C26   C28   1.409147 A    
O14   C39   1.413795 S    
C41   H15   1.114761 S    
C50   H38   1.110418 S    
O8    Zn2   2.001348 S    
O17   C45   1.416484 S    
C42   H18   1.108948 S    
C19   C23   1.406061 A    
C15   H1    1.083205 S    
C13   C14   1.404076 A    
C47   C48   1.520800 S    
C23   O17   1.385038 S    
C42   H17   1.110930 S    
C37   H5    1.109887 S    
C31   C33   1.178194 T    
O5    C3    1.276203 A    
O15   C41   1.409598 S    
N2    C29   1.426757 S    
C21   O15   1.381900 S    
O16   C43   1.409578 S    
C20   C24   1.406065 A    
O6    C4    1.275978 A    
C19   O13   1.388585 S    
C45   H26   1.111849 S    
C48   H33   1.110707 S    
C49   C50   1.521642 S    
C43   H20   1.114614 S    
C8    O12   1.348920 S    
C22   C30   1.400459 A    
C19   C29   1.402230 A    
N3    C35   1.193643 T    
O1    Zn1   1.949563 S    
C40   H13   1.110401 S    
C47   H31   1.111896 S    
C52   H44   1.110023 S    
C9    C13   1.408119 A    
O6    Zn2   2.001289 S    
C8    C10   1.395694 A    
C22   O16   1.381892 S    
C12   C14   1.407989 A    
C41   H16   1.114305 S    
O4    C1    1.263708 A    
C42   H19   1.111076 S    
C52   H42   1.110598 S    
C46   H28   1.110657 S    
C5    O9    1.350038 S    
C6    O10   1.350039 S    
C51   C52   1.521653 S    
C44   H23   1.108804 S    
C40   H12   1.109934 S    
N1    C30   1.426766 S    
C35   C36   1.500605 S    
C49   H36   1.110599 S    
C39   C40   1.521589 S    
C20   C30   1.402285 A    
C47   H30   1.110691 S    
C7    N1    1.367356 A    
N4    C36   1.193699 T    
C50   H39   1.109978 S    
C8    N2    1.367351 A    
C45   C46   1.520755 S    
O4    Zn2   1.949559 S    
O2    Zn2   1.949561 S    
O7    C4    1.276166 A    
C12   C18   1.403839 A    
O8    C3    1.275993 A    
C38   H7    1.109998 S    
C25   O19   1.386663 S    
O5    Zn1   2.001292 S    
C11   C13   1.407984 A    
C16   H2    1.083203 S    
C39   H11   1.115066 S    
C10   C14   1.408116 A    
C44   H24   1.110898 S    
C17   H3    1.083160 S    
C48   H32   1.110646 S    
C21   C25   1.398092 A    
C1    C31   1.388562 S    
C2    C32   1.388562 S    
C23   C27   1.419837 A    
C24   C28   1.419791 A    
C7    C9    1.395709 A    
