data_mof_unit_21756.cif
_audit_creation_date              2012-12-10T17:52:36-0500
_audit_creation_method            fapswitch 2.2
_symmetry_space_group_name_H-M    P1
_symmetry_Int_Tables_number       1
_space_group_crystal_system       triclinic
_cell_length_a                    14.728962
_cell_length_b                    14.672907
_cell_length_c                    23.523582
_cell_angle_alpha                 75.519832
_cell_angle_beta                  103.349632
_cell_angle_gamma                 115.095689
_cell_volume                      4412.26818216

loop_
_atom_site_label
_atom_site_type_symbol
_atom_type_description
_atom_site_fract_x
_atom_site_fract_y
_atom_site_fract_z
_atom_type_partial_charge
C1    C     C_R   0.880393 0.311505 0.508882 0.856080
C2    C     C_R   0.119583 0.688187 0.492398 0.825469
C3    C     C_R   0.092032 0.522121 0.771213 -0.263638
C4    C     C_R   0.914920 0.486393 0.227152 -0.296382
C5    C     C_R   0.093609 0.523072 0.711885 0.489289
C6    C     C_R   0.910999 0.486516 0.286284 0.465902
C7    C     C_R   0.003076 0.504435 0.671296 -0.215407
C8    C     C_R   0.999495 0.499645 0.328176 -0.172624
C9    C     C_R   0.913751 0.490153 0.690539 -0.387256
C10   C     C_R   0.090012 0.514686 0.309965 -0.399911
C11   C     C_R   0.912519 0.489070 0.750083 0.545751
C12   C     C_R   0.093318 0.514432 0.250767 0.553435
C13   C     C_R   0.002435 0.506160 0.790266 0.179683
C14   C     C_R   0.005432 0.502197 0.209346 0.212000
C15   C     C_R   0.813319 0.201873 0.514070 -0.199587
C16   C     C_R   0.186871 0.795739 0.496046 -0.225860
C17   C     C_R   0.777497 0.023389 0.515084 0.394946
C18   C     C_R   0.219996 0.969058 0.505409 0.400839
C19   C     C_R   0.847510 0.126607 0.511327 0.382326
C20   C     C_R   0.151031 0.868500 0.500513 0.378634
C21   C     C_R   0.712470 0.174416 0.520393 -0.328321
C22   C     C_R   0.290944 0.822800 0.500451 -0.331796
C23   C     C_R   0.000953 0.501221 0.608938 0.823844
C24   C     C_R   0.999482 0.499546 0.390922 0.874008
C25   C     C_R   0.641889 0.073023 0.523708 0.028714
C26   C     C_R   0.361712 0.918650 0.512829 0.024500
C27   C     C_R   0.676641 0.996861 0.523045 -0.001660
C28   C     C_R   0.325183 0.993189 0.513829 -0.012363
C29   C     C_R   0.536750 0.045803 0.524645 0.119901
C30   C     C_R   0.467867 0.943252 0.521674 0.118232
C31   C     C_R   0.507287 0.868151 0.528162 -0.238549
C32   C     C_R   0.497526 0.117457 0.527173 -0.217146
C33   C     C_R   0.609364 0.894621 0.528630 -0.162573
C34   C     C_R   0.394106 0.091108 0.522538 -0.177416
C35   C     C_R   0.698667 0.642680 0.386832 0.292341
C36   C     C_R   0.297631 0.348938 0.609764 0.347367
C37   C     C_R   0.789286 0.627059 0.409840 0.588660
C38   C     C_R   0.214380 0.377661 0.592133 0.579102
C39   C     C_R   0.718036 0.515069 0.494594 -0.074743
C40   C     C_R   0.277022 0.475225 0.501997 -0.081782
C41   C     C_R   0.625364 0.529771 0.475015 -0.113606
C42   C     C_R   0.367362 0.455182 0.519714 -0.121169
C43   C     C_R   0.614161 0.589006 0.418134 -0.145118
C44   C     C_R   0.378368 0.394657 0.576075 -0.156791
C45   C     C_R   0.006255 0.587918 0.107230 0.618719
C46   C     C_R   0.003820 0.421346 0.892526 0.590799
C47   C     C_R   0.542506 0.484521 0.508891 0.032278
C48   C     C_R   0.448534 0.496199 0.484695 0.034732
C49   C     C_R   0.437928 0.546265 0.425793 -0.306082
C50   C     C_R   0.551621 0.430114 0.566818 -0.297092
C51   C     C_R   0.517983 0.590417 0.392948 0.639109
C52   C     C_R   0.471526 0.385044 0.599319 0.648426
C53   C     C_R   0.007184 0.420097 0.132624 0.626870
C54   C     C_R   0.002639 0.589066 0.867085 0.645392
C55   C     C_R   0.006908 0.419068 0.073146 -0.086879
C56   C     C_R   0.003559 0.590371 0.926617 -0.095604
C57   C     C_R   0.005845 0.504824 0.029995 -0.089574
C58   C     C_R   0.004809 0.504689 0.969789 -0.089764
C59   C     C_R   0.005577 0.590526 0.046912 -0.144337
C60   C     C_R   0.004960 0.418933 0.952869 -0.138476
C61   C     C_R   0.007126 0.334210 0.055971 -0.222059
C62   C     C_R   0.003456 0.675272 0.943804 -0.215126
C63   C     C_R   0.006181 0.333772 0.996628 0.657199
C64   C     C_R   0.004453 0.675727 0.003156 0.659220
Cu1   Cu    Cu3+1 0.081740 0.475680 0.515360 0.994345
Cu2   Cu    Cu3+1 0.918260 0.524320 0.484640 0.999535
H1    H     H_    0.007955 0.267526 0.088458 0.214677
H2    H     H_    0.002553 0.741924 0.911309 0.216157
H3    H     H_    0.461055 0.787471 0.533475 0.150195
H4    H     H_    0.544384 0.194850 0.533330 0.143307
H5    H     H_    0.265777 0.524570 0.461052 0.156323
H6    H     H_    0.728895 0.463544 0.534489 0.151550
H7    H     H_    0.366959 0.550522 0.403203 0.148489
H8    H     H_    0.621109 0.422239 0.589215 0.154505
H9    H     H_    0.161044 0.534847 0.802551 0.187146
H10   H     H_    0.847337 0.472448 0.194678 0.168719
H11   H     H_    0.844383 0.478517 0.659582 0.188091
H12   H     H_    0.158634 0.528786 0.341642 0.176115
H13   H     H_    0.634834 0.834006 0.531811 0.194357
H14   H     H_    0.368293 0.149069 0.524668 0.178994
H15   H     H_    0.315184 0.767489 0.493154 0.188777
H16   H     H_    0.690474 0.235053 0.521273 0.181326
N1    N     N_R   0.006979 0.503646 0.148378 -0.445746
N2    N     N_R   0.002720 0.505464 0.851354 -0.450118
N3    N     N_R   0.795430 0.560810 0.461550 -0.231154
N4    N     N_R   0.204570 0.439190 0.538450 -0.238562
O1    O     O_R   0.977900 0.338110 0.520250 -0.545533
O2    O     O_R   0.022100 0.661890 0.479750 -0.523826
O3    O     O_R   0.839850 0.379180 0.494310 -0.591351
O4    O     O_R   0.160150 0.620820 0.505690 -0.594103
O5    O     O_R   0.069020 0.479430 0.595090 -0.482196
O6    O     O_R   0.930980 0.520570 0.404910 -0.486160
O7    O     O_R   0.930970 0.520500 0.569150 -0.609989
O8    O     O_R   0.069030 0.479500 0.430850 -0.603916
O9    O     O_2   0.006403 0.668666 0.124896 -0.440882
O10   O     O_2   0.003410 0.340492 0.874843 -0.446924
O11   O     O_2   0.006846 0.338025 0.174400 -0.546323
O12   O     O_2   0.002139 0.670769 0.825202 -0.518981
O13   O     O_3   0.806905 0.947852 0.510604 -0.595700
C65   C     C_3   0.790541 0.939422 0.450367 -0.362951
H17   H     H_    0.838694 0.010869 0.423838 0.197114
H18   H     H_    0.709420 0.919296 0.431093 0.161245
H19   H     H_    0.811959 0.877069 0.447426 0.182039
O14   O     O_3   0.184139 0.042597 0.504622 -0.608913
C66   C     C_3   0.164252 0.086866 0.445002 -0.340664
H20   H     H_    0.100009 0.030601 0.420281 0.191829
H21   H     H_    0.232579 0.119227 0.422250 0.166345
H22   H     H_    0.142466 0.150946 0.444046 0.195797
F1    F     F_    0.498756 0.631760 0.335306 -0.641193
F2    F     F_    0.488897 0.337079 0.655635 -0.636309
O15   O     O_3   0.155619 0.362153 0.634500 -0.499857
C67   C     C_3   0.083631 0.261096 0.643069 -0.216189
H23   H     H_    0.018043 0.261097 0.658639 0.174919
H24   H     H_    0.115171 0.212070 0.678317 0.188534
H25   H     H_    0.054228 0.228652 0.601864 0.135532
O16   O     O_3   0.867259 0.666237 0.376071 -0.551307
C68   C     C_3   0.917769 0.772973 0.372896 -0.221974
H26   H     H_    0.000446 0.792952 0.378060 0.191533
H27   H     H_    0.904240 0.803423 0.407667 0.148904
H28   H     H_    0.896416 0.811712 0.328151 0.175579
O17   O     O_3   0.690348 0.699316 0.330477 -0.526091
C69   C     C_3   0.691286 0.794447 0.334306 -0.162582
H29   H     H_    0.660426 0.827026 0.290201 0.217269
H30   H     H_    0.769483 0.849374 0.345413 0.089712
H31   H     H_    0.644123 0.788768 0.366778 0.148609
O18   O     O_3   0.303524 0.284499 0.663385 -0.496699
C70   C     C_3   0.277529 0.185679 0.651853 -0.190486
H32   H     H_    0.199838 0.155382 0.627158 0.088958
H33   H     H_    0.279131 0.133211 0.694817 0.200244
H34   H     H_    0.332229 0.184133 0.626854 0.179077
F3    F     F_    0.006424 0.249571 0.982603 -0.589300
F4    F     F_    0.004177 0.759913 0.017180 -0.588233
O19   O     O_3   0.183559 0.539538 0.694506 -0.512893
C71   C     C_3   0.234199 0.645367 0.675730 -0.230411
H35   H     H_    0.254878 0.688155 0.712861 0.150125
H36   H     H_    0.188179 0.675872 0.637598 0.118434
H37   H     H_    0.305388 0.658617 0.660521 0.198092
O20   O     O_3   0.819930 0.463696 0.305213 -0.570573
C72   C     C_3   0.772648 0.529511 0.270691 -0.145482
H38   H     H_    0.730907 0.502712 0.228355 0.145674
H39   H     H_    0.827295 0.610428 0.262159 0.184132
H40   H     H_    0.716006 0.527349 0.295484 0.207554
O21   O     O_3   0.825171 0.477061 0.768827 -0.556786
C73   C     C_3   0.757770 0.373820 0.771968 -0.216894
H41   H     H_    0.793330 0.321857 0.801342 0.169233
H42   H     H_    0.729370 0.352435 0.727113 0.166060
H43   H     H_    0.691305 0.362970 0.791389 0.220346
O22   O     O_3   0.182682 0.534165 0.230931 -0.556479
C74   C     C_3   0.228305 0.466838 0.265279 -0.192667
H44   H     H_    0.172213 0.386785 0.274708 0.157934
H45   H     H_    0.272144 0.494141 0.307135 0.164700
H46   H     H_    0.282699 0.466072 0.239898 0.209347
O23   O     O_3   0.048538 0.843745 0.496958 -0.587791
C75   C     C_3   0.024334 0.819192 0.554952 -0.236904
H47   H     H_    0.062729 0.886387 0.577982 0.173073
H48   H     H_    0.043410 0.753682 0.581491 0.136483
H49   H     H_    0.941471 0.796019 0.552038 0.199132
O24   O     O_3   0.943921 0.158559 0.496313 -0.586086
C76   C     C_3   0.997179 0.097856 0.530545 -0.224346
H50   H     H_    0.974680 0.062662 0.575587 0.142461
H51   H     H_    0.078977 0.147251 0.536321 0.164659
H52   H     H_    0.989065 0.038390 0.506343 0.243167

loop_
_geom_bond_atom_site_label_1
_geom_bond_atom_site_label_2
_ccdc_geom_bond_type
C1    O1    A    
O18   C70   S    
C40   H5    S    
C72   H39   S    
O15   C67   S    
C71   H37   S    
C67   H24   S    
C10   H12   S    
Cu1   N4    S    
C39   C41   A    
C37   O16   S    
C27   C33   A    
C15   C19   A    
C66   H21   S    
C13   N2    S    
C59   C64   A    
C38   N4    A    
C60   C63   A    
C37   N3    A    
C35   C37   A    
C29   C32   A    
C68   H27   S    
C76   H50   S    
Cu2   O2    S    
C30   C31   A    
C72   H40   S    
C57   C59   A    
C58   C60   A    
O21   C73   S    
O16   C68   S    
C2    O4    A    
C40   N4    A    
C61   C63   A    
O14   C66   S    
C62   C64   A    
C34   H14   S    
C45   C59   A    
C64   F4    S    
C49   C51   A    
C47   C48   A    
C50   C52   A    
C39   H6    S    
C76   H51   S    
C2    O2    A    
C1    C15   S    
C63   F3    S    
C23   O5    A    
Cu2   O3    S    
C2    C16   S    
C75   H48   S    
C3    C13   A    
C56   C62   A    
C44   C52   A    
C40   C42   A    
C28   C34   A    
C51   F1    S    
C41   C43   A    
C45   N1    A    
C42   C44   A    
C14   N1    S    
Cu2   N3    S    
C73   H43   S    
C24   O6    A    
C54   N2    A    
C67   H23   S    
Cu1   O1    S    
C47   C50   A    
C53   C55   A    
C25   C29   A    
Cu1   O4    S    
C66   H22   S    
C54   C56   A    
C20   O23   S    
C17   C27   A    
C22   H15   S    
C35   O17   S    
C18   C28   A    
O22   C74   S    
C75   H49   S    
C73   H42   S    
C68   H28   S    
C5    C7    A    
C32   H4    S    
C33   H13   S    
Cu2   O6    S    
C53   O11   S    
C65   H19   S    
C23   O7    A    
C16   C22   A    
C32   C34   A    
C6    O20   S    
C5    O19   S    
C70   H33   S    
C71   H36   S    
C29   C30   A    
C24   O8    A    
C9    C11   A    
C61   H1    S    
O13   C65   S    
C52   F2    S    
C16   C20   A    
C31   C33   A    
C41   C47   A    
C76   H52   S    
C42   C48   A    
C17   O13   S    
C50   H8    S    
C75   H47   S    
O17   C69   S    
C10   C12   A    
Cu2   O7    S    
C46   N2    A    
C4    C6    A    
Cu1   O8    S    
C12   C14   A    
C26   C30   A    
C55   C57   A    
O19   C71   S    
C49   H7    S    
C74   H46   S    
C39   N3    A    
C69   H30   S    
C70   H32   S    
C45   O9    S    
C35   C43   A    
C3    H9    S    
C65   H18   S    
Cu1   O5    S    
C21   C25   A    
C48   C49   A    
C1    O3    A    
C46   C60   A    
C19   O24   S    
C36   O18   S    
C18   O14   S    
C73   H41   S    
C3    C5    A    
C6    C8    A    
C72   H38   S    
C71   H35   S    
C25   C27   A    
C66   H20   S    
C26   C28   A    
C62   H2    S    
C53   N1    A    
C12   O22   S    
C69   H31   S    
C74   H45   S    
C9    H11   S    
C70   H34   S    
C68   H26   S    
C38   O15   S    
C11   C13   A    
C43   C51   A    
C57   C58   A    
O24   C76   S    
C15   C21   A    
C7    C23   S    
C55   C61   A    
C36   C38   A    
C65   H17   S    
C8    C24   S    
C56   C58   A    
C18   C20   A    
C4    C14   A    
C4    H10   S    
C36   C44   A    
O20   C72   S    
C17   C19   A    
C7    C9    A    
C31   H3    S    
C46   O10   S    
C21   H16   S    
C8    C10   A    
Cu1   Cu2   S    
C22   C26   A    
C54   O12   S    
C69   H29   S    
C74   H44   S    
C11   O21   S    
C67   H25   S    
O23   C75   S    
