data_mof_unit_62345.cif
_audit_creation_date              2012-12-10T18:54:05-0500
_audit_creation_method            fapswitch 2.2
_symmetry_space_group_name_H-M    P1
_symmetry_Int_Tables_number       1
_space_group_crystal_system       triclinic
_cell_length_a                    19.424385
_cell_length_b                    19.458829
_cell_length_c                    19.408925
_cell_angle_alpha                 85.014834
_cell_angle_beta                  95.603939
_cell_angle_gamma                 90.265639
_cell_volume                      7273.36917471

loop_
_atom_site_label
_atom_site_type_symbol
_atom_type_description
_atom_site_fract_x
_atom_site_fract_y
_atom_site_fract_z
_atom_type_partial_charge
C1    C     C_R   0.312019 0.492192 0.491849 0.501642
C2    C     C_2   0.460344 0.979293 0.503653 -0.126182
C3    C     C_2   0.517260 0.018218 0.509157 -0.092782
C4    C     C_R   0.688096 0.508262 0.507549 0.506044
C5    C     C_R   0.511098 0.236698 0.510883 0.039022
C6    C     C_R   0.763725 0.509114 0.514023 0.013698
C7    C     C_R   0.798351 0.446203 0.513300 -0.122260
C8    C     C_R   0.870793 0.443137 0.519396 0.287864
C9    C     C_R   0.908228 0.504424 0.527853 0.037545
C10   C     C_R   0.873925 0.566978 0.530328 -0.144759
C11   C     C_R   0.801759 0.570404 0.522829 -0.018125
C12   C     C_R   0.466347 0.904343 0.503402 0.036087
C13   C     C_R   0.126575 0.541104 0.497948 -0.147144
C14   C     C_R   0.198164 0.546260 0.499111 -0.028751
C15   C     C_R   0.203110 0.425326 0.472476 -0.004823
C16   C     C_R   0.508953 0.492014 0.688934 0.500485
C17   C     C_R   0.131100 0.420400 0.474641 0.293600
C18   C     C_R   0.093054 0.478665 0.486736 0.007200
C19   C     C_2   0.983820 0.505605 0.531487 -0.122352
C20   C     C_2   0.017616 0.474472 0.485919 -0.092454
C21   C     C_R   0.236778 0.487982 0.487024 0.035547
C22   C     C_R   0.488475 0.512966 0.235444 0.038444
C23   C     C_R   0.426128 0.870938 0.452689 -0.169667
C24   C     C_R   0.495726 0.452581 0.203043 -0.184153
C25   C     C_R   0.495664 0.455141 0.131590 -0.141026
C26   C     C_R   0.492623 0.518761 0.091166 0.015042
C27   C     C_R   0.485331 0.580620 0.123346 0.023734
C28   C     C_R   0.491615 0.508262 0.311163 0.530597
C29   C     C_R   0.479550 0.577020 0.195591 0.283396
C30   C     C_R   0.544118 0.538473 0.872537 -0.114631
C31   C     C_R   0.538571 0.543349 0.800363 -0.127711
C32   C     C_R   0.500624 0.424162 0.802052 -0.122985
C33   C     C_R   0.507610 0.418897 0.874368 -0.116423
C34   C     C_R   0.434583 0.800484 0.448144 -0.145366
C35   C     C_R   0.527800 0.476443 0.909658 0.037379
C36   C     C_2   0.496263 0.520782 0.015358 -0.131209
C37   C     C_2   0.528300 0.472203 0.985196 -0.138303
C38   C     C_R   0.515666 0.486578 0.764744 0.040780
C39   C     C_R   0.508296 0.311924 0.508434 0.496215
C40   C     C_R   0.491135 0.688321 0.492272 0.509581
C41   C     C_R   0.483278 0.762834 0.494588 -0.010518
C42   C     C_R   0.522241 0.796110 0.546476 -0.105628
C43   C     C_R   0.512924 0.866126 0.552320 0.282670
C44   C     C_3   0.232413 0.613793 0.514566 -0.381806
C45   C     C_R   0.460951 0.125218 0.539993 -0.111287
C46   C     C_3   0.241883 0.363604 0.453103 -0.354027
C47   C     C_3   0.767075 0.639692 0.522239 -0.367595
C48   C     C_3   0.882896 0.340405 0.470247 -0.136923
C49   C     C_3   0.089040 0.321019 0.524446 -0.121114
C50   C     C_3   0.486802 0.649931 0.081587 -0.392582
C51   C     C_3   0.400801 0.654124 0.221845 -0.104264
C52   C     C_3   0.513944 0.893357 0.663417 -0.124449
C53   C     C_R   0.459514 0.196624 0.540326 -0.129869
C54   C     C_R   0.564980 0.204421 0.482566 -0.122275
C55   C     C_R   0.566772 0.133018 0.482922 -0.121420
C56   C     C_R   0.514175 0.093215 0.510354 0.032728
H1    H     H_    0.559251 0.767797 0.583632 0.146047
H2    H     H_    0.550872 0.591776 0.772423 0.125552
H3    H     H_    0.483868 0.379481 0.775340 0.128872
H4    H     H_    0.552368 0.427422 0.014977 0.119653
H5    H     H_    0.560708 0.583093 0.899445 0.107682
H6    H     H_    0.471971 0.563822 0.982664 0.125982
H7    H     H_    0.498190 0.406766 0.108436 0.116469
H8    H     H_    0.605761 0.234298 0.460183 0.130288
H9    H     H_    0.495117 0.370753 0.902732 0.105511
H10   H     H_    0.567895 0.994462 0.509630 0.164930
H11   H     H_    0.389425 0.899748 0.415606 0.114194
H12   H     H_    0.608626 0.108866 0.460739 0.103114
H13   H     H_    0.420957 0.095212 0.563531 0.103002
H14   H     H_    0.403323 0.775628 0.408239 0.139465
H15   H     H_    0.409257 0.002743 0.494728 0.104043
H16   H     H_    0.194512 0.652515 0.526628 0.112865
H17   H     H_    0.271564 0.605450 0.560180 0.130486
H18   H     H_    0.257891 0.635703 0.468865 0.157810
H19   H     H_    0.295444 0.375832 0.441173 0.121099
H20   H     H_    0.244037 0.322061 0.496194 0.133210
H21   H     H_    0.214988 0.343905 0.405657 0.157938
H22   H     H_    0.739272 0.641598 0.569335 0.166357
H23   H     H_    0.768662 0.399172 0.510063 0.121780
H24   H     H_    0.805155 0.682463 0.521973 0.112811
H25   H     H_    0.730118 0.648909 0.474969 0.140431
H26   H     H_    0.873415 0.371809 0.419380 0.109631
H27   H     H_    0.835863 0.311055 0.482632 0.119495
H28   H     H_    0.923747 0.302181 0.464703 0.149025
H29   H     H_    0.064179 0.271256 0.513214 0.138894
H30   H     H_    0.054672 0.348107 0.555961 0.163512
H31   H     H_    0.139630 0.309089 0.555130 0.105468
H32   H     H_    0.439381 0.656566 0.044776 0.104144
H33   H     H_    0.489905 0.693766 0.114627 0.175236
H34   H     H_    0.989654 0.444229 0.447930 0.184884
H35   H     H_    0.533090 0.653171 0.052109 0.124792
H36   H     H_    0.393921 0.698611 0.252623 0.140839
H37   H     H_    0.368544 0.611101 0.242473 0.133617
H38   H     H_    0.381645 0.670055 0.166968 0.096925
H39   H     H_    0.505545 0.838799 0.683107 0.107012
H40   H     H_    0.463585 0.921158 0.652164 0.116859
H41   H     H_    0.544492 0.918670 0.705370 0.143752
H42   H     H_    0.903884 0.613600 0.536496 0.110380
H43   H     H_    0.096660 0.586277 0.505347 0.114399
H44   H     H_    0.011514 0.536741 0.568889 0.108934
H45   H     H_    0.417673 0.220437 0.562794 0.127623
H46   H     H_    0.500404 0.402966 0.233180 0.130724
O1    O     O_3   0.500000 0.500000 0.500000 -0.440334
O2    O     O_R   0.467830 0.341070 0.546160 -0.551993
O3    O     O_R   0.450560 0.655630 0.450550 -0.541315
O4    O     O_R   0.545840 0.347670 0.467560 -0.551968
O5    O     O_R   0.535760 0.655640 0.535740 -0.555080
O6    O     O_3   0.906161 0.380639 0.525016 -0.574211
O7    O     O_3   0.097469 0.359481 0.460794 -0.579537
O8    O     O_3   0.471731 0.636459 0.228466 -0.559670
O9    O     O_3   0.551429 0.897274 0.604586 -0.574992
O10   O     O_R   0.545870 0.536170 0.656040 -0.548269
O11   O     O_R   0.450550 0.545430 0.340370 -0.521455
O12   O     O_R   0.347960 0.451240 0.536460 -0.543624
O13   O     O_R   0.655630 0.467150 0.467130 -0.545670
O14   O     O_R   0.340780 0.536140 0.450970 -0.555305
O15   O     O_R   0.655640 0.545460 0.545430 -0.545008
O16   O     O_R   0.467850 0.451260 0.656340 -0.545023
O17   O     O_R   0.535740 0.467130 0.347260 -0.547741
Zn1   Zn    Zn3+2 0.558310 0.558310 0.558290 0.926879
Zn2   Zn    Zn3+2 0.446830 0.436990 0.558720 0.921750
Zn3   Zn    Zn3+2 0.558290 0.446420 0.446420 0.930670
Zn4   Zn    Zn3+2 0.436570 0.558290 0.436570 0.931720

loop_
_geom_bond_atom_site_label_1
_geom_bond_atom_site_label_2
_ccdc_geom_bond_type
C39   O4    A    
C55   C56   A    
C1    C21   S    
C22   C29   A    
C27   C29   A    
C41   C42   A    
C49   H31   S    
C4    O13   A    
C11   C47   S    
O1    Zn1   S    
C2    C12   S    
C46   H20   S    
C55   H12   S    
C33   H9    S    
C7    C8    A    
C12   C23   A    
C26   C27   A    
C13   C18   A    
C14   C21   A    
C49   O7    S    
C36   C37   D    
O14   Zn4   S    
C12   C43   A    
C30   C31   A    
C52   H41   S    
O3    Zn4   S    
C52   H39   S    
C25   H7    S    
C23   H11   S    
C10   H42   S    
O12   Zn2   S    
C9    C19   S    
C19   C20   D    
C45   C56   A    
C53   H45   S    
C8    C9    A    
C52   H40   S    
C1    O14   A    
C32   C38   A    
C9    C10   A    
C34   H14   S    
C24   H46   S    
C27   C50   S    
C50   H32   S    
O1    Zn4   S    
O13   Zn3   S    
C22   C28   S    
C13   C14   A    
C34   C41   A    
C43   O9    S    
C47   H24   S    
C36   H6    S    
C8    O6    S    
C42   H1    S    
C46   H19   S    
C45   H13   S    
C49   H29   S    
C5    C54   A    
C39   O2    A    
C24   C25   A    
C4    C6    S    
C10   C11   A    
O15   Zn1   S    
C6    C11   A    
O10   Zn1   S    
O2    Zn2   S    
C52   O9    S    
C25   C26   A    
C20   H34   S    
C48   H28   S    
O16   Zn2   S    
C13   H43   S    
C31   H2    S    
C16   O16   A    
C51   H36   S    
C3    C56   S    
C29   O8    S    
C50   H33   S    
O11   Zn4   S    
C23   C34   A    
O4    Zn3   S    
C17   C18   A    
C44   H18   S    
C51   H37   S    
C40   O5    A    
C30   C35   A    
C26   C36   S    
C40   C41   S    
C51   O8    S    
C5    C39   S    
C22   C24   A    
C4    O15   A    
C3    H10   S    
C1    O12   A    
C2    H15   S    
O1    Zn2   S    
O5    Zn1   S    
C16   O10   A    
C7    H23   S    
O17   Zn3   S    
C5    C53   A    
C15   C17   A    
C54   C55   A    
C35   C37   S    
C49   H30   S    
C28   O17   A    
C17   O7    S    
C46   H21   S    
C19   H44   S    
C48   H27   S    
C6    C7    A    
C47   H22   S    
C31   C38   A    
C32   C33   A    
C2    C3    D    
C48   O6    S    
C54   H8    S    
C32   H3    S    
C33   C35   A    
C48   H26   S    
C44   H16   S    
C14   C44   S    
C18   C20   S    
C47   H25   S    
C44   H17   S    
C37   H4    S    
C28   O11   A    
C51   H38   S    
C45   C53   A    
C50   H35   S    
C15   C21   A    
C42   C43   A    
C30   H5    S    
C15   C46   S    
O1    Zn3   S    
C16   C38   S    
C40   O3    A    
