data_mof_unit_54842.cif
_audit_creation_date              2012-12-10T18:28:10-0500
_audit_creation_method            fapswitch 2.2
_symmetry_space_group_name_H-M    P1
_symmetry_Int_Tables_number       1
_space_group_crystal_system       triclinic
_cell_length_a                    22.966922
_cell_length_b                    20.262205
_cell_length_c                    14.933527
_cell_angle_alpha                 90.071662
_cell_angle_beta                  101.695725
_cell_angle_gamma                 89.983364
_cell_volume                      6805.18259886

loop_
_atom_site_label
_atom_site_type_symbol
_atom_type_description
_atom_site_fract_x
_atom_site_fract_y
_atom_site_fract_z
_atom_type_partial_charge
C1    C     C_R   0.574115 0.089219 0.553256 0.843489
C2    C     C_R   0.423720 0.913332 0.444999 0.851331
C3    C     C_R   0.427205 0.090705 0.448055 0.860337
C4    C     C_R   0.576263 0.913373 0.554960 0.845026
C5    C     C_R   0.074151 0.589172 0.553201 0.845392
C6    C     C_R   0.923796 0.413257 0.445058 0.844336
C7    C     C_R   0.925800 0.589088 0.446814 0.843963
C8    C     C_R   0.076101 0.413007 0.554792 0.846568
C9    C     C_R   0.307362 0.318497 0.678652 0.365881
C10   C     C_R   0.747523 0.778940 0.326048 0.367867
C11   C     C_R   0.689819 0.326967 0.336044 0.361205
C12   C     C_R   0.251684 0.780144 0.673843 0.367274
C13   C     C_R   0.810717 0.828823 0.662766 0.361598
C14   C     C_R   0.263472 0.297066 0.335363 0.367371
C15   C     C_R   0.189395 0.827906 0.336587 0.363068
C16   C     C_R   0.751023 0.280773 0.673849 0.367055
C17   C     C_R   0.625856 0.038164 0.211396 -0.215815
C18   C     C_R   0.367126 0.010568 0.786076 -0.215637
C19   C     C_R   0.130387 0.523221 0.212369 -0.210689
C20   C     C_R   0.869880 0.524333 0.787811 -0.216378
C21   C     C_R   0.606809 0.017069 0.289049 0.001898
C22   C     C_R   0.391042 0.000318 0.709048 0.007184
C23   C     C_R   0.108456 0.507755 0.289824 0.006092
C24   C     C_R   0.891624 0.508425 0.710279 0.001651
C25   C     C_R   0.508432 0.001132 0.203701 0.570661
C26   C     C_R   0.489549 0.010124 0.796988 0.579455
C27   C     C_R   0.009133 0.506347 0.203417 0.578044
C28   C     C_R   0.990956 0.506061 0.796564 0.577839
C29   C     C_R   0.523952 0.027868 0.124703 0.000266
C30   C     C_R   0.467422 0.027429 0.875100 0.011569
C31   C     C_R   0.028488 0.527863 0.124783 0.008329
C32   C     C_R   0.971840 0.527904 0.875333 0.009093
C33   C     C_R   0.584497 0.044169 0.129086 0.013763
C34   C     C_R   0.405304 0.023537 0.869669 0.008980
C35   C     C_R   0.090495 0.533338 0.129484 0.009950
C36   C     C_R   0.909891 0.534159 0.870692 0.012844
C37   C     C_R   0.482421 0.036423 0.040640 -0.059888
C38   C     C_R   0.505049 0.043607 0.959930 -0.057719
C39   C     C_R   0.988741 0.540600 0.040422 -0.057786
C40   C     C_R   0.011726 0.540336 0.959724 -0.058698
C41   C     C_R   0.562922 0.070313 0.968105 0.491265
C42   C     C_R   0.419811 0.041973 0.032415 0.481125
C43   C     C_R   0.072551 0.556879 0.967816 0.490224
C44   C     C_R   0.928095 0.557935 0.032403 0.490959
C45   C     C_R   0.602450 0.069014 0.052028 -0.188517
C46   C     C_R   0.382062 0.034594 0.947449 -0.169260
C47   C     C_R   0.111570 0.551705 0.051997 -0.180294
C48   C     C_R   0.889015 0.553034 0.948225 -0.184099
C49   C     C_R   0.628378 0.874003 0.594062 -0.177177
C50   C     C_R   0.392332 0.151010 0.421075 -0.184385
C51   C     C_R   0.371628 0.873727 0.406019 -0.182200
C52   C     C_R   0.613142 0.145334 0.584553 -0.176806
C53   C     C_R   0.127694 0.372489 0.593676 -0.184431
C54   C     C_R   0.886214 0.644616 0.415470 -0.178049
C55   C     C_R   0.871845 0.373482 0.406142 -0.178073
C56   C     C_R   0.113557 0.644956 0.584455 -0.179361
C57   C     C_R   0.720424 0.871255 0.706298 -0.102018
C58   C     C_R   0.335421 0.217675 0.300213 -0.078799
C59   C     C_R   0.279793 0.870035 0.293316 -0.098683
C60   C     C_R   0.681642 0.198174 0.707593 -0.078163
C61   C     C_R   0.214719 0.360627 0.714649 -0.101203
C62   C     C_R   0.815817 0.695021 0.292827 -0.073742
C63   C     C_R   0.780240 0.369303 0.293081 -0.103489
C64   C     C_R   0.183519 0.696168 0.707119 -0.073922
C65   C     C_R   0.660867 0.889334 0.681357 -0.233185
C66   C     C_R   0.375365 0.166935 0.328610 -0.224213
C67   C     C_R   0.339278 0.888324 0.318420 -0.216309
C68   C     C_R   0.638844 0.150657 0.677236 -0.207278
C69   C     C_R   0.156195 0.381326 0.685052 -0.229066
C70   C     C_R   0.858742 0.647818 0.323492 -0.205791
C71   C     C_R   0.839657 0.387824 0.318371 -0.231350
C72   C     C_R   0.140793 0.648698 0.676496 -0.206442
C73   C     C_R   0.654246 0.835570 0.534523 0.416784
C74   C     C_R   0.375143 0.192372 0.487480 0.392308
C75   C     C_R   0.345619 0.835739 0.465785 0.413838
C76   C     C_R   0.627125 0.191495 0.521436 0.391327
C77   C     C_R   0.156623 0.338208 0.533622 0.413977
C78   C     C_R   0.873071 0.691848 0.477997 0.394185
C79   C     C_R   0.845813 0.335551 0.465958 0.415646
C80   C     C_R   0.126752 0.691937 0.521779 0.394320
C81   C     C_R   0.716497 0.828006 0.552543 0.018761
C82   C     C_R   0.333333 0.243451 0.459601 0.019528
C83   C     C_R   0.283369 0.827950 0.447413 0.018962
C84   C     C_R   0.672871 0.238346 0.550659 0.022165
C85   C     C_R   0.218473 0.328470 0.558367 0.018888
C86   C     C_R   0.826747 0.738090 0.448865 0.023251
C87   C     C_R   0.783599 0.327533 0.447343 0.018322
C88   C     C_R   0.172921 0.738412 0.550872 0.022982
C89   C     C_R   0.749441 0.842329 0.641642 -0.024149
C90   C     C_R   0.311069 0.253346 0.364300 -0.025089
C91   C     C_R   0.250631 0.841598 0.358015 -0.027231
C92   C     C_R   0.701458 0.239757 0.644930 -0.029023
C93   C     C_R   0.247039 0.335578 0.651579 -0.025213
C94   C     C_R   0.797142 0.738064 0.354979 -0.031801
C95   C     C_R   0.751002 0.340899 0.357737 -0.023896
C96   C     C_R   0.202262 0.738953 0.644872 -0.030503
C97   C     C_R   0.746557 0.804997 0.484795 -0.003853
C98   C     C_R   0.308380 0.280535 0.523447 0.000875
C99   C     C_R   0.253119 0.805292 0.515068 -0.000932
C100  C     C_R   0.695366 0.279235 0.487952 0.000181
C101  C     C_R   0.252226 0.309630 0.493196 0.002232
C102  C     C_R   0.804603 0.779662 0.511384 -0.000958
C103  C     C_R   0.753232 0.304966 0.514948 -0.002155
C104  C     C_R   0.195170 0.779690 0.488274 -0.001161
C105  C     C_R   0.337124 0.290480 0.615397 -0.138487
C106  C     C_R   0.721806 0.810434 0.390835 -0.139168
C107  C     C_R   0.662787 0.296002 0.400243 -0.140279
C108  C     C_R   0.277554 0.811333 0.609078 -0.144033
C109  C     C_R   0.837520 0.797331 0.598577 -0.136943
C110  C     C_R   0.233229 0.322757 0.399198 -0.142838
C111  C     C_R   0.162444 0.796810 0.400795 -0.137510
C112  C     C_R   0.777395 0.311287 0.609046 -0.142504
H1    H     H_    0.391013 0.137992 0.277785 0.245022
H2    H     H_    0.641351 0.918629 0.728344 0.197291
H3    H     H_    0.628243 0.115321 0.725680 0.234176
H4    H     H_    0.358766 0.917187 0.271175 0.210894
H5    H     H_    0.868016 0.610853 0.276283 0.233175
H6    H     H_    0.134353 0.407007 0.732641 0.209663
H7    H     H_    0.131484 0.611954 0.723808 0.234633
H8    H     H_    0.859267 0.416662 0.271157 0.203629
H9    H     H_    0.744162 0.883819 0.774369 0.218658
H10   H     H_    0.321286 0.225855 0.227470 0.232089
H11   H     H_    0.256213 0.882050 0.224990 0.221550
H12   H     H_    0.701812 0.198775 0.779641 0.228514
H13   H     H_    0.235165 0.367799 0.785877 0.220260
H14   H     H_    0.794506 0.694078 0.221250 0.230100
H15   H     H_    0.756754 0.381107 0.224628 0.219491
H16   H     H_    0.204644 0.695639 0.778783 0.230918
H17   H     H_    0.383917 0.280481 0.638429 0.224064
H18   H     H_    0.683093 0.840766 0.366490 0.222724
H19   H     H_    0.615287 0.289263 0.381777 0.228188
H20   H     H_    0.316119 0.841907 0.633452 0.218743
H21   H     H_    0.885063 0.790961 0.616608 0.230998
H22   H     H_    0.195985 0.355155 0.374635 0.217342
H23   H     H_    0.114926 0.790305 0.382499 0.230995
H24   H     H_    0.816000 0.341776 0.633486 0.221202
H25   H     H_    0.647034 0.088339 0.057229 0.191095
H26   H     H_    0.334366 0.038175 0.942128 0.194894
H27   H     H_    0.158209 0.563362 0.057134 0.192513
H28   H     H_    0.842495 0.565278 0.943132 0.191203
H29   H     H_    0.361903 0.993392 0.643095 0.161997
H30   H     H_    0.637450 0.017029 0.354429 0.164824
H31   H     H_    0.861459 0.504735 0.644666 0.160556
H32   H     H_    0.138563 0.503784 0.355443 0.160418
H33   H     H_    0.671992 0.051941 0.216352 0.175002
H34   H     H_    0.319316 0.009433 0.780107 0.176942
H35   H     H_    0.177877 0.528981 0.217695 0.178305
H36   H     H_    0.822454 0.530696 0.782537 0.175133
N1    N     N_R   0.549130 1.000000 0.284090 -0.156790
N2    N     N_R   0.450870 0.000000 0.715910 -0.165012
N3    N     N_R   0.049130 0.500000 0.284090 -0.160968
N4    N     N_R   0.950870 0.500000 0.715910 -0.160260
O1    O     O_R   0.541320 0.066090 0.608930 -0.620802
O2    O     O_R   0.458680 0.933910 0.391070 -0.604146
O3    O     O_R   0.458680 0.066090 0.391070 -0.627822
O4    O     O_R   0.541320 0.933910 0.608930 -0.620448
O5    O     O_R   0.041320 0.566090 0.608930 -0.620978
O6    O     O_R   0.958680 0.433910 0.391070 -0.615462
O7    O     O_R   0.958680 0.566090 0.391070 -0.621068
O8    O     O_R   0.041320 0.433910 0.608930 -0.614860
O9    O     O_R   0.572880 0.066110 0.470280 -0.581974
O10   O     O_R   0.427120 0.933890 0.529720 -0.593959
O11   O     O_R   0.427120 0.066110 0.529720 -0.572217
O12   O     O_R   0.572880 0.933890 0.470280 -0.585565
O13   O     O_R   0.072880 0.566110 0.470280 -0.576439
O14   O     O_R   0.927120 0.433890 0.529720 -0.589897
O15   O     O_R   0.927120 0.566110 0.529720 -0.576740
O16   O     O_R   0.072880 0.433890 0.470280 -0.589375
Zn1   Zn    Zn3+2 0.478910 0.000000 0.592580 0.976728
Zn2   Zn    Zn3+2 0.521090 0.000000 0.407420 0.979670
Zn3   Zn    Zn3+2 0.978910 0.500000 0.592580 0.979058
Zn4   Zn    Zn3+2 0.021090 0.500000 0.407420 0.979373
Cl1   Cl    Cl    0.347418 0.329484 0.791621 -0.527601
Cl2   Cl    Cl    0.712622 0.787989 0.210032 -0.547564
Cl3   Cl    Cl    0.645042 0.346111 0.228655 -0.535549
Cl4   Cl    Cl    0.286133 0.790038 0.789948 -0.554116
Cl5   Cl    Cl    0.855896 0.849178 0.769428 -0.529505
Cl6   Cl    Cl    0.236476 0.316722 0.219277 -0.556241
Cl7   Cl    Cl    0.144449 0.847518 0.229509 -0.526291
Cl8   Cl    Cl    0.784999 0.291277 0.790038 -0.554257
Cl9   Cl    Cl    0.582140 0.121880 0.883629 -0.577672
Cl10  Cl    Cl    0.386831 0.077302 0.117563 -0.624351
Cl11  Cl    Cl    0.097847 0.603622 0.884267 -0.598179
Cl12  Cl    Cl    0.903281 0.605102 0.116210 -0.597164
O17   O     O_3   0.394306 0.178884 0.579047 -0.747878
H37   H     H_    0.438292 0.175406 0.590237 0.341651
O18   O     O_3   0.619415 0.804431 0.459868 -0.749390
H38   H     H_    0.577340 0.804451 0.466598 0.341066
O19   O     O_3   0.600782 0.186299 0.430208 -0.759184
H39   H     H_    0.557442 0.180462 0.426238 0.335751
O20   O     O_3   0.380319 0.805170 0.540959 -0.751060
H40   H     H_    0.422427 0.804988 0.534401 0.340852
O21   O     O_3   0.900813 0.688254 0.568776 -0.754779
H41   H     H_    0.943879 0.681253 0.571415 0.338179
O22   O     O_3   0.125064 0.312297 0.452309 -0.748513
H42   H     H_    0.082328 0.309760 0.454943 0.344431
O23   O     O_3   0.099199 0.687898 0.430947 -0.754630
H43   H     H_    0.056103 0.681025 0.428161 0.338411
O24   O     O_3   0.880466 0.305239 0.541393 -0.750707
H44   H     H_    0.922607 0.305125 0.535012 0.341245
O25   O     O_3   0.549388 0.998490 0.804914 -0.759501
H45   H     H_    0.557607 0.993350 0.743338 0.373846
O26   O     O_3   0.454038 0.972016 0.198356 -0.738994
H46   H     H_    0.439975 0.986040 0.253399 0.377583
O27   O     O_3   0.048916 0.486512 0.803051 -0.757972
H47   H     H_    0.058871 0.492450 0.742696 0.376591
O28   O     O_3   0.951007 0.487343 0.196705 -0.756729
H48   H     H_    0.941312 0.492207 0.257397 0.376130

loop_
_geom_bond_atom_site_label_1
_geom_bond_atom_site_label_2
_ccdc_geom_bond_type
C10   Cl2   S    
C14   C110  A    
O26   H46   S    
C22   N2    A    
C66   H1    S    
C15   Cl7   S    
C33   C45   A    
O25   H45   S    
C69   H6    S    
C5    C56   S    
O12   Zn2   S    
C6    C55   S    
C75   C83   A    
C76   C84   A    
C88   C96   A    
O27   H47   S    
C42   Cl10  S    
C99   C108  A    
C62   C70   A    
C98   C105  A    
C57   C89   A    
C71   H8    S    
C63   H15   S    
C32   C36   A    
C51   C75   A    
C21   H30   S    
C50   C74   A    
C42   C46   A    
C61   C93   A    
N2    Zn1   S    
C7    O7    A    
C10   C94   A    
C70   H5    S    
C9    C105  A    
C63   C95   A    
O4    Zn1   S    
O2    Zn2   S    
C25   N1    A    
C65   H2    S    
C7    O15   A    
C73   C81   A    
C37   C42   A    
C60   H12   S    
C14   C90   A    
C13   C109  A    
C76   O19   S    
C24   N4    A    
C59   C67   A    
C85   C93   A    
C58   C66   A    
C40   C43   A    
C20   C24   A    
C29   C33   A    
C6    O14   A    
C56   C72   A    
C87   C95   A    
C20   H36   S    
C9    Cl1   S    
C34   C46   A    
C5    O13   A    
C86   C94   A    
C44   Cl12  S    
C27   O28   S    
C97   C102  A    
C52   C68   A    
C3    O11   A    
C46   H26   S    
C74   O17   S    
C81   C89   A    
C78   C86   A    
O13   Zn4   S    
C32   C40   A    
C99   C104  A    
C1    O9    A    
O24   H44   S    
C2    O2    A    
C83   C99   A    
C25   C29   A    
C28   O27   S    
C82   C98   A    
C41   Cl9   S    
O23   H43   S    
C17   C33   A    
C74   C82   A    
C79   C87   A    
C88   C104  A    
C3    C50   S    
C60   C92   A    
C59   H11   S    
C58   H10   S    
C8    O16   A    
O7    Zn4   S    
C48   H28   S    
C27   C31   A    
O28   H48   S    
C84   C100  A    
C15   C111  A    
C28   C32   A    
C26   O25   S    
C79   O24   S    
C64   C96   A    
C38   C41   A    
C107  H19   S    
C39   C40   A    
C62   H14   S    
N4    Zn3   S    
C30   C34   A    
C19   C23   A    
C105  H17   S    
C64   H16   S    
C53   C69   A    
C109  H21   S    
C100  C103  A    
C17   C21   A    
N3    Zn4   S    
O20   H40   S    
C103  C112  A    
C78   O21   S    
C8    C53   S    
O21   H41   S    
C75   O20   S    
C67   H4    S    
C18   H34   S    
C37   C38   A    
C55   C79   A    
C84   C92   A    
C54   C70   A    
C26   N2    A    
C4    O12   A    
C7    C54   S    
C51   C67   A    
C1    O1    A    
C18   C34   A    
C14   Cl6   S    
C49   C65   A    
C58   C90   A    
C87   C103  A    
O9    Zn2   S    
C4    O4    A    
C63   C71   A    
C28   N4    A    
C21   N1    A    
C62   C94   A    
C11   C107  A    
C53   C77   A    
C29   C37   A    
C49   C73   A    
C23   H32   S    
C10   C106  A    
C3    O3    A    
C97   C106  A    
O1    Zn1   S    
N1    Zn2   S    
C8    O8    A    
C9    C93   A    
C85   C101  A    
C16   C112  A    
C12   C108  A    
C45   H25   S    
C59   C91   A    
O16   Zn4   S    
C11   C95   A    
C106  H18   S    
C110  H22   S    
C23   N3    A    
C100  C107  A    
C27   N3    A    
C13   C89   A    
C18   C22   A    
C11   Cl3   S    
C57   C65   A    
C25   O26   S    
C57   H9    S    
C82   C90   A    
C17   H33   S    
C6    O6    A    
C104  C111  A    
O15   Zn3   S    
C50   C66   A    
C16   C92   A    
C39   C44   A    
C98   C101  A    
C83   C91   A    
C4    C49   S    
C5    O5    A    
C56   C80   A    
C12   Cl4   S    
C52   C76   A    
C61   C69   A    
C101  C110  A    
C112  H24   S    
O18   H38   S    
C80   C88   A    
C19   C35   A    
O5    Zn3   S    
O3    Zn2   S    
C111  H23   S    
O17   H37   S    
O10   Zn1   S    
C81   C97   A    
C77   C85   A    
C13   Cl5   S    
C80   O23   S    
C22   H29   S    
C43   Cl11  S    
O8    Zn3   S    
C31   C39   A    
C36   C48   A    
C31   C35   A    
C64   C72   A    
C77   O22   S    
O19   H39   S    
O11   Zn1   S    
C1    C52   S    
C19   H35   S    
C108  H20   S    
C72   H7    S    
C2    C51   S    
C73   O18   S    
C68   H3    S    
C15   C91   A    
O22   H42   S    
C20   C36   A    
C16   Cl8   S    
O14   Zn3   S    
C60   C68   A    
O6    Zn4   S    
C47   H27   S    
C41   C45   A    
C12   C96   A    
C102  C109  A    
C61   H13   S    
C24   H31   S    
C30   C38   A    
C35   C47   A    
C43   C47   A    
C55   C71   A    
C44   C48   A    
C2    O10   A    
C54   C78   A    
C26   C30   A    
C86   C102  A    
