data_mof_unit_58153.cif
_audit_creation_date              2012-12-10T17:31:20-0500
_audit_creation_method            fapswitch 2.2
_symmetry_space_group_name_H-M    P1
_symmetry_Int_Tables_number       1
_space_group_crystal_system       triclinic
_cell_length_a                    19.154162
_cell_length_b                    18.431504
_cell_length_c                    12.332574
_cell_angle_alpha                 89.999457
_cell_angle_beta                  129.068742
_cell_angle_gamma                 90.006646
_cell_volume                      3380.319814

loop_
_atom_site_label
_atom_site_type_symbol
_atom_type_description
_atom_site_fract_x
_atom_site_fract_y
_atom_site_fract_z
_atom_type_partial_charge
C1    C     C_R   0.610237 0.896906 0.650634 0.783843
C2    C     C_R   0.610253 0.103094 0.650688 0.784386
C3    C     C_R   0.110239 0.396908 0.650636 0.783842
C4    C     C_R   0.110255 0.603093 0.650691 0.784384
C5    C     C_R   0.233078 0.785593 0.023649 0.046788
C6    C     C_R   0.233920 0.215193 0.024813 0.047166
C7    C     C_R   0.733065 0.285605 0.023630 0.046783
C8    C     C_R   0.733907 0.715182 0.024795 0.047162
C9    C     C_R   0.659490 0.274005 0.023769 0.141330
C10   C     C_R   0.660294 0.726756 0.024856 0.141381
C11   C     C_R   0.159498 0.774000 0.023775 0.141333
C12   C     C_R   0.160302 0.226761 0.024864 0.141381
C13   C     C_R   0.584107 0.236553 0.911671 -0.252323
C14   C     C_R   0.584784 0.763951 0.912513 -0.250807
C15   C     C_R   0.084114 0.736552 0.911673 -0.252329
C16   C     C_R   0.084791 0.263954 0.912518 -0.250812
C17   C     C_R   0.584376 0.205542 0.809603 -0.208702
C18   C     C_R   0.584843 0.794598 0.810033 -0.208763
C19   C     C_R   0.084384 0.705542 0.809606 -0.208697
C20   C     C_R   0.084850 0.294599 0.810037 -0.208759
C21   C     C_R   0.307001 0.824959 0.133504 -0.270295
C22   C     C_R   0.307712 0.175681 0.134519 -0.271834
C23   C     C_R   0.806987 0.324971 0.133483 -0.270292
C24   C     C_R   0.807700 0.675669 0.134499 -0.271832
C25   C     C_R   0.238468 0.841266 0.241737 -0.232565
C26   C     C_R   0.239099 0.159395 0.242634 -0.233033
C27   C     C_R   0.738468 0.341264 0.241739 -0.232560
C28   C     C_R   0.739098 0.659396 0.242634 -0.233029
C29   C     C_R   0.669314 0.165562 0.730174 -0.112396
C30   C     C_R   0.669531 0.834612 0.730309 -0.115880
C31   C     C_R   0.169324 0.665555 0.730186 -0.112401
C32   C     C_R   0.169539 0.334618 0.730319 -0.115886
C33   C     C_R   0.684330 0.997188 0.288737 -0.318276
C34   C     C_R   0.184330 0.497188 0.288737 -0.318273
C35   C     C_R   0.344446 0.000811 0.628290 0.069556
C36   C     C_R   0.844446 0.500811 0.628290 0.069554
C37   C     C_R   0.311104 0.001082 0.701174 -0.255156
C38   C     C_R   0.811104 0.501082 0.701174 -0.255160
C39   C     C_R   0.383913 0.098302 0.341662 0.811095
C40   C     C_R   0.383763 0.901818 0.341459 0.811534
C41   C     C_R   0.883911 0.598301 0.341660 0.811092
C42   C     C_R   0.883761 0.401819 0.341457 0.811531
C43   C     C_R   0.370058 0.000535 0.846872 -0.186621
C44   C     C_R   0.870058 0.500535 0.846872 -0.186628
C45   C     C_R   0.463981 0.999633 0.922500 -0.017687
C46   C     C_R   0.963981 0.499633 0.922500 -0.017677
C47   C     C_R   0.494800 0.999364 0.843107 0.241688
C48   C     C_R   0.994800 0.499364 0.843107 0.241691
C49   C     C_R   0.528041 0.999185 0.072991 -0.062514
C50   C     C_R   0.028041 0.499185 0.072991 -0.062516
C51   C     C_R   0.621851 0.997170 0.141234 0.114556
C52   C     C_R   0.121851 0.497170 0.141234 0.114544
C53   C     C_R   0.651822 0.995263 0.061839 0.026095
C54   C     C_R   0.151822 0.495262 0.061839 0.026096
C55   C     C_R   0.587845 0.998151 0.915996 -0.193791
C56   C     C_R   0.087845 0.498151 0.915996 -0.193791
C57   C     C_R   0.502991 0.000437 0.159828 0.005543
C58   C     C_R   0.002992 0.500437 0.159828 0.005553
C59   C     C_R   0.655070 0.998614 0.366709 0.068727
C60   C     C_R   0.155070 0.498614 0.366709 0.068730
C61   C     C_R   0.662938 0.301654 0.134851 0.100224
C62   C     C_R   0.663734 0.699183 0.135961 0.100031
C63   C     C_R   0.162940 0.801655 0.134850 0.100223
C64   C     C_R   0.163737 0.199184 0.135962 0.100031
C65   C     C_R   0.309557 0.853561 0.240057 -0.074966
C66   C     C_R   0.310063 0.146902 0.240762 -0.074604
C67   C     C_R   0.809552 0.353564 0.240050 -0.074969
C68   C     C_R   0.810058 0.646898 0.240755 -0.074605
C69   C     C_R   0.738938 0.180112 0.724592 -0.196302
C70   C     C_R   0.739399 0.820436 0.725162 -0.193206
C71   C     C_R   0.238955 0.680096 0.724617 -0.196283
C72   C     C_R   0.239414 0.320451 0.725184 -0.193185
C73   C     C_R   0.301879 0.733518 0.808055 -0.153263
C74   C     C_R   0.302851 0.267518 0.809454 -0.153265
C75   C     C_R   0.801851 0.233544 0.808012 -0.153259
C76   C     C_R   0.802826 0.767495 0.809416 -0.153259
C77   C     C_R   0.299758 0.770248 0.904223 -0.190106
C78   C     C_R   0.300934 0.230908 0.905920 -0.188300
C79   C     C_R   0.799729 0.270274 0.904179 -0.190114
C80   C     C_R   0.800908 0.730884 0.905880 -0.188312
C81   C     C_R   0.732260 0.255379 0.916567 0.093752
C82   C     C_R   0.733109 0.745368 0.917712 0.095715
C83   C     C_R   0.232278 0.755364 0.916593 0.093750
C84   C     C_R   0.233125 0.245382 0.917735 0.095716
C85   C     C_R   0.661372 0.208018 0.818199 0.083633
C86   C     C_R   0.661850 0.792263 0.818685 0.076761
C87   C     C_R   0.161384 0.708011 0.818212 0.083629
C88   C     C_R   0.161861 0.292269 0.818697 0.076752
Cu1   Cu    Cu3+1 0.526340 1.000000 0.421010 0.906826
Cu2   Cu    Cu3+1 0.026340 0.500000 0.421010 0.906831
Cu3   Cu    Cu3+1 0.473640 0.000000 0.578990 0.907033
Cu4   Cu    Cu3+1 0.973640 0.500000 0.578990 0.907034
H1    H     H_    0.241307 0.863538 0.325787 0.150296
H2    H     H_    0.241864 0.137080 0.326589 0.149867
H3    H     H_    0.741312 0.363530 0.325796 0.150296
H4    H     H_    0.741868 0.637086 0.326595 0.149867
H5    H     H_    0.756163 0.996303 0.346057 0.130337
H6    H     H_    0.256163 0.496303 0.346057 0.130336
H7    H     H_    0.433646 0.001647 0.116842 0.128231
H8    H     H_    0.933646 0.501647 0.116842 0.128224
H9    H     H_    0.298140 0.001256 0.515325 0.118839
H10   H     H_    0.798140 0.501256 0.515325 0.118840
H11   H     H_    0.340137 0.000687 0.897161 0.135153
H12   H     H_    0.840137 0.500687 0.897161 0.135149
H13   H     H_    0.239202 0.001719 0.644479 0.142765
H14   H     H_    0.739202 0.501719 0.644480 0.142766
H15   H     H_    0.612733 0.999677 0.860729 0.217177
H16   H     H_    0.112734 0.499677 0.860729 0.217176
H17   H     H_    0.524010 0.230284 0.901129 0.142074
H18   H     H_    0.524661 0.770162 0.901912 0.142089
H19   H     H_    0.024014 0.730286 0.901124 0.142078
H20   H     H_    0.024666 0.270164 0.901912 0.142094
H21   H     H_    0.364492 0.834166 0.139339 0.156420
H22   H     H_    0.365150 0.166295 0.140303 0.156473
H23   H     H_    0.864473 0.334184 0.139307 0.156422
H24   H     H_    0.865133 0.666278 0.140274 0.156477
H25   H     H_    0.745468 0.149642 0.656286 0.154726
H26   H     H_    0.745795 0.850894 0.656694 0.153820
H27   H     H_    0.245484 0.649624 0.656311 0.154723
H28   H     H_    0.245808 0.350910 0.656717 0.153818
H29   H     H_    0.350831 0.811072 0.964582 0.133015
H30   H     H_    0.352498 0.190540 0.966974 0.132568
H31   H     H_    0.850790 0.311109 0.964522 0.133007
H32   H     H_    0.852462 0.690508 0.966920 0.132566
H33   H     H_    0.354259 0.745247 0.800895 0.133317
H34   H     H_    0.355472 0.256103 0.802717 0.132364
H35   H     H_    0.854224 0.245282 0.800839 0.133326
H36   H     H_    0.855440 0.756072 0.802666 0.132374
H37   H     H_    0.522027 0.181323 0.722288 0.181476
H38   H     H_    0.522357 0.818496 0.722416 0.182125
H39   H     H_    0.022033 0.681328 0.722284 0.181472
H40   H     H_    0.022362 0.318492 0.722414 0.182121
H41   H     H_    0.703419 0.998362 0.479585 0.122653
H42   H     H_    0.203419 0.498362 0.479585 0.122647
N1    N     N_R   0.566260 1.000000 0.302220 -0.190972
N2    N     N_R   0.066260 0.500000 0.302220 -0.190964
N3    N     N_R   0.434410 1.000000 0.697680 -0.201719
N4    N     N_R   0.934410 0.500000 0.697680 -0.201718
O1    O     O_R   0.608610 0.924520 0.551740 -0.580788
O2    O     O_R   0.608610 0.075480 0.551740 -0.580947
O3    O     O_R   0.108610 0.424520 0.551740 -0.580790
O4    O     O_R   0.108610 0.575480 0.551740 -0.580943
O5    O     O_R   0.564110 0.924510 0.685150 -0.608873
O6    O     O_R   0.564110 0.075490 0.685150 -0.607612
O7    O     O_R   0.064110 0.424510 0.685150 -0.608872
O8    O     O_R   0.064110 0.575490 0.685150 -0.607610
O9    O     O_R   0.435880 0.075470 0.314850 -0.594271
O10   O     O_R   0.435880 0.924530 0.314850 -0.593759
O11   O     O_R   0.935880 0.575470 0.314850 -0.594275
O12   O     O_R   0.935880 0.424530 0.314850 -0.593758
O13   O     O_R   0.391380 0.075460 0.448260 -0.595221
O14   O     O_R   0.391380 0.924540 0.448260 -0.594434
O15   O     O_R   0.891380 0.575460 0.448260 -0.595219
O16   O     O_R   0.891380 0.424540 0.448260 -0.594433
C89   C     C_3   0.752524 0.989825 0.134630 -0.399687
C90   C     C_3   0.778784 0.982836 0.039992 -0.350043
C91   C     C_3   0.880104 0.973080 0.125907 -0.849626
H43   H     H_    0.916520 0.020427 0.195893 0.251629
H44   H     H_    0.902728 0.922795 0.189574 0.254008
H45   H     H_    0.896818 0.968561 0.054759 0.242127
H46   H     H_    0.744973 0.934813 0.970821 0.228820
H47   H     H_    0.758411 0.032566 0.975267 0.218946
H48   H     H_    0.786512 0.038775 0.201065 0.200195
H49   H     H_    0.779320 0.941123 0.203206 0.203482
C92   C     C_3   0.252523 0.489822 0.134629 -0.399685
C93   C     C_3   0.278782 0.482831 0.039991 -0.350051
C94   C     C_3   0.380101 0.473069 0.125906 -0.849629
H50   H     H_    0.416521 0.520415 0.195893 0.251630
H51   H     H_    0.402722 0.422785 0.189570 0.254009
H52   H     H_    0.396814 0.468548 0.054757 0.242130
H53   H     H_    0.244969 0.434809 0.970819 0.228826
H54   H     H_    0.258413 0.532560 0.975268 0.218948
H55   H     H_    0.286513 0.538772 0.201064 0.200196
H56   H     H_    0.279318 0.441121 0.203207 0.203485
C95   C     C_3   0.589658 0.289201 0.146544 -0.426914
C96   C     C_3   0.593776 0.211689 0.196371 -0.332074
C97   C     C_3   0.552920 0.208293 0.269704 -0.841093
H57   H     H_    0.597345 0.236427 0.372167 0.251839
H58   H     H_    0.486098 0.234950 0.204978 0.246438
H59   H     H_    0.545604 0.150949 0.288020 0.275630
H60   H     H_    0.556638 0.174070 0.105686 0.216730
H61   H     H_    0.664632 0.192647 0.271022 0.229046
H62   H     H_    0.597654 0.328668 0.222030 0.203427
H63   H     H_    0.522212 0.300831 0.046059 0.180733
C98   C     C_3   0.590539 0.711790 0.147752 -0.426542
C99   C     C_3   0.594758 0.789370 0.197323 -0.333748
C100  C     C_3   0.552770 0.793127 0.268891 -0.838124
H64   H     H_    0.485740 0.766804 0.202972 0.246427
H65   H     H_    0.596352 0.764879 0.371304 0.251424
H66   H     H_    0.545605 0.850522 0.287059 0.276152
H67   H     H_    0.665699 0.808096 0.272999 0.228402
H68   H     H_    0.558426 0.827023 0.106717 0.217834
H69   H     H_    0.523058 0.700104 0.047363 0.181522
H70   H     H_    0.598587 0.672492 0.223492 0.202827
C101  C     C_3   0.089658 0.789205 0.146538 -0.426918
C102  C     C_3   0.093789 0.711699 0.196397 -0.332070
C103  C     C_3   0.052879 0.708303 0.269646 -0.841154
H71   H     H_    0.097263 0.736448 0.372095 0.251849
H72   H     H_    0.986052 0.734946 0.204856 0.246460
H73   H     H_    0.045565 0.650961 0.287974 0.275628
H74   H     H_    0.056697 0.674063 0.105738 0.216757
H75   H     H_    0.164651 0.692680 0.271114 0.229041
H76   H     H_    0.097645 0.828679 0.222007 0.203422
H77   H     H_    0.022212 0.800824 0.046045 0.180747
C104  C     C_3   0.090541 0.211790 0.147751 -0.426538
C105  C     C_3   0.094779 0.289364 0.197362 -0.333757
C106  C     C_3   0.052742 0.293120 0.268852 -0.838162
H78   H     H_    0.985698 0.266824 0.202863 0.246440
H79   H     H_    0.096276 0.264844 0.371235 0.251428
H80   H     H_    0.045603 0.350513 0.287061 0.276158
H81   H     H_    0.165726 0.308066 0.273097 0.228393
H82   H     H_    0.058493 0.327037 0.106786 0.217862
H83   H     H_    0.023057 0.200120 0.047355 0.181536
H84   H     H_    0.098578 0.172484 0.223471 0.202822

loop_
_geom_bond_atom_site_label_1
_geom_bond_atom_site_label_2
_ccdc_geom_bond_type
C26   H2    S    
Cu1   O10   S    
C83   C87   A    
C48   N4    A    
C93   H54   S    
C92   C93   S    
Cu1   N1    S    
C2    O6    A    
C14   C18   A    
C53   C55   A    
C27   H3    S    
C61   C95   S    
C48   C56   A    
C98   H70   S    
Cu2   O12   S    
Cu4   N4    S    
C44   H12   S    
C32   C72   A    
C74   H34   S    
C104  C105  S    
C96   H61   S    
C39   O9    A    
C18   C86   A    
C2    C29   S    
C9    C61   A    
C95   H62   S    
C90   C91   S    
C28   C68   A    
C23   H23   S    
C5    C11   A    
C19   C87   A    
C4    O4    A    
Cu3   O14   S    
C5    C83   A    
C7    C23   A    
C101  H76   S    
C77   C83   A    
C37   H13   S    
C92   H55   S    
C57   H7    S    
C39   O13   A    
C71   C73   A    
C49   C57   A    
C40   O14   A    
C36   H10   S    
C25   C63   A    
C23   C67   A    
C99   H67   S    
C103  H72   S    
C9    C13   A    
C56   H16   S    
C100  H66   S    
C13   H17   S    
C27   C61   A    
C8    C24   A    
Cu3   N3    S    
C11   C15   A    
C105  H81   S    
C91   H43   S    
C22   C66   A    
C12   C16   A    
C44   C46   A    
Cu1   O1    S    
C21   H21   S    
C3    O3    A    
C106  H80   S    
C50   C52   A    
Cu4   O15   S    
C30   C86   A    
C60   N2    A    
C29   C85   A    
C53   C89   S    
C1    O1    A    
C21   C65   A    
C97   H59   S    
C31   C71   A    
C90   H47   S    
C93   H53   S    
C91   H44   S    
C34   C60   A    
C72   H28   S    
C10   C62   A    
C20   H40   S    
Cu2   O11   S    
C78   H30   S    
C6    C12   A    
C30   C70   A    
C52   C54   A    
C41   C68   S    
C29   C69   A    
C45   C47   A    
C19   H39   S    
C96   H60   S    
C54   C56   A    
C6    C84   A    
C40   O10   A    
Cu4   O8    S    
C106  H78   S    
C26   C66   A    
C15   H19   S    
C31   C87   A    
C94   H51   S    
C10   C14   A    
C94   H50   S    
C79   C81   A    
C77   H29   S    
Cu3   O5    S    
C101  H77   S    
C49   C51   A    
C92   H56   S    
C82   C86   A    
C79   H31   S    
C59   H41   S    
C58   N2    A    
C51   C53   A    
C5    C21   A    
C50   C58   A    
C37   C43   A    
C103  H73   S    
C15   C19   A    
C26   C64   A    
C38   C44   A    
C1    O5    A    
C78   C84   A    
Cu2   N2    S    
Cu2   Cu4   S    
C95   C96   S    
C45   C49   A    
C25   H1    S    
C16   C20   A    
Cu1   O2    S    
C4    O8    A    
C7    C9    A    
C47   N3    A    
C58   H8    S    
C3    C32   S    
Cu1   O9    S    
C43   C45   A    
Cu2   O4    S    
C62   C98   S    
C94   H52   S    
C72   C74   A    
C96   C97   S    
C7    C81   A    
C90   H46   S    
C24   H24   S    
C91   H45   S    
C40   C65   S    
C70   C76   A    
C93   C94   S    
C76   H36   S    
C39   C66   S    
C17   C85   A    
C18   H38   S    
C32   C88   A    
Cu1   Cu3   S    
C54   C92   S    
C102  H75   S    
C60   H42   S    
C89   C90   S    
C16   H20   S    
C47   C55   A    
Cu3   O6    S    
C80   H32   S    
C35   C37   A    
C14   H18   S    
C12   C64   A    
C41   O15   A    
C42   O16   A    
Cu4   O7    S    
C105  C106  S    
C8    C10   A    
C76   C80   A    
C98   H69   S    
C102  C103  S    
C35   H9    S    
C104  H84   S    
C3    O7    A    
C13   C17   A    
C89   H49   S    
C33   C51   A    
C64   C104  S    
C46   C50   A    
C22   H22   S    
C34   C52   A    
C71   H27   S    
C28   H4    S    
C89   H48   S    
C36   C38   A    
C102  H74   S    
C2    O2    A    
C100  H64   S    
C35   N3    A    
Cu3   O13   S    
C69   H25   S    
C98   C99   S    
C42   C67   S    
C84   C88   A    
C75   C79   A    
C70   H26   S    
C73   H33   S    
Cu2   O3    S    
C20   C88   A    
C59   N1    A    
C1    C30   S    
C34   H6    S    
C80   C82   A    
C97   H58   S    
C69   C75   A    
C63   C101  S    
C99   H68   S    
C103  H71   S    
C42   O12   A    
C43   H11   S    
C100  H65   S    
C4    C31   S    
C27   C67   A    
C24   C68   A    
C104  H83   S    
C101  C102  S    
C46   C48   A    
C105  H82   S    
C8    C82   A    
C41   O11   A    
C33   C59   A    
C97   H57   S    
C74   C78   A    
C55   H15   S    
C38   H14   S    
C106  H79   S    
C25   C65   A    
C73   C77   A    
C57   N1    A    
Cu4   O16   S    
C33   H5    S    
C99   C100  S    
C11   C63   A    
C36   N4    A    
C17   H37   S    
C81   C85   A    
C28   C62   A    
C95   H63   S    
C75   H35   S    
C6    C22   A    
