data_mof_unit_56538.cif
_audit_creation_date              2012-12-10T18:14:21-0500
_audit_creation_method            fapswitch 2.2
_symmetry_space_group_name_H-M    P1
_symmetry_Int_Tables_number       1
_space_group_crystal_system       triclinic
_cell_length_a                    12.683319
_cell_length_b                    13.10587
_cell_length_c                    18.963267
_cell_angle_alpha                 90.935821
_cell_angle_beta                  103.510883
_cell_angle_gamma                 82.315044
_cell_volume                      3037.05972194

loop_
_atom_site_label
_atom_site_type_symbol
_atom_type_description
_atom_site_fract_x
_atom_site_fract_y
_atom_site_fract_z
_atom_type_partial_charge
C1    C     C_R   0.438753 0.691118 0.488583 0.925674
C2    C     C_R   0.509106 0.486235 0.711748 -0.276407
C3    C     C_R   0.501515 0.422452 0.069867 0.370645
C4    C     C_R   0.492389 0.427007 0.926660 0.410530
C5    C     C_R   0.411078 0.494803 0.163450 -0.182060
C6    C     C_R   0.411063 0.518127 0.235048 -0.092885
C7    C     C_R   0.501035 0.480715 0.290116 -0.103150
C8    C     C_R   0.591015 0.419426 0.273613 -0.266343
C9    C     C_R   0.591754 0.394423 0.201959 0.462117
C10   C     C_R   0.501252 0.434178 0.146257 -0.065749
C11   C     C_R   0.702080 0.063741 0.448273 0.381609
C12   C     C_R   0.502147 0.499067 0.634574 1.032257
C13   C     C_R   0.596365 0.199796 0.500374 -0.109210
C14   C     C_R   0.300978 0.839007 0.498458 -0.125252
C15   C     C_R   0.272133 0.944701 0.504147 0.195985
C16   C     C_R   0.345643 0.011488 0.495922 -0.167429
C17   C     C_R   0.446783 0.973559 0.478934 0.087056
C18   C     C_R   0.465870 0.869263 0.461543 0.067258
C19   C     C_R   0.529656 0.035752 0.478727 0.064454
C20   C     C_R   0.621153 0.998993 0.449364 0.008714
C21   C     C_R   0.627706 0.899572 0.421136 -0.147252
C22   C     C_R   0.551615 0.835627 0.427410 -0.209349
C23   C     C_R   0.560978 0.308710 0.507098 0.887586
C24   C     C_R   0.524615 0.132996 0.508971 -0.190946
C25   C     C_R   0.686893 0.165041 0.472181 -0.263139
C26   C     C_R   0.399253 0.800922 0.479566 -0.177360
C27   C     C_R   0.085358 0.340309 0.405942 -0.307029
C28   C     C_R   0.804475 0.634190 0.583489 0.296981
C29   C     C_R   0.912466 0.654442 0.604816 -0.204630
C30   C     C_R   0.992816 0.598332 0.577461 -0.207826
C31   C     C_R   0.966915 0.520696 0.527406 0.040639
C32   C     C_R   0.856436 0.498277 0.508609 0.201927
C33   C     C_R   0.046095 0.466853 0.493691 0.009263
C34   C     C_R   0.498929 0.498062 0.365496 0.868526
C35   C     C_R   0.013743 0.388843 0.444393 0.087989
C36   C     C_R   0.907377 0.364097 0.429555 -0.174517
C37   C     C_R   0.829704 0.419102 0.460508 -0.207342
C38   C     C_R   0.154982 0.489976 0.504266 -0.125671
C39   C     C_R   0.186999 0.372583 0.411847 0.536223
C40   C     C_R   0.442560 0.555944 0.745555 0.424062
C41   C     C_R   0.424948 0.528181 0.812916 0.004560
C42   C     C_R   0.486105 0.438322 0.849493 -0.177484
C43   C     C_R   0.554397 0.369042 0.816370 0.450286
C44   C     C_R   0.568248 0.394756 0.747361 -0.020987
H1    H     H_    0.692109 0.869155 0.395044 0.231332
H2    H     H_    0.462171 0.160770 0.537342 0.152392
H3    H     H_    0.248542 0.786414 0.510944 0.191315
H4    H     H_    0.320345 0.092736 0.501006 0.153469
H5    H     H_    0.560169 0.759551 0.404645 0.175118
H6    H     H_    0.882544 0.304871 0.391024 0.221711
H7    H     H_    0.057515 0.283022 0.366645 0.228702
H8    H     H_    0.187606 0.545549 0.542750 0.181930
H9    H     H_    0.074040 0.618705 0.596086 0.189431
H10   H     H_    0.934882 0.715842 0.642031 0.170136
H11   H     H_    0.748552 0.399940 0.444294 0.202386
H12   H     H_    0.341756 0.526652 0.121129 0.179917
H13   H     H_    0.341583 0.566287 0.247430 0.184916
H14   H     H_    0.659272 0.388635 0.316898 0.174305
H15   H     H_    0.742875 0.217849 0.466110 0.188291
N1    N     N_R   0.583865 0.446859 0.975084 -0.105893
N2    N     N_R   0.588201 0.444957 0.045642 -0.084681
N3    N     N_R   0.410273 0.401588 0.021342 -0.138055
N4    N     N_R   0.405973 0.403224 0.950683 -0.134278
N5    N     N_R   0.222200 0.444680 0.463280 -0.161793
N6    N     N_R   0.776960 0.554780 0.536340 -0.130747
O1    O     O_R   0.366740 0.627160 0.482470 -0.600662
O2    O     O_R   0.544830 0.662520 0.505920 -0.615608
O3    O     O_R   0.410920 0.482320 0.590130 -0.610326
O4    O     O_R   0.589010 0.517690 0.613590 -0.615568
O5    O     O_R   0.455170 0.337480 0.494080 -0.563172
O6    O     O_R   0.633260 0.372840 0.517530 -0.653345
O7    O     O_R   0.410990 0.482310 0.386410 -0.530867
O8    O     O_R   0.589080 0.517680 0.409870 -0.645686
Zn1   Zn    Zn3+2 0.381090 0.476390 0.484340 1.036285
Zn2   Zn    Zn3+2 0.618910 0.523610 0.515660 0.937077
S1    S     S_3+6 0.390412 0.681017 0.706160 0.003020
O9    O     O_2   0.275431 0.679975 0.662306 -0.348810
O10   O     O_2   0.390585 0.760078 0.764570 -0.275987
O11   O     O_3   0.467794 0.715527 0.652118 -0.601602
H16   H     H_    0.447729 0.790952 0.645043 0.383201
S2    S     S_3+6 0.820428 0.022677 0.415271 0.033232
O12   O     O_2   0.786476 0.004778 0.335163 -0.196598
O13   O     O_2   0.897330 0.102488 0.428291 -0.320198
O14   O     O_3   0.885654 0.911861 0.456964 -0.550899
H17   H     H_    0.896843 0.926062 0.509473 0.341450
C45   C     C_3   0.165833 0.986844 0.522307 -0.751238
H18   H     H_    0.116442 0.924697 0.527525 0.255760
H19   H     H_    0.182178 0.028350 0.574434 0.233174
H20   H     H_    0.117537 0.041315 0.478794 0.280859
S3    S     S_3+6 0.250393 0.332968 0.339493 0.067299
O15   O     O_2   0.190732 0.253242 0.294932 -0.265128
O16   O     O_2   0.240658 0.425120 0.291309 -0.294979
O17   O     O_3   0.381873 0.281379 0.366344 -0.541080
H21   H     H_    0.408512 0.272425 0.321217 0.380361
C46   C     C_3   0.340853 0.592035 0.846528 -0.688484
H22   H     H_    0.288915 0.541366 0.864926 0.224035
H23   H     H_    0.382568 0.635119 0.893401 0.245545
H24   H     H_    0.281849 0.646122 0.807707 0.284785
C47   C     C_3   0.722547 0.706146 0.612743 -0.737621
H25   H     H_    0.763154 0.753208 0.657694 0.196401
H26   H     H_    0.675762 0.762241 0.570128 0.245130
H27   H     H_    0.669252 0.664742 0.636368 0.297150
S4    S     S_3+6 0.615420 0.247244 0.858736 0.049004
O18   O     O_2   0.735898 0.250217 0.887490 -0.274611
O19   O     O_2   0.566360 0.221449 0.920023 -0.240957
O20   O     O_3   0.596964 0.153535 0.797068 -0.554098
H28   H     H_    0.643880 0.091465 0.821240 0.396198
C48   C     C_3   0.645183 0.326665 0.710247 -0.691661
H29   H     H_    0.700006 0.373579 0.691272 0.230813
H30   H     H_    0.701372 0.267186 0.745950 0.289418
H31   H     H_    0.597002 0.288395 0.663282 0.206785
S5    S     S_3+6 0.704320 0.310455 0.184865 0.066734
O21   O     O_2   0.784214 0.373684 0.165403 -0.253801
O22   O     O_2   0.760293 0.246089 0.251330 -0.262401
O23   O     O_3   0.661389 0.232333 0.115842 -0.496177
H32   H     H_    0.729157 0.197325 0.103999 0.415621

loop_
_geom_bond_atom_site_label_1
_geom_bond_atom_site_label_2
_ccdc_geom_bond_type
C12   O4    A    
O17   H21   S    
C41   C42   A    
C5    H12   S    
C46   H22   S    
C6    H13   S    
S1    O11   S    
C2    C12   S    
C16   H4    S    
S5    O22   D    
S2    O12   D    
C46   H24   S    
C7    C8    A    
C41   C46   S    
C11   S2    S    
C39   N5    A    
C12   O3    A    
C4    N4    A    
N3    N4    A    
C28   C29   A    
S1    O10   D    
C30   C31   A    
C45   H19   S    
C38   H8    S    
C29   H10   S    
C11   C25   A    
O3    Zn1   S    
O23   H32   S    
O1    Zn1   S    
C48   H29   S    
C13   C23   S    
C8    H14   S    
C47   H25   S    
C2    C44   A    
C8    C9    A    
C18   C26   A    
O5    Zn1   S    
C31   C33   A    
C9    C10   A    
C39   S3    S    
C38   N5    A    
C9    S5    S    
C3    N2    A    
C21   C22   A    
O8    Zn2   S    
C23   O5    A    
C13   C25   A    
S5    O21   D    
S2    O13   D    
C27   H7    S    
C17   C18   A    
C21   H1    S    
C44   C48   S    
C30   H9    S    
C11   C20   A    
C23   O6    A    
S1    O9    D    
O7    Zn1   S    
C27   C39   A    
C45   H18   S    
C17   C19   A    
C27   C35   A    
C28   N6    A    
C14   C26   A    
C40   S1    S    
C13   C24   A    
N1    N2    A    
C35   C36   A    
C43   C44   A    
C29   C30   A    
S3    O16   D    
C31   C32   A    
C4    N1    A    
C1    O1    A    
S4    O19   D    
C32   C37   A    
O14   H17   S    
C6    C7    A    
C15   C45   S    
C28   C47   S    
C40   C41   A    
C47   H26   S    
C22   H5    S    
C1    C26   S    
C7    C34   S    
O2    Zn2   S    
C42   C43   A    
C34   O7    A    
S2    O14   S    
C36   H6    S    
S3    O17   S    
C3    N3    A    
C36   C37   A    
C18   C22   A    
C45   H20   S    
C46   H23   S    
C14   H3    S    
C1    O2    A    
C33   C38   A    
N6    Zn2   S    
C48   H31   S    
C24   H2    S    
C19   C20   A    
C19   C24   A    
C5    C10   A    
C3    C10   S    
O6    Zn2   S    
S3    O15   D    
C5    C6    A    
C4    C42   S    
C33   C35   A    
C48   H30   S    
O4    Zn2   S    
S4    O20   S    
C43   S4    S    
C34   O8    A    
O11   H16   S    
C37   H11   S    
C2    C40   A    
C47   H27   S    
C20   C21   A    
O20   H28   S    
S4    O18   D    
N5    Zn1   S    
C14   C15   A    
C25   H15   S    
S5    O23   S    
C15   C16   A    
C16   C17   A    
C32   N6    A    
