data_mof_unit_29131.cif
_audit_creation_date              2012-12-11T16:31:29-0500
_audit_creation_method            fapswitch 2.2
_symmetry_space_group_name_H-M    P1
_symmetry_Int_Tables_number       1
_space_group_crystal_system       triclinic
_cell_length_a                    6.94117
_cell_length_b                    18.419017
_cell_length_c                    20.066591
_cell_angle_alpha                 68.335592
_cell_angle_beta                  90.635386
_cell_angle_gamma                 90.909534
_cell_volume                      2383.94415152

loop_
_atom_site_label
_atom_site_type_symbol
_atom_type_description
_atom_site_fract_x
_atom_site_fract_y
_atom_site_fract_z
_atom_type_partial_charge
O1    O     O_R   0.488990 0.443920 0.942160 -0.536859
O2    O     O_R   0.823840 0.406530 0.087600 -0.537832
O3    O     O_R   0.999650 0.556080 0.057840 -0.542477
C1    C     C_R   0.655050 0.384087 0.115457 0.690797
O4    O     O_R   0.818390 0.434590 0.944530 -0.536442
O5    O     O_R   0.994160 0.584350 0.913750 -0.538559
C2    C     C_R   0.648581 0.420945 0.923684 0.711004
O6    O     O_R   0.494480 0.415650 0.086250 -0.535697
O7    O     O_3   0.662600 0.549100 0.990070 -0.368228
V1    V     V_3+5 0.935320 0.490890 0.001840 1.447542
O8    O     O_R   0.324240 0.593470 0.912400 -0.539644
C3    C     C_R   0.155626 0.615947 0.884563 0.692983
O9    O     O_R   0.329690 0.565410 0.055470 -0.530615
C4    C     C_R   0.162198 0.579378 0.076030 0.717008
V2    V     V_3+5 0.435990 0.509110 0.998160 1.458796
O10   O     O_3   0.158840 0.450900 0.009930 -0.366176
C5    C     C_3   0.992454 0.674973 0.265838 -0.352388
C6    C     C_3   0.343813 0.713708 0.241333 0.272032
C7    C     C_3   0.329884 0.759749 0.292530 -0.376149
H1    H     H_    0.020257 0.683478 0.371444 0.187719
H2    H     H_    0.027173 0.613125 0.298258 0.223840
H3    H     H_    0.450471 0.743910 0.198794 0.160515
H4    H     H_    0.365036 0.721235 0.348598 0.196713
H5    H     H_    0.439984 0.807424 0.277342 0.218308
C8    C     C_1   0.110112 0.874862 0.378344 -0.078560
C9    C     C_3   0.144226 0.710683 0.205724 0.037502
C10   C     C_3   0.983108 0.722356 0.315686 -0.389194
C11   C     C_3   0.124707 0.793417 0.290293 0.040400
C12   C     C_3   0.074910 0.846298 0.210602 0.569534
C13   C     C_3   0.081802 0.796218 0.161357 0.028886
C14   C     C_1   0.115980 0.837779 0.339306 0.087869
C15   C     C_1   0.151077 0.663363 0.159287 0.083241
C16   C     C_1   0.156262 0.625159 0.121255 -0.132517
H6    H     H_    0.934223 0.792710 0.140467 0.150237
H7    H     H_    0.847958 0.674444 0.241438 0.193061
H8    H     H_    0.832971 0.741729 0.317330 0.203592
H9    H     H_    0.471922 0.556541 0.693200 0.168352
C17   C     C_R   0.976660 0.759752 0.875984 -0.182060
C18   C     C_R   0.883535 0.826979 0.873483 -0.092894
C19   C     C_R   0.866650 0.889911 0.808954 0.321634
C20   C     C_R   0.944641 0.886382 0.746506 -0.179787
C21   C     C_R   0.037736 0.818297 0.747071 0.026221
C22   C     C_R   0.052653 0.753399 0.813177 0.068185
C23   C     C_R   0.119017 0.814744 0.683699 -0.155037
C24   C     C_R   0.213866 0.745885 0.686595 0.071698
C25   C     C_R   0.227960 0.680886 0.752703 0.055743
C26   C     C_R   0.146416 0.684520 0.815944 -0.163921
C27   C     C_R   0.291865 0.739540 0.624055 -0.141909
C28   C     C_R   0.385016 0.672049 0.626858 -0.117195
C29   C     C_R   0.399937 0.608937 0.691368 -0.075718
C30   C     C_R   0.320758 0.612618 0.753492 -0.138615
H10   H     H_    0.989545 0.713373 0.927971 0.130101
H11   H     H_    0.825329 0.830224 0.922136 0.176686
H12   H     H_    0.931917 0.937730 0.698118 0.140046
H13   H     H_    0.280491 0.786110 0.572116 0.103908
H14   H     H_    0.444645 0.668508 0.578539 0.128509
H15   H     H_    0.332543 0.561076 0.801774 0.124510
H16   H     H_    0.704920 0.468640 0.319205 0.168241
C31   C     C_R   0.612073 0.229121 0.115577 -0.149783
C32   C     C_R   0.592834 0.155760 0.111932 -0.172337
C33   C     C_R   0.584629 0.090096 0.174196 -0.010064
C34   C     C_R   0.594449 0.096098 0.241556 0.342142
C35   C     C_R   0.612580 0.171372 0.247507 -0.025226
C36   C     C_R   0.622789 0.238760 0.182254 0.037961
C37   C     C_R   0.621274 0.182409 0.314596 -0.173879
C38   C     C_R   0.642659 0.258971 0.315466 0.058452
C39   C     C_R   0.654680 0.324904 0.250139 0.062602
C40   C     C_R   0.644162 0.314822 0.183705 -0.148092
C41   C     C_R   0.652882 0.271426 0.381061 -0.143609
C42   C     C_R   0.674981 0.346346 0.382056 -0.107059
C43   C     C_R   0.687286 0.410560 0.318169 -0.069027
C44   C     C_R   0.677031 0.400325 0.252830 -0.141905
H17   H     H_    0.618681 0.278304 0.065131 0.107803
H18   H     H_    0.585032 0.149745 0.060285 0.158840
H19   H     H_    0.570889 0.033475 0.169806 0.237072
H20   H     H_    0.644216 0.223579 0.432370 0.080043
H21   H     H_    0.682758 0.354562 0.432737 0.124713
H22   H     H_    0.687058 0.452174 0.204562 0.109769
O11   O     O_R   0.770890 0.084490 0.414040 -0.527767
O12   O     O_R   0.445980 0.065450 0.555510 -0.542811
O13   O     O_R   0.270670 0.915620 0.586180 -0.539569
C45   C     C_R   0.615552 0.080036 0.575778 0.706940
O14   O     O_R   0.441480 0.093500 0.412450 -0.531275
O15   O     O_R   0.266140 0.943870 0.442100 -0.516337
C46   C     C_R   0.610275 0.115407 0.384233 0.800168
O16   O     O_R   0.775410 0.056240 0.558120 -0.544325
O17   O     O_3   0.602660 0.950990 0.510100 -0.356774
V3    V     V_3+5 0.329740 0.009100 0.498130 1.502903
O18   O     O_R   0.936120 0.934420 0.444240 -0.519504
C47   C     C_R   0.103817 0.920271 0.423969 0.749438
O19   O     O_R   0.940610 0.906370 0.587310 -0.546323
C48   C     C_R   0.109341 0.883508 0.615045 0.671736
V4    V     V_3+5 0.829110 0.990690 0.501470 1.510468
O20   O     O_3   0.106080 0.049010 0.489880 -0.376488
C49   C     C_3   0.829556 0.211269 0.739498 -0.321092
C50   C     C_3   0.576911 0.298942 0.661257 -0.352402
C51   C     C_3   0.575911 0.347395 0.710841 0.278474
H23   H     H_    0.939761 0.307629 0.768981 0.197239
H24   H     H_    0.940376 0.235434 0.697054 0.159336
H25   H     H_    0.434196 0.301340 0.634762 0.188642
H26   H     H_    0.683922 0.325031 0.617725 0.130064
H27   H     H_    0.685313 0.395246 0.690848 0.108847
C52   C     C_1   0.637597 0.376422 0.877334 -0.158864
C53   C     C_3   0.628302 0.212511 0.704663 0.196387
C54   C     C_3   0.830119 0.259822 0.788548 -0.415198
C55   C     C_3   0.628367 0.294697 0.789581 0.187411
C56   C     C_3   0.481717 0.225604 0.816284 -0.303509
C57   C     C_3   0.477457 0.179206 0.765383 -0.290720
C58   C     C_1   0.631877 0.339717 0.837944 -0.010004
C59   C     C_1   0.628017 0.165828 0.657720 -0.024702
C60   C     C_1   0.625078 0.126987 0.620117 -0.137209
H28   H     H_    0.506209 0.116722 0.797048 0.213276
H29   H     H_    0.330681 0.182103 0.741678 0.153716
H30   H     H_    0.522045 0.185731 0.871346 0.161740
H31   H     H_    0.870385 0.150110 0.771737 0.208413
H32   H     H_    0.873540 0.221866 0.843896 0.179731
H33   H     H_    0.334933 0.247239 0.819795 0.188939
Cl1   Cl    Cl    0.234815 0.929975 0.181071 -0.531379
Br1   Br    Br    0.737655 0.981366 0.806428 -0.592428
Cl2   Cl    Cl    0.585243 0.004876 0.313442 -0.615245
Cl3   Cl    Cl    0.347353 0.393724 0.705196 -0.731669
Cl4   Cl    Cl    0.437230 0.617865 0.288829 -0.723451
Br2   Br    Br    0.234229 0.843109 0.073332 -0.429248
Br3   Br    Br    0.817345 0.890218 0.204014 -0.480934

loop_
_geom_bond_atom_site_label_1
_geom_bond_atom_site_label_2
_ccdc_geom_bond_type
C8    C14   T    
C27   H13   S    
O17   V3    S    
C35   C37   A    
C9    C15   S    
V4    O20   S    
C20   C21   A    
C54   H32   S    
O2    C1    A    
C6    C9    S    
O11   C46   A    
C1    O6    A    
C4    C16   S    
C24   C25   A    
C33   H19   S    
C31   C36   A    
C34   C35   A    
H23   C54   S    
O15   C47   A    
C5    C9    S    
C36   C40   A    
C11   C12   S    
O11   V4    S    
O5    C3    A    
C17   C18   A    
C49   H24   S    
H16   C43   S    
C38   C41   A    
C17   H10   S    
C55   C56   S    
V2    O10   S    
C12   Br3   S    
C50   H25   S    
C41   H20   S    
C39   C44   A    
C28   C29   A    
C59   C60   T    
C44   H22   S    
C49   C54   S    
O13   C48   A    
O8    V2    S    
C49   H31   S    
C51   Cl3   S    
C56   C57   S    
C42   C43   A    
C30   H15   S    
O7    V1    S    
C31   H17   S    
C34   Cl2   S    
C51   H27   S    
C23   C48   S    
C38   C39   A    
C31   C32   A    
C6    H3    S    
O9    C4    A    
C42   H21   S    
C41   C42   A    
C21   C23   A    
C3    C26   S    
V3    O20   S    
C13   H6    S    
C39   C40   A    
C5    C10   S    
O12   C45   A    
O19   C48   A    
O4    C2    A    
C6    C7    S    
C45   O16   A    
C25   C30   A    
C5    H2    S    
C57   H28   S    
C32   C33   A    
C57   H29   S    
C7    H4    S    
C56   H30   S    
C12   C13   S    
O16   V4    S    
O19   V4    S    
C50   C51   S    
C29   C30   A    
C8    C47   S    
C7    C11   S    
O3    C4    A    
C6    Cl4   S    
O1    V2    S    
C51   C55   S    
C19   C20   A    
O14   C46   A    
C9    C13   S    
O6    V2    S    
O9    V2    S    
C21   C22   A    
O2    V1    S    
C53   C57   S    
C23   C24   A    
C1    C40   S    
C12   Cl1   S    
C24   C27   A    
C25   C26   A    
C27   C28   A    
O1    C2    A    
C11   C14   S    
O15   V3    S    
O5    V1    S    
O8    C3    A    
C37   C46   S    
H1    C10   S    
C10   H8    S    
C28   H14   S    
C54   C55   S    
C52   C58   T    
C45   C60   S    
C50   C53   S    
C7    H5    S    
O7    V2    S    
C17   C22   A    
O12   V3    S    
O3    V1    S    
V1    O10   S    
C15   C16   T    
C49   C53   S    
C53   C59   S    
H9    C29   S    
C18   H11   S    
O17   V4    S    
C32   H18   S    
O14   V3    S    
O18   V4    S    
C33   C34   A    
C20   H12   S    
O13   V3    S    
C35   C36   A    
C18   C19   A    
O4    V1    S    
C19   Br1   S    
C43   C44   A    
C13   Br2   S    
C37   C38   A    
C10   C11   S    
C2    C52   S    
C5    H7    S    
O18   C47   A    
C50   H26   S    
C22   C26   A    
C56   H33   S    
C55   C58   S    
