data_mof_unit_41025.cif
_audit_creation_date              2012-12-11T14:33:47-0500
_audit_creation_method            fapswitch 2.2
_symmetry_space_group_name_H-M    P1
_symmetry_Int_Tables_number       1
_space_group_crystal_system       triclinic
_cell_length_a                    13.853952
_cell_length_b                    13.973703
_cell_length_c                    27.304436
_cell_angle_alpha                 89.985611
_cell_angle_beta                  90.202361
_cell_angle_gamma                 119.47341
_cell_volume                      4601.77944846

loop_
_atom_site_label
_atom_site_type_symbol
_atom_type_description
_atom_site_fract_x
_atom_site_fract_y
_atom_site_fract_z
_atom_type_partial_charge
C1    C     C_R   0.234097 0.787201 0.568822 0.540062
C2    C     C_1   0.705527 0.862852 0.860192 -0.065991
C3    C     C_2   0.474038 0.760309 0.815867 0.328850
C4    C     C_2   0.135588 0.693498 0.826005 0.310204
C5    C     C_2   0.062364 0.400631 0.815952 0.279857
C6    C     C_1   0.105878 0.884994 0.851634 -0.018641
C7    C     C_1   0.114113 0.228373 0.852286 -0.081982
C8    C     C_1   0.633483 0.818091 0.658050 -0.015458
C9    C     C_1   0.175193 0.819446 0.656053 -0.004248
C10   C     C_1   0.182374 0.360499 0.656741 -0.011700
C11   C     C_1   0.604580 0.798272 0.615934 0.010471
C12   C     C_1   0.198740 0.806626 0.615105 0.023519
C13   C     C_1   0.194931 0.394480 0.615474 0.020120
C14   C     C_R   0.064977 0.150296 0.095930 0.573397
C15   C     C_R   0.212968 0.446791 0.568866 0.543422
C16   C     C_R   0.777599 0.884204 0.088358 0.549701
C17   C     C_R   0.116505 0.893788 0.088173 0.563845
C18   C     C_R   0.068771 0.159390 0.943354 0.536171
C19   C     C_R   0.779655 0.887188 0.950729 0.551443
C20   C     C_R   0.089510 0.931062 0.943723 0.532774
C21   C     C_R   0.618958 0.895839 0.361686 -0.103232
C22   C     C_R   0.096630 0.732634 0.363063 -0.102484
C23   C     C_R   0.264443 0.357378 0.364018 -0.101673
C24   C     C_R   0.645148 0.911720 0.311976 0.021589
C25   C     C_R   0.079557 0.744071 0.313350 0.021845
C26   C     C_R   0.553747 0.765785 0.568727 0.538656
C27   C     C_R   0.241826 0.306451 0.317852 0.021965
C28   C     C_R   0.681565 0.929618 0.210384 -0.043972
C29   C     C_R   0.060345 0.760416 0.211552 -0.042999
C30   C     C_R   0.200924 0.225576 0.221022 -0.043290
C31   C     C_R   0.232362 0.788366 0.431904 0.549270
C32   C     C_R   0.211699 0.444447 0.431416 0.550813
C33   C     C_R   0.555506 0.767094 0.431905 0.548701
C34   C     C_R   0.654992 0.001970 0.234567 -0.106331
C35   C     C_R   0.977373 0.671275 0.237361 -0.095030
C36   C     C_R   0.303217 0.256367 0.243598 -0.092114
C37   C     C_3   0.669896 0.740707 0.788954 -0.226231
C38   C     C_R   0.636728 0.993234 0.285079 0.364015
C39   C     C_R   0.987382 0.662215 0.287903 0.370311
C40   C     C_R   0.323852 0.296741 0.291625 0.373189
C41   C     C_R   0.704683 0.940154 0.160133 -0.145389
C42   C     C_R   0.050947 0.771447 0.161103 -0.129778
C43   C     C_R   0.183032 0.194824 0.171523 -0.124203
C44   C     C_R   0.728770 0.864973 0.137009 0.005535
C45   C     C_R   0.135350 0.861693 0.136374 0.004648
C46   C     C_R   0.082971 0.172316 0.148613 -0.002157
C47   C     C_R   0.657571 0.743861 0.363929 -0.117881
C48   C     C_3   0.243650 0.936532 0.786215 -0.219995
C49   C     C_R   0.263876 0.911440 0.362527 -0.113067
C50   C     C_R   0.076470 0.327736 0.368064 -0.116763
C51   C     C_R   0.681524 0.756755 0.314383 0.009902
C52   C     C_R   0.251977 0.921216 0.312817 0.008402
C53   C     C_R   0.053145 0.278743 0.321994 0.011270
C54   C     C_R   0.672844 0.839246 0.287967 0.008237
C55   C     C_R   0.160802 0.836378 0.287784 0.005350
C56   C     C_R   0.136636 0.270111 0.296222 0.006791
C57   C     C_R   0.705860 0.682951 0.290255 -0.091226
C58   C     C_R   0.334655 0.010761 0.287289 -0.081032
C59   C     C_3   0.029687 0.193506 0.769987 -0.231120
C60   C     C_R   0.949771 0.244981 0.300032 -0.099691
C61   C     C_R   0.717938 0.688271 0.239780 -0.114919
C62   C     C_R   0.329421 0.014406 0.236650 -0.119638
C63   C     C_R   0.930820 0.207846 0.251812 -0.112430
C64   C     C_R   0.708863 0.769345 0.213338 0.017290
C65   C     C_R   0.239267 0.930789 0.211450 0.017384
C66   C     C_R   0.013816 0.201454 0.225381 0.024803
C67   C     C_3   0.565445 0.855549 0.735137 -0.246627
C68   C     C_3   0.111037 0.724362 0.736069 -0.272340
C69   C     C_3   0.186191 0.425747 0.741304 -0.245330
C70   C     C_3   0.643732 0.726088 0.733455 -0.198447
C71   C     C_R   0.688168 0.846475 0.237252 0.047069
C72   C     C_R   0.153211 0.842514 0.236935 0.045521
C73   C     C_R   0.116538 0.230540 0.247805 0.044707
C74   C     C_R   0.723649 0.776168 0.163335 -0.116536
C75   C     C_R   0.231960 0.936708 0.161210 -0.126510
C76   C     C_R   0.997532 0.171633 0.176154 -0.123725
C77   C     C_R   0.618364 0.807525 0.386715 -0.021668
C78   C     C_R   0.192499 0.813344 0.386726 -0.023064
C79   C     C_R   0.183350 0.372311 0.388233 -0.022987
C80   C     C_3   0.769418 0.930669 0.723464 0.258020
C81   C     C_3   0.263268 0.920497 0.731926 -0.202131
C82   C     C_3   0.066500 0.872791 0.711437 0.313295
C83   C     C_3   0.249452 0.288550 0.724675 0.275073
C84   C     C_3   0.784502 0.943624 0.779909 -0.193672
C85   C     C_3   0.052162 0.896714 0.765677 -0.178213
C86   C     C_3   0.230926 0.253932 0.779360 -0.187075
C87   C     C_1   0.733609 0.873071 0.902523 0.006653
C88   C     C_1   0.098190 0.905431 0.893782 0.017627
C89   C     C_1   0.094859 0.197097 0.893985 -0.009742
C90   C     C_3   0.653664 0.832678 0.711130 0.053324
C91   C     C_3   0.153774 0.834049 0.707482 0.015705
C92   C     C_3   0.046653 0.232352 0.716183 -0.178114
C93   C     C_3   0.166579 0.326909 0.708380 0.028521
C94   C     C_3   0.574780 0.857657 0.792843 0.026339
C95   C     C_3   0.080970 0.736834 0.790523 0.031503
C96   C     C_3   0.160865 0.390343 0.796796 0.039217
C97   C     C_3   0.682332 0.851787 0.807063 -0.019716
C98   C     C_3   0.119588 0.862489 0.800131 -0.003675
C99   C     C_3   0.134286 0.267051 0.801171 -0.032968
C100  C     C_2   0.582063 0.963948 0.811632 0.200096
C101  C     C_2   0.955734 0.666926 0.797643 0.180206
C102  C     C_2   0.262759 0.464294 0.827679 0.272184
Cr1   Cr    Cr6+3 0.164410 0.584450 0.499910 1.046135
Cr2   Cr    Cr6+3 0.415550 0.579960 0.499910 1.054919
Cr3   Cr    Cr6+3 0.420040 0.835590 0.499910 1.047813
Cr4   Cr    Cr6+3 0.155170 0.075460 0.019960 1.037751
Cr5   Cr    Cr6+3 0.924540 0.079710 0.019960 1.026490
Cr6   Cr    Cr6+3 0.920290 0.844830 0.019960 1.038462
F1    F     F_    0.609764 0.063617 0.307463 -0.653577
F2    F     F_    0.907683 0.573135 0.311721 -0.641342
F3    F     F_    0.425210 0.329721 0.311744 -0.635351
F4    F     F_    0.851879 0.914396 0.703256 -0.635377
F5    F     F_    0.098017 0.966348 0.683482 -0.545559
F6    F     F_    0.236745 0.201239 0.695956 -0.580017
H1    H     H_    0.481545 0.794679 0.721632 0.170459
H2    H     H_    0.590060 0.946130 0.379703 0.192679
H3    H     H_    0.040200 0.657932 0.382236 0.190374
H4    H     H_    0.346646 0.390758 0.379804 0.191606
H5    H     H_    0.648541 0.065404 0.214397 0.131114
H6    H     H_    0.905714 0.607763 0.218301 0.130894
H7    H     H_    0.368607 0.252682 0.223513 0.131508
H8    H     H_    0.740370 0.716378 0.145600 0.130719
H9    H     H_    0.297772 0.006049 0.142041 0.125727
H10   H     H_    0.919395 0.151555 0.158653 0.116766
H11   H     H_    0.734616 0.629239 0.221414 0.120310
H12   H     H_    0.175994 0.699423 0.734979 0.180337
H13   H     H_    0.395253 0.083005 0.217234 0.118997
H14   H     H_    0.852900 0.188259 0.234558 0.125447
H15   H     H_    0.712115 0.619122 0.310196 0.180080
H16   H     H_    0.405182 0.075945 0.306307 0.194058
H17   H     H_    0.885224 0.251706 0.319419 0.164127
H18   H     H_    0.577754 0.935600 0.720992 0.074243
H19   H     H_    0.039104 0.657803 0.716153 0.091796
H20   H     H_    0.273692 0.492183 0.736631 0.111707
H21   H     H_    0.659257 0.677144 0.383520 0.153502
H22   H     H_    0.336302 0.975705 0.380962 0.161657
H23   H     H_    0.136115 0.462018 0.727034 0.180615
H24   H     H_    0.012791 0.337165 0.386834 0.152768
H25   H     H_    0.777549 0.007699 0.707640 0.118373
H26   H     H_    0.985531 0.807237 0.696996 0.149050
H27   H     H_    0.335891 0.356898 0.719880 0.112084
H28   H     H_    0.798209 0.025589 0.791106 0.056481
H29   H     H_    0.962836 0.852323 0.775314 0.115118
H30   H     H_    0.308851 0.303023 0.800394 0.070104
H31   H     H_    0.860079 0.940498 0.790999 0.144957
H32   H     H_    0.080580 0.985405 0.770403 0.161743
H33   H     H_    0.211834 0.167211 0.782760 0.162475
H34   H     H_    0.748060 0.738585 0.795990 0.155829
H35   H     H_    0.558255 0.656442 0.727593 0.125740
H36   H     H_    0.326797 0.893835 0.729580 0.130221
H37   H     H_    0.986617 0.260744 0.706705 0.125806
H38   H     H_    0.701716 0.704310 0.714866 0.165557
H39   H     H_    0.296968 0.000410 0.712340 0.204537
H40   H     H_    0.028850 0.161938 0.691614 0.230959
H41   H     H_    0.603571 0.670218 0.809346 0.135040
H42   H     H_    0.298916 0.920186 0.810053 0.219221
H43   H     H_    0.955863 0.194532 0.785082 0.127625
H44   H     H_    0.643199 0.042275 0.796472 0.106487
H45   H     H_    0.268645 0.024486 0.792325 0.122037
H46   H     H_    0.900954 0.625551 0.766921 0.114979
H47   H     H_    0.343663 0.477523 0.816788 0.107253
H48   H     H_    0.466874 0.753948 0.855471 0.175675
H49   H     H_    0.086736 0.632540 0.853427 0.175680
H50   H     H_    0.038294 0.381698 0.854055 0.151059
H51   H     H_    0.012526 0.107291 0.771195 0.146363
H52   H     H_    0.707605 0.007931 0.139596 0.110848
H53   H     H_    0.976406 0.713534 0.141706 0.118865
H54   H     H_    0.248181 0.192700 0.150487 0.124783
O1    O     O_R   0.137150 0.468200 0.553200 -0.508455
O2    O     O_R   0.140110 0.470540 0.446010 -0.509832
O3    O     O_R   0.529460 0.669570 0.446010 -0.509745
O4    O     O_R   0.330430 0.859890 0.446010 -0.510459
O5    O     O_R   0.176710 0.690910 0.450560 -0.500072
O6    O     O_R   0.309090 0.485800 0.450560 -0.498641
O7    O     O_R   0.514200 0.823290 0.450560 -0.503047
O8    O     O_3   0.333333 0.666667 0.499990 -0.279066
O9    O     O_R   0.176750 0.985260 0.074180 -0.528836
O10   O     O_R   0.014740 0.191490 0.074180 -0.486432
O11   O     O_R   0.808510 0.823250 0.074180 -0.516460
O12   O     O_R   0.531800 0.668950 0.553200 -0.502439
O13   O     O_R   0.146100 0.172630 0.068980 -0.474787
O14   O     O_R   0.827370 0.973470 0.068980 -0.518599
O15   O     O_R   0.026530 0.853900 0.068980 -0.490272
O16   O     O_3   0.000000 0.000000 0.020040 -0.303259
O17   O     O_R   0.148270 0.170520 0.969620 -0.482216
O18   O     O_R   0.829480 0.977750 0.969620 -0.520628
O19   O     O_R   0.022250 0.851730 0.969620 -0.462776
O20   O     O_2   0.519679 0.963937 0.843187 -0.498657
O21   O     O_2   0.914082 0.658717 0.837898 -0.512219
O22   O     O_2   0.256530 0.510040 0.864731 -0.467248
O23   O     O_R   0.331050 0.862850 0.553200 -0.496949
O24   O     O_2   0.401665 0.687760 0.791036 -0.520070
O25   O     O_2   0.235072 0.726927 0.824993 -0.464760
O26   O     O_2   0.008653 0.428354 0.789839 -0.548194
O27   O     O_R   0.179100 0.982980 0.967000 -0.491885
O28   O     O_R   0.017020 0.196120 0.967000 -0.469888
O29   O     O_R   0.803880 0.820900 0.967000 -0.497616
O30   O     O_R   0.173970 0.688730 0.549930 -0.502362
O31   O     O_R   0.311270 0.485240 0.549930 -0.492990
O32   O     O_R   0.514760 0.826030 0.549930 -0.499582

loop_
_geom_bond_atom_site_label_1
_geom_bond_atom_site_label_2
_ccdc_geom_bond_type
C58   C62   A    
C22   H3    S    
C69   H20   S    
Cr3   O4    S    
C96   C102  S    
C29   C42   A    
C59   C99   S    
Cr3   O23   S    
Cr6   O19   S    
C67   H18   S    
Cr6   O15   S    
C80   C84   S    
C69   C96   S    
C86   H33   S    
C9    C91   S    
C23   H4    S    
C46   C76   A    
C95   C98   S    
C86   H30   S    
C14   C46   S    
C43   H54   S    
C49   C78   A    
C1    C12   S    
Cr5   O18   S    
C7    C99   S    
C60   C63   A    
C75   H9    S    
C84   C97   S    
C6    C98   S    
C57   H15   S    
C5    C96   S    
C100  O20   D    
C17   C45   S    
C6    C88   T    
C69   C93   S    
C102  H47   S    
C19   O18   A    
C62   H13   S    
C16   O14   A    
C31   O4    A    
C24   C54   A    
C81   H36   S    
C83   C93   S    
C96   C99   S    
C28   C41   A    
Cr1   O5    S    
C68   C91   S    
C81   H39   S    
C48   C81   S    
C15   O1    A    
C64   C71   A    
Cr6   O29   S    
C37   H41   S    
Cr1   O8    S    
C67   H1    S    
C85   C98   S    
C3    H48   S    
C102  O22   D    
Cr3   O32   S    
C54   C71   A    
C1    O30   A    
C101  H46   S    
C22   C25   A    
C67   C94   S    
C24   C38   A    
C51   C57   A    
C84   H28   S    
C26   O32   A    
C16   C44   S    
C20   O27   A    
C82   H26   S    
C63   H14   S    
C59   H51   S    
C16   O11   A    
C29   C72   A    
C48   H42   S    
C63   C66   A    
C28   C34   A    
C37   C70   S    
C50   C79   A    
C83   F6    S    
C85   H29   S    
C35   H6    S    
C70   C90   S    
C70   H35   S    
C21   H2    S    
C60   H17   S    
C37   C97   S    
Cr5   O28   S    
C9    C12   T    
C53   C60   A    
C40   F3    S    
C80   H25   S    
C39   F2    S    
C69   H23   S    
C4    O25   D    
C48   H45   S    
C19   O29   A    
C50   C53   A    
Cr6   O16   S    
Cr5   O14   S    
C18   O28   A    
C76   H10   S    
C5    H50   S    
C25   C55   A    
C36   C40   A    
C70   H38   S    
C85   H32   S    
C2    C97   S    
Cr2   O8    S    
C83   H27   S    
C30   C73   A    
C27   C56   A    
C47   C51   A    
C94   C97   S    
C84   H31   S    
C66   C73   A    
C32   O6    A    
Cr3   O8    S    
C67   C90   S    
C82   C91   S    
Cr6   O11   S    
C42   C45   A    
C61   C64   A    
C35   C39   A    
Cr4   O13   S    
Cr1   O2    S    
C4    C95   S    
C15   O31   A    
C17   O15   A    
C94   C100  S    
C27   C40   A    
C49   C52   A    
C10   C93   S    
C41   H52   S    
C80   F4    S    
C92   H37   S    
C50   H24   S    
C4    H49   S    
C2    C87   T    
C38   F1    S    
C44   C74   A    
C86   C99   S    
C22   C78   A    
C68   C95   S    
C14   O10   A    
C52   C58   A    
Cr2   O3    S    
C1    O23   A    
C74   H8    S    
C49   H22   S    
C23   C27   A    
C13   C15   S    
Cr5   O10   S    
C41   C44   A    
C30   C43   A    
C28   C71   A    
C8    C90   S    
C47   C77   A    
C82   C85   S    
C68   H12   S    
C14   O13   A    
C42   H53   S    
C31   C78   S    
C31   O5    A    
C53   C56   A    
C17   O9    A    
C34   H5    S    
C33   O3    A    
C32   O2    A    
C68   H19   S    
C56   C73   A    
Cr4   O9    S    
C62   C65   A    
C47   H21   S    
C34   C38   A    
C18   C89   S    
C55   C72   A    
C82   F5    S    
C10   C13   T    
C65   C75   A    
Cr2   O6    S    
C52   C55   A    
C57   C61   A    
Cr4   O27   S    
C26   O12   A    
C65   C72   A    
C48   C98   S    
C29   C35   A    
C18   O17   A    
C101  O21   D    
C11   C26   S    
C30   C36   A    
Cr5   O16   S    
C45   C75   A    
C51   C54   A    
C36   H7    S    
C19   C87   S    
C3    O24   D    
C25   C39   A    
C20   O19   A    
C59   H43   S    
C33   C77   S    
Cr2   O12   S    
C58   H16   S    
C8    C11   T    
C20   C88   S    
C92   C93   S    
Cr2   O31   S    
C3    C94   S    
C59   C92   S    
C37   H34   S    
C80   C90   S    
C33   O7    A    
C43   C46   A    
C81   C91   S    
C100  H44   S    
C61   H11   S    
C83   C86   S    
Cr3   O7    S    
C21   C24   A    
C21   C77   A    
Cr1   O1    S    
C64   C74   A    
Cr4   O17   S    
C92   H40   S    
C23   C79   A    
Cr4   O16   S    
Cr1   O30   S    
C66   C76   A    
C95   C101  S    
C5    O26   D    
C32   C79   S    
C7    C89   T    
