data_mof_unit_33252.cif
_audit_creation_date              2012-10-26T19:49:54-0400
_audit_creation_method            fapswitch 2.2
_symmetry_space_group_name_H-M    P1
_symmetry_Int_Tables_number       1
_space_group_crystal_system       triclinic
_cell_length_a                    15.150086
_cell_length_b                    13.88061
_cell_length_c                    10.876829
_cell_angle_alpha                 88.811916
_cell_angle_beta                  91.232483
_cell_angle_gamma                 89.909274
_cell_volume                      2286.28935551

loop_
_atom_site_label
_atom_site_type_symbol
_atom_type_description
_atom_site_fract_x
_atom_site_fract_y
_atom_site_fract_z
_atom_type_partial_charge
C1    C     C_R   0.329847 0.499917 0.501681 0.545898
C2    C     C_R   0.951104 0.496517 0.511483 0.036305
C3    C     C_R   0.541665 0.106527 0.595429 0.214213
C4    C     C_R   0.456327 0.110652 0.403889 0.211756
C5    C     C_R   0.543105 0.208141 0.591029 0.012127
C6    C     C_R   0.455348 0.212029 0.409408 0.028497
C7    C     C_R   0.499191 0.055836 0.499138 0.071024
C8    C     C_R   0.421687 0.893916 0.478461 0.211355
C9    C     C_R   0.577979 0.893364 0.519027 0.219864
C10   C     C_R   0.425757 0.792936 0.464014 0.336584
C11   C     C_R   0.574072 0.792129 0.535101 0.355141
C12   C     C_R   0.669990 0.499760 0.501181 0.513525
C13   C     C_R   0.499638 0.946742 0.498387 -0.031542
C14   C     C_R   0.508405 0.501511 0.262791 0.549770
C15   C     C_R   0.498380 0.499498 0.738147 0.537752
C16   C     C_R   0.515525 0.686142 0.108688 -0.104827
C17   C     C_R   0.433768 0.664166 0.880433 -0.088762
C18   C     C_R   0.481435 0.766427 0.044688 -0.153103
C19   C     C_R   0.435652 0.754445 0.934151 -0.139016
C20   C     C_R   0.479481 0.584852 0.936481 -0.032430
C21   C     C_R   0.506597 0.592504 0.060214 -0.032623
C22   C     C_R   0.522940 0.506077 0.129325 -0.071106
C23   C     C_R   0.233295 0.499183 0.506326 0.011959
C24   C     C_R   0.502121 0.500104 0.872921 -0.060902
C25   C     C_R   0.545104 0.421415 0.066842 0.247888
C26   C     C_R   0.541817 0.421688 0.938533 0.261914
C27   C     C_R   0.094045 0.584839 0.500454 -0.131664
C28   C     C_R   0.904634 0.571518 0.566019 -0.127697
C29   C     C_R   0.185673 0.585793 0.499968 -0.143555
C30   C     C_R   0.812984 0.573042 0.561205 -0.134933
C31   C     C_3   0.652608 0.338033 0.175682 0.016441
C32   C     C_3   0.676351 0.239210 0.230217 -0.375348
C33   C     C_3   0.665370 0.366500 0.845071 -0.011245
C34   C     C_R   0.766266 0.498634 0.504705 0.008370
C35   C     C_3   0.722278 0.275745 0.851843 -0.383720
C36   C     C_3   0.302880 0.942333 0.583828 0.001630
C37   C     C_3   0.215696 0.996549 0.573524 -0.365586
C38   C     C_3   0.691528 0.957809 0.412775 0.001659
C39   C     C_3   0.773332 0.020563 0.424046 -0.366848
C40   C     C_3   0.341465 0.762458 0.291973 0.027281
C41   C     C_3   0.244912 0.781823 0.258857 -0.376594
C42   C     C_3   0.641901 0.743481 0.715708 0.028336
C43   C     C_3   0.719214 0.798576 0.771749 -0.390669
C44   C     C_3   0.544992 0.067443 0.800825 -0.021322
C45   C     C_R   0.187881 0.411550 0.518151 -0.129663
C46   C     C_3   0.593440 0.006305 0.898513 -0.376979
C47   C     C_3   0.448989 0.077944 0.198490 -0.020956
C48   C     C_3   0.385654 0.044279 0.097776 -0.364541
C49   C     C_R   0.812144 0.422066 0.453603 -0.143408
C50   C     C_R   0.096213 0.410670 0.522026 -0.122164
C51   C     C_R   0.903922 0.421667 0.455226 -0.122656
C52   C     C_R   0.048344 0.497272 0.511673 0.036966
Cu1   Cu    Cu3+1 0.500000 0.596430 0.500000 0.979138
Cu2   Cu    Cu3+1 0.500000 0.403570 0.500000 0.940968
H1    H     H_    0.551567 0.699487 0.193282 0.141057
H2    H     H_    0.777108 0.363459 0.410566 0.111919
H3    H     H_    0.063031 0.342201 0.533891 0.099704
H4    H     H_    0.937673 0.363576 0.410712 0.100010
H5    H     H_    0.578238 0.247167 0.660991 0.164995
H6    H     H_    0.418687 0.253678 0.340375 0.158679
H7    H     H_    0.660131 0.392204 0.248858 0.137859
H8    H     H_    0.700291 0.355751 0.102616 0.113199
H9    H     H_    0.665251 0.182901 0.160486 0.142682
H10   H     H_    0.746891 0.237634 0.259958 0.078350
H11   H     H_    0.634978 0.222913 0.310992 0.160633
H12   H     H_    0.396754 0.657936 0.794955 0.142677
H13   H     H_    0.697925 0.421405 0.904354 0.086721
H14   H     H_    0.665253 0.395232 0.749127 0.156844
H15   H     H_    0.699269 0.222653 0.783684 0.159829
H16   H     H_    0.791795 0.294633 0.831952 0.098743
H17   H     H_    0.719821 0.241691 0.944837 0.156214
H18   H     H_    0.346563 0.980312 0.650817 0.104734
H19   H     H_    0.289577 0.867926 0.619140 0.132806
H20   H     H_    0.170050 0.959732 0.508554 0.149706
H21   H     H_    0.184891 0.998897 0.665135 0.084205
H22   H     H_    0.227082 0.071457 0.539623 0.164929
H23   H     H_    0.488320 0.837486 0.082820 0.092803
H24   H     H_    0.710027 0.889044 0.368966 0.133830
H25   H     H_    0.642640 0.997136 0.352207 0.097130
H26   H     H_    0.824512 0.983212 0.482158 0.157714
H27   H     H_    0.800285 0.035434 0.331441 0.081391
H28   H     H_    0.756113 0.090082 0.466441 0.160904
H29   H     H_    0.361971 0.696091 0.245103 0.166967
H30   H     H_    0.380769 0.823958 0.254609 0.125467
H31   H     H_    0.221029 0.845466 0.308731 0.188501
H32   H     H_    0.237573 0.796411 0.158371 0.094674
H33   H     H_    0.204085 0.718248 0.283300 0.137940
H34   H     H_    0.404321 0.815677 0.887807 0.093783
H35   H     H_    0.647242 0.667333 0.748367 0.148544
H36   H     H_    0.579145 0.772562 0.752565 0.119456
H37   H     H_    0.714859 0.876005 0.745130 0.215970
H38   H     H_    0.717806 0.791856 0.873609 0.084014
H39   H     H_    0.782712 0.769079 0.739908 0.139073
H40   H     H_    0.475230 0.042446 0.794086 0.109802
H41   H     H_    0.546587 0.143638 0.830505 0.170409
H42   H     H_    0.664966 0.023813 0.899537 0.157856
H43   H     H_    0.567279 0.020717 0.990604 0.086253
H44   H     H_    0.584521 0.928724 0.879026 0.147035
H45   H     H_    0.059183 0.652777 0.490465 0.102097
H46   H     H_    0.510297 0.033790 0.197262 0.106529
H47   H     H_    0.465531 0.154663 0.177825 0.160664
H48   H     H_    0.322581 0.084896 0.101492 0.165192
H49   H     H_    0.414439 0.057190 0.006138 0.087969
H50   H     H_    0.371829 0.966223 0.110076 0.144284
H51   H     H_    0.938903 0.628768 0.613259 0.100675
H52   H     H_    0.218834 0.654426 0.493856 0.175650
H53   H     H_    0.778824 0.631302 0.603871 0.161880
H54   H     H_    0.223065 0.343602 0.525269 0.129946
N1    N     N_R   0.500000 0.258690 0.500000 -0.292888
N2    N     N_R   0.500000 0.741330 0.500000 -0.280311
O1    O     O_R   0.371460 0.581430 0.500010 -0.450397
O2    O     O_3   0.577693 0.343894 0.879083 -0.537480
O3    O     O_3   0.341049 0.940120 0.466772 -0.496702
O4    O     O_3   0.658462 0.939210 0.531239 -0.500198
O5    O     O_3   0.351225 0.746907 0.420622 -0.531701
O6    O     O_3   0.646943 0.745524 0.585595 -0.522048
O7    O     O_3   0.587646 0.056826 0.687963 -0.534670
O8    O     O_3   0.407797 0.065545 0.312722 -0.524367
O9    O     O_R   0.628540 0.581430 0.499990 -0.452251
O10   O     O_R   0.371470 0.418560 0.500010 -0.511837
O11   O     O_R   0.628530 0.418560 0.499990 -0.529847
O12   O     O_R   0.500000 0.581450 0.319650 -0.519056
O13   O     O_R   0.500000 0.581450 0.680350 -0.526757
O14   O     O_R   0.500010 0.418580 0.319650 -0.466876
O15   O     O_R   0.499990 0.418580 0.680350 -0.467087
O16   O     O_3   0.564940 0.335559 0.128804 -0.528924

loop_
_geom_bond_atom_site_label_1
_geom_bond_atom_site_label_2
_ccdc_geom_bond_type
Cu1   N2    S    
C37   H20   S    
C16   C21   A    
C23   C45   A    
Cu2   O10   S    
C30   H53   S    
C27   C29   A    
C40   H30   S    
C31   H8    S    
Cu1   Cu2   S    
C41   H32   S    
C27   H45   S    
C17   H12   S    
C8    C13   A    
C15   O13   A    
C47   H47   S    
C9    O4    S    
C23   C29   A    
C36   C37   S    
C24   C26   A    
C3    C7    A    
Cu1   O12   S    
C38   C39   S    
C38   O4    S    
C40   O5    S    
C38   H25   S    
C48   H50   S    
C17   C20   A    
C18   C19   A    
C31   H7    S    
C9    C13   A    
C3    O7    S    
C2    C51   A    
C43   H39   S    
C47   O8    S    
C12   O11   A    
C20   C24   A    
C35   H16   S    
C49   C51   A    
C22   C25   A    
C50   C52   A    
C45   H54   S    
Cu1   O1    S    
C37   H21   S    
C35   H17   S    
C21   C22   A    
C11   N2    A    
C40   H29   S    
C4    O8    S    
C4    C7    A    
C36   O3    S    
C44   C46   S    
C41   H33   S    
Cu2   O15   S    
C14   O14   A    
C30   C34   A    
C6    H6    S    
C32   H10   S    
C4    C6    A    
C19   H34   S    
Cu1   O13   S    
C33   O2    S    
C5    H5    S    
C17   C19   A    
C38   H24   S    
C25   C26   A    
C48   H49   S    
C43   H37   S    
C47   H46   S    
Cu2   N1    S    
C42   H36   S    
C1    O10   A    
C25   O16   S    
C12   O9    A    
C47   C48   S    
C28   H51   S    
C48   H48   S    
C51   H4    S    
C11   O6    S    
C9    C11   A    
C39   H27   S    
C2    C52   S    
C8    O3    S    
C42   O6    S    
C40   C41   S    
Cu2   O11   S    
C1    C23   S    
C6    N1    A    
C29   H52   S    
C42   C43   S    
C12   C34   S    
C26   O2    S    
C27   C52   A    
C33   H13   S    
Cu2   O14   S    
C15   C24   S    
C34   C49   A    
C50   H3    S    
C46   H43   S    
C31   C32   S    
C39   H28   S    
C3    C5    A    
C16   C18   A    
Cu1   O9    S    
C32   H9    S    
C49   H2    S    
C41   H31   S    
C43   H38   S    
C42   H35   S    
C39   H26   S    
C14   C22   S    
C28   C30   A    
C16   H1    S    
C44   H41   S    
C1    O1    A    
C45   C50   A    
C5    N1    A    
C44   O7    S    
C18   H23   S    
C33   C35   S    
C37   H22   S    
C10   N2    A    
C46   H44   S    
C44   H40   S    
C36   H19   S    
C7    C13   S    
C46   H42   S    
C20   C21   A    
C35   H15   S    
C8    C10   A    
C15   O15   A    
C14   O12   A    
C2    C28   A    
C31   O16   S    
C10   O5    S    
C36   H18   S    
C33   H14   S    
C32   H11   S    
