data_mof_unit_20098.cif
_audit_creation_date              2012-12-11T14:19:22-0500
_audit_creation_method            fapswitch 2.2
_symmetry_space_group_name_H-M    P1
_symmetry_Int_Tables_number       1
_space_group_crystal_system       triclinic
_cell_length_a                    30.713474
_cell_length_b                    17.457791
_cell_length_c                    19.622862
_cell_angle_alpha                 90.484945
_cell_angle_beta                  140.349968
_cell_angle_gamma                 89.831928
_cell_volume                      6713.43196285

loop_
_atom_site_label
_atom_site_type_symbol
_atom_type_description
_atom_site_fract_x
_atom_site_fract_y
_atom_site_fract_z
_atom_type_partial_charge
C1    C     C_R   0.180847 0.403415 0.804136 -0.148909
C2    C     C_R   0.132082 0.336365 0.500796 0.072295
C3    C     C_R   0.411175 0.831379 0.277217 -0.111118
C4    C     C_R   0.161723 0.333768 0.809931 0.144137
C5    C     C_R   0.853366 0.359926 0.177477 0.133320
C6    C     C_R   0.661723 0.833768 0.809932 0.144143
C7    C     C_R   0.353366 0.859925 0.177478 0.133310
C8    C     C_R   0.073757 0.776033 0.688777 0.132275
C9    C     C_R   0.007878 0.792918 0.586760 -0.177379
C10   C     C_R   0.968564 0.854409 0.570197 -0.382667
C11   C     C_R   0.998602 0.902362 0.655849 -0.050168
C12   C     C_R   0.068626 0.897302 0.748664 -0.093922
C13   C     C_R   0.367880 0.836624 0.499279 0.067534
C14   C     C_R   0.105843 0.838162 0.761900 -0.169386
C15   C     C_R   0.931706 0.774103 0.324019 0.109507
C16   C     C_R   0.999055 0.785268 0.429238 -0.140334
C17   C     C_R   0.041357 0.847426 0.454751 -0.370916
C18   C     C_R   0.013488 0.901438 0.376298 -0.059183
C19   C     C_R   0.944320 0.897653 0.279775 -0.097153
C20   C     C_R   0.903708 0.838086 0.256935 -0.173218
C21   C     C_R   0.573750 0.276022 0.688791 0.132426
C22   C     C_R   0.507871 0.292944 0.586761 -0.177878
C23   C     C_R   0.468562 0.354381 0.570185 -0.383514
C24   C     C_R   0.632082 0.836365 0.500796 0.072294
C25   C     C_R   0.498599 0.402377 0.655867 -0.050105
C26   C     C_R   0.568626 0.397309 0.748668 -0.093909
C27   C     C_R   0.605837 0.338142 0.761917 -0.169168
C28   C     C_R   0.431731 0.274088 0.324020 0.109661
C29   C     C_R   0.499080 0.285254 0.429216 -0.140171
C30   C     C_R   0.541342 0.347383 0.454740 -0.372095
C31   C     C_R   0.513493 0.401451 0.376265 -0.059082
C32   C     C_R   0.444318 0.397668 0.279752 -0.097102
C33   C     C_R   0.403713 0.338095 0.256964 -0.173147
C34   C     C_R   0.172438 0.673394 0.812794 0.073983
C35   C     C_R   0.829006 0.672365 0.190863 0.078558
C36   C     C_R   0.672439 0.173386 0.812798 0.073964
C37   C     C_R   0.329013 0.172377 0.190868 0.078538
C38   C     C_2   0.837975 0.257203 0.076370 -0.109918
C39   C     C_2   0.176745 0.228612 0.904748 -0.117004
C40   C     C_2   0.337977 0.757197 0.076357 -0.109993
C41   C     C_R   0.829513 0.419736 0.189313 -0.142845
C42   C     C_2   0.676745 0.728613 0.904749 -0.117004
C43   C     C_2   0.819774 0.327828 0.076541 -0.189631
C44   C     C_2   0.204338 0.280010 0.894760 -0.208413
C45   C     C_2   0.319772 0.827823 0.076536 -0.189610
C46   C     C_2   0.704337 0.780010 0.894761 -0.208427
C47   C     C_2   0.290579 0.708779 0.980481 -0.112941
C48   C     C_2   0.719205 0.682542 0.999954 -0.117149
C49   C     C_2   0.790573 0.208773 0.980470 -0.113352
C50   C     C_2   0.219206 0.182543 0.999955 -0.117131
C51   C     C_2   0.223725 0.716560 0.911298 -0.200521
C52   C     C_R   0.680847 0.903415 0.804136 -0.148915
C53   C     C_2   0.778750 0.712270 0.091668 -0.183355
C54   C     C_2   0.723735 0.216523 0.911332 -0.200384
C55   C     C_2   0.278756 0.212274 0.091665 -0.183319
C56   C     C_R   0.166514 0.293154 0.489751 0.133263
C57   C     C_R   0.832695 0.293310 0.509008 0.132977
C58   C     C_R   0.666514 0.793154 0.489751 0.133264
C59   C     C_R   0.332695 0.793310 0.509008 0.132980
C60   C     C_R   0.829827 0.697062 0.512389 0.121849
C61   C     C_R   0.165970 0.695873 0.479445 0.121702
C62   C     C_R   0.329827 0.197062 0.512390 0.121847
C63   C     C_R   0.329513 0.919737 0.189313 -0.142848
C64   C     C_R   0.665972 0.195868 0.479443 0.121721
C65   C     C_R   0.821063 0.814605 0.569298 0.021944
C66   C     C_R   0.177353 0.814031 0.429105 0.021829
C67   C     C_R   0.321063 0.314604 0.569299 0.021952
C68   C     C_R   0.677354 0.314032 0.429103 0.021776
C69   C     C_R   0.845040 0.586531 0.449206 -0.112509
C70   C     C_R   0.153512 0.587466 0.547859 -0.117755
C71   C     C_R   0.345040 0.086530 0.449206 -0.112503
C72   C     C_R   0.653513 0.087460 0.547861 -0.117738
C73   C     C_R   0.856495 0.768262 0.566906 -0.243192
C74   C     C_R   0.865710 0.651827 0.504449 0.044513
C75   C     C_R   0.140720 0.767849 0.429358 -0.239539
C76   C     C_R   0.356494 0.268262 0.566908 -0.243200
C77   C     C_R   0.640722 0.267850 0.429353 -0.239481
C78   C     C_R   0.768973 0.669729 0.465298 -0.276862
C79   C     C_R   0.227188 0.668961 0.526647 -0.278899
C80   C     C_R   0.268973 0.169729 0.465299 -0.276852
C81   C     C_R   0.727189 0.168962 0.526646 -0.278925
C82   C     C_R   0.734857 0.712166 0.472429 0.175225
C83   C     C_R   0.262531 0.711753 0.522375 0.173650
C84   C     C_R   0.234857 0.212166 0.472429 0.175222
C85   C     C_R   0.130202 0.650891 0.487949 0.049091
C86   C     C_R   0.762531 0.211753 0.522375 0.173656
C87   C     C_R   0.260212 0.285100 0.523750 0.146858
C88   C     C_R   0.738129 0.284608 0.473781 0.145296
C89   C     C_R   0.760212 0.785100 0.523749 0.146858
C90   C     C_R   0.238129 0.784608 0.473782 0.145277
C91   C     C_R   0.224844 0.324717 0.530492 -0.278479
C92   C     C_R   0.774369 0.324526 0.468880 -0.276757
C93   C     C_R   0.724844 0.824717 0.530492 -0.278480
C94   C     C_R   0.274369 0.824526 0.468881 -0.276759
C95   C     C_R   0.141297 0.222138 0.437453 -0.177353
C96   C     C_R   0.365709 0.151825 0.504450 0.044480
C97   C     C_R   0.856973 0.222139 0.558808 -0.176376
C98   C     C_R   0.641297 0.722138 0.437453 -0.177355
C99   C     C_R   0.356973 0.722139 0.558808 -0.176371
C100  C     C_R   0.175348 0.181771 0.428511 -0.211125
C101  C     C_R   0.822079 0.181615 0.565875 -0.209637
C102  C     C_R   0.675348 0.681771 0.428511 -0.211125
C103  C     C_R   0.322079 0.681615 0.565875 -0.209634
C104  C     C_R   0.926864 0.316509 0.535291 -0.136842
C105  C     C_R   0.073827 0.315463 0.466163 -0.144929
C106  C     C_R   0.426864 0.816509 0.535291 -0.136842
C107  C     C_R   0.630213 0.150869 0.487942 0.049098
C108  C     C_R   0.573827 0.815463 0.466164 -0.144928
C109  C     C_R   0.104691 0.694664 0.716605 0.040769
C110  C     C_R   0.896852 0.694179 0.287144 0.030691
C111  C     C_R   0.604682 0.194663 0.716620 0.040766
C112  C     C_R   0.396862 0.194185 0.287157 0.030595
C113  C     C_R   0.845075 0.404793 0.445680 -0.126262
C114  C     C_R   0.154940 0.405215 0.554395 -0.127224
C115  C     C_R   0.345075 0.904793 0.445680 -0.126261
C116  C     C_R   0.654939 0.905215 0.554395 -0.127224
C117  C     C_R   0.183706 0.600967 0.801274 -0.131921
C118  C     C_R   0.867880 0.336624 0.499279 0.067535
C119  C     C_R   0.816329 0.600825 0.201045 -0.135294
C120  C     C_R   0.683698 0.100982 0.801292 -0.131915
C121  C     C_R   0.316330 0.100829 0.201046 -0.135248
C122  C     C_R   0.921606 0.676498 0.536242 -0.131441
C123  C     C_R   0.072060 0.672996 0.452009 -0.120612
C124  C     C_R   0.421605 0.176495 0.536243 -0.131417
C125  C     C_R   0.572074 0.172953 0.451997 -0.120654
C126  C     C_R   0.096261 0.316561 0.713510 -0.118004
C127  C     C_R   0.911175 0.331379 0.277217 -0.111116
C128  C     C_R   0.596261 0.816561 0.713510 -0.118003
H1    H     H_    0.231233 0.428545 0.863091 0.092084
H2    H     H_    0.199781 0.127867 0.994229 0.114547
H3    H     H_    0.311410 0.662882 0.973314 0.116371
H4    H     H_    0.699782 0.627865 0.994226 0.114562
H5    H     H_    0.206908 0.752462 0.932206 0.139073
H6    H     H_    0.791971 0.766012 0.088404 0.133905
H7    H     H_    0.706945 0.252450 0.932272 0.139036
H8    H     H_    0.291989 0.266012 0.088407 0.133888
H9    H     H_    0.242377 0.380121 0.567148 0.117243
H10   H     H_    0.757667 0.380135 0.434327 0.117518
H11   H     H_    0.742377 0.880122 0.567148 0.117243
H12   H     H_    0.783970 0.452993 0.125074 0.093280
H13   H     H_    0.257667 0.880135 0.434328 0.117518
H14   H     H_    0.095639 0.197041 0.403776 0.112107
H15   H     H_    0.902438 0.197036 0.591829 0.112526
H16   H     H_    0.595639 0.697041 0.403776 0.112105
H17   H     H_    0.402438 0.697036 0.591829 0.112527
H18   H     H_    0.655489 0.626471 0.388273 0.122944
H19   H     H_    0.341244 0.626126 0.604110 0.123180
H20   H     H_    0.155489 0.126471 0.388273 0.122944
H21   H     H_    0.841244 0.126125 0.604110 0.123180
H22   H     H_    0.905228 0.789850 0.609299 0.135044
H23   H     H_    0.731233 0.928545 0.863091 0.092087
H24   H     H_    0.093377 0.790215 0.392204 0.135608
H25   H     H_    0.405228 0.289849 0.609304 0.135077
H26   H     H_    0.593380 0.290231 0.392193 0.135712
H27   H     H_    0.748384 0.614774 0.424747 0.117694
H28   H     H_    0.247084 0.613861 0.565072 0.118609
H29   H     H_    0.248384 0.114774 0.424747 0.117692
H30   H     H_    0.747085 0.113861 0.565071 0.118612
H31   H     H_    0.797900 0.555623 0.399118 0.082457
H32   H     H_    0.201089 0.558023 0.597695 0.083712
H33   H     H_    0.297900 0.055623 0.399117 0.082458
H34   H     H_    0.283970 0.952992 0.125074 0.093279
H35   H     H_    0.701089 0.058021 0.597700 0.083710
H36   H     H_    0.954515 0.263445 0.571496 0.085634
H37   H     H_    0.048671 0.260437 0.434987 0.084989
H38   H     H_    0.454515 0.763445 0.571496 0.085635
H39   H     H_    0.548671 0.760436 0.434987 0.084988
H40   H     H_    0.797054 0.432376 0.395757 0.081735
H41   H     H_    0.202685 0.433958 0.604175 0.081081
H42   H     H_    0.297054 0.932376 0.395757 0.081736
H43   H     H_    0.702685 0.933958 0.604175 0.081081
H44   H     H_    0.231484 0.570875 0.856460 0.095641
H45   H     H_    0.773491 0.355666 0.002135 0.124659
H46   H     H_    0.767687 0.572620 0.149136 0.091449
H47   H     H_    0.731477 0.070891 0.856491 0.095664
H48   H     H_    0.267686 0.072618 0.149137 0.091434
H49   H     H_    0.935968 0.729884 0.564514 0.147695
H50   H     H_    0.041330 0.714652 0.392787 0.135613
H51   H     H_    0.435965 0.229882 0.564513 0.147754
H52   H     H_    0.541334 0.214599 0.392815 0.135733
H53   H     H_    0.069571 0.262887 0.687253 0.087602
H54   H     H_    0.940677 0.285085 0.293807 0.086595
H55   H     H_    0.569571 0.762887 0.687254 0.087604
H56   H     H_    0.258200 0.282862 0.948035 0.132611
H57   H     H_    0.440677 0.785085 0.293807 0.086596
H58   H     H_    0.885753 0.230109 0.148473 0.111969
H59   H     H_    0.122413 0.224356 0.847454 0.121394
H60   H     H_    0.385753 0.730112 0.148471 0.111964
H61   H     H_    0.622413 0.724356 0.847454 0.121399
H62   H     H_    0.336674 0.411141 0.648616 0.086134
H63   H     H_    0.396801 0.395100 0.664050 0.099318
H64   H     H_    0.662717 0.409636 0.352170 0.087070
H65   H     H_    0.603183 0.395869 0.339187 0.100232
H66   H     H_    0.836674 0.911140 0.648615 0.086138
H67   H     H_    0.273490 0.855671 0.002138 0.124647
H68   H     H_    0.896801 0.895100 0.664049 0.099318
H69   H     H_    0.162717 0.909634 0.352170 0.087070
H70   H     H_    0.103183 0.895867 0.339190 0.100224
H71   H     H_    0.991721 0.844301 0.543281 0.205716
H72   H     H_    0.911289 0.855479 0.500713 0.161203
H73   H     H_    0.969014 0.946042 0.646109 0.105262
H74   H     H_    0.094569 0.939098 0.811689 0.094112
H75   H     H_    0.159716 0.844011 0.831133 0.102427
H76   H     H_    0.020212 0.831637 0.482835 0.197695
H77   H     H_    0.099033 0.844204 0.522545 0.163985
H78   H     H_    0.758200 0.782863 0.948040 0.132620
H79   H     H_    0.044629 0.946975 0.392272 0.108845
H80   H     H_    0.920808 0.941947 0.221400 0.097621
H81   H     H_    0.850448 0.848977 0.190545 0.104261
H82   H     H_    0.491730 0.344271 0.543391 0.206299
H83   H     H_    0.411305 0.355396 0.500698 0.161408
H84   H     H_    0.469020 0.446028 0.646126 0.105349
H85   H     H_    0.594566 0.439097 0.811707 0.094079
H86   H     H_    0.659709 0.343914 0.831271 0.102298
H87   H     H_    0.520316 0.331653 0.482810 0.198207
H88   H     H_    0.599045 0.344315 0.522628 0.164037
H89   H     H_    0.811393 0.162928 0.973305 0.116551
H90   H     H_    0.544602 0.447023 0.392261 0.108871
H91   H     H_    0.420780 0.441977 0.221383 0.097585
H92   H     H_    0.350450 0.348999 0.190611 0.104251
N1    N     N_R   0.126390 0.429310 0.705280 -0.041591
N2    N     N_R   0.059390 0.372370 0.492190 -0.039444
N3    N     N_R   0.440610 0.872370 0.507810 -0.040693
N4    N     N_R   0.559390 0.872370 0.492190 -0.039444
N5    N     N_R   0.075190 0.630500 0.650860 -0.058737
N6    N     N_R   0.924810 0.630500 0.349140 -0.058703
N7    N     N_R   0.575190 0.130500 0.650860 -0.058724
N8    N     N_R   0.424810 0.130500 0.349140 -0.058700
N9    N     N_R   0.889410 0.427540 0.453390 -0.040155
N10   N     N_R   0.110590 0.427540 0.546610 -0.039257
N11   N     N_R   0.389410 0.927540 0.453390 -0.040156
N12   N     N_R   0.873610 0.429310 0.294720 -0.042969
N13   N     N_R   0.610590 0.927540 0.546610 -0.039257
N14   N     N_R   0.126390 0.575330 0.705280 -0.053392
N15   N     N_R   0.873610 0.575330 0.294720 -0.052401
N16   N     N_R   0.626390 0.075330 0.705280 -0.053400
N17   N     N_R   0.373610 0.075330 0.294720 -0.052402
N18   N     N_R   0.940610 0.629500 0.507810 -0.039905
N19   N     N_R   0.059390 0.629500 0.492190 -0.040673
N20   N     N_R   0.440610 0.129500 0.507810 -0.039891
N21   N     N_R   0.559390 0.129500 0.492190 -0.040691
N22   N     N_R   0.075190 0.373370 0.650860 -0.045720
N23   N     N_R   0.626390 0.929310 0.705280 -0.041593
N24   N     N_R   0.924810 0.373370 0.349140 -0.047436
N25   N     N_R   0.575190 0.873370 0.650860 -0.045721
N26   N     N_R   0.424810 0.873370 0.349140 -0.047436
N27   N     N_3   0.344140 0.392504 0.607804 -0.213184
N28   N     N_3   0.655488 0.391902 0.393269 -0.213567
N29   N     N_3   0.844140 0.892504 0.607804 -0.213193
N30   N     N_3   0.155488 0.891901 0.393270 -0.213574
N31   N     N_R   0.373610 0.929310 0.294720 -0.042970
N32   N     N_R   0.889410 0.573560 0.453390 -0.041065
N33   N     N_R   0.110590 0.573560 0.546610 -0.042195
N34   N     N_R   0.389410 0.073560 0.453390 -0.041068
N35   N     N_R   0.610590 0.073560 0.546610 -0.042190
N36   N     N_R   0.940610 0.372370 0.507810 -0.040693
Ni1   Ni    Ni4+2 0.118300 0.501760 0.624810 0.205009
Ni2   Ni    Ni4+2 0.881700 0.501760 0.375190 0.206374
Ni3   Ni    Ni4+2 0.618300 0.001760 0.624810 0.205011
Ni4   Ni    Ni4+2 0.381700 0.001760 0.375190 0.206375
Ni5   Ni    Ni4+2 0.000000 0.373470 0.500000 0.211149
Ni6   Ni    Ni4+2 0.500000 0.873470 0.500000 0.211148
Ni7   Ni    Ni4+2 1.000000 0.628290 0.500000 0.234088
Ni8   Ni    Ni4+2 0.500000 0.128290 0.500000 0.234111

loop_
_geom_bond_atom_site_label_1
_geom_bond_atom_site_label_2
_ccdc_geom_bond_type
C70   C85   A    
C45   H67   S    
C56   C95   A    
C63   N31   A    
C66   N30   S    
C112  N8    A    
C57   C92   A    
C65   N29   S    
C73   H22   S    
C122  H49   S    
C59   C99   A    
C64   C77   A    
C60   C73   A    
C35   C119  A    
C19   C20   A    
C58   C98   A    
C84   C87   A    
C80   C84   A    
C92   H10   S    
N2    Ni5   S    
C113  H40   S    
C103  H19   S    
C66   C90   A    
C38   C49   S    
C68   N28   S    
C65   C89   A    
N7    N16   A    
C60   C78   A    
H62   N27   S    
C82   C89   A    
C83   C103  A    
C26   H85   S    
N5    N14   A    
C7    C45   S    
C62   C80   A    
C28   C29   A    
C58   C93   A    
C100  H20   S    
C28   C112  S    
C1    H1    S    
C123  H50   S    
C119  H46   S    
C11   H73   S    
C30   C31   A    
C108  N4    A    
C86   C88   A    
C78   H27   S    
C29   H87   S    
C121  H48   S    
C35   C53   S    
C66   C75   A    
C55   H8    S    
C76   H25   S    
H63   N27   S    
C1    N1    A    
C18   C19   A    
C42   C46   D    
C60   C74   S    
C37   C112  A    
H70   N30   S    
C62   C76   A    
C97   H15   S    
C124  H51   S    
C50   H2    S    
C69   N32   A    
C69   H31   S    
C79   H28   S    
C91   H9    S    
N14   Ni1   S    
C67   N27   S    
N22   Ni5   S    
C56   C91   A    
C61   C75   A    
C88   C92   A    
C16   C17   A    
N23   N25   A    
N21   Ni8   S    
C116  N13   A    
C126  N22   A    
C27   H86   S    
C34   C109  A    
C41   N12   A    
N23   Ni3   S    
C125  N21   A    
C114  N10   A    
N21   N35   A    
C3    N26   A    
C12   H74   S    
N18   N32   A    
C71   H33   S    
C9    C10   A    
C44   H56   S    
C36   C111  A    
C115  N11   A    
C81   C86   A    
N26   Ni6   S    
C62   C96   S    
C42   H61   S    
N1    N22   A    
C31   H90   S    
C39   H59   S    
N9    Ni2   S    
C34   C117  A    
C21   C27   A    
N8    Ni8   S    
C49   C54   D    
N12   Ni2   S    
C21   C22   A    
C63   H34   S    
C89   C93   A    
C15   C110  S    
N19   Ni7   S    
N18   Ni7   S    
C15   C20   A    
C128  H55   S    
N20   Ni8   S    
C115  H42   S    
N1    Ni1   S    
N25   Ni6   S    
C3    H57   S    
C70   N33   A    
C21   C111  S    
N3    N11   A    
N7    Ni8   S    
C90   C94   A    
C123  N19   A    
N26   N31   A    
C114  H41   S    
N36   Ni5   S    
C40   C45   D    
N35   Ni3   S    
C87   C91   A    
C96   C124  A    
N32   Ni2   S    
C84   C100  A    
C72   H35   S    
C2    C114  A    
C117  N14   A    
C107  C125  A    
N13   Ni3   S    
C99   C103  A    
C110  N6    A    
C65   C73   A    
C109  N5    A    
C95   C100  A    
C8    C9    A    
C47   C51   D    
C71   C96   A    
C4    C44   S    
C25   C26   A    
C98   C102  A    
C40   C47   S    
C30   H88   S    
C15   C16   A    
C34   C51   S    
N6    N15   A    
C116  H43   S    
C47   H3    S    
C18   H79   S    
H68   N29   S    
C25   H84   S    
N4    N13   A    
C41   H12   S    
C104  C118  A    
N19   N33   A    
C29   C30   A    
C93   H11   S    
C77   H26   S    
C78   C82   A    
C120  H47   S    
C106  N3    A    
C72   C107  A    
N34   Ni4   S    
C75   H24   S    
C43   H45   S    
C57   C97   A    
C14   H75   S    
C5    C127  A    
N17   Ni4   S    
C17   C18   A    
C82   C102  A    
H66   N29   S    
C69   C74   A    
C42   C48   S    
C20   H81   S    
C7    C63   A    
C13   C115  A    
C35   C110  A    
C61   C85   S    
N31   Ni4   S    
C37   C121  A    
C119  N15   A    
C59   C94   A    
C108  H39   S    
C12   C14   A    
C28   C33   A    
C24   C116  A    
N24   Ni5   S    
C26   C27   A    
C19   H80   S    
C68   C88   A    
C52   N23   A    
C128  N25   A    
C72   N35   A    
C106  H38   S    
C98   H16   S    
N9    N36   A    
C64   C107  S    
C33   H92   S    
C68   C77   A    
C46   H78   S    
C83   C90   A    
C5    C41   A    
N16   Ni3   S    
C8    C14   A    
C81   H30   S    
C6    C46   S    
C74   C122  A    
N12   N24   A    
C94   H13   S    
N20   N34   A    
C31   C32   A    
C48   H4    S    
C53   H6    S    
C13   C106  A    
C10   H72   S    
C104  H36   S    
N4    Ni6   S    
C11   C12   A    
C113  N9    A    
C39   C44   D    
C40   H60   S    
C48   C53   D    
N11   Ni4   S    
C127  N24   A    
C2    C105  A    
C3    C7    A    
C50   C55   D    
C104  N36   A    
C4    C126  A    
H64   N28   S    
N10   Ni1   S    
C1    C4    A    
C111  N7    A    
C32   C33   A    
C17   H77   S    
N15   Ni2   S    
C6    C128  A    
N8    N17   A    
C127  H54   S    
C38   H58   S    
C8    C109  S    
C102  H18   S    
C79   C83   A    
C51   H5    S    
C117  H44   S    
C80   H29   S    
C122  N18   A    
C23   H83   S    
H69   N30   S    
C61   C79   A    
C52   H23   S    
C121  N17   A    
C54   H7    S    
C22   H82   S    
C101  H21   S    
C124  N20   A    
H65   N28   S    
C105  H37   S    
C85   C123  A    
C70   H32   S    
C23   C25   A    
C99   H17   S    
C36   C120  A    
C64   C81   A    
C32   H91   S    
C36   C54   S    
C10   C11   A    
C9    H71   S    
C113  C118  A    
C37   C55   S    
C120  N16   A    
N33   Ni1   S    
C38   C43   D    
C39   C50   S    
N2    N10   A    
C95   H14   S    
C24   C58   S    
C49   H89   S    
C125  H52   S    
N5    Ni7   S    
C22   C23   A    
C5    C43   S    
C126  H53   S    
C2    C56   S    
C67   C76   A    
C6    C52   A    
C13   C59   S    
C16   H76   S    
C86   C101  A    
N6    Ni7   S    
C71   N34   A    
N3    Ni6   S    
C97   C101  A    
C24   C108  A    
C105  N2    A    
C67   C87   A    
C57   C118  S    
