data_mof_unit_68554.cif
_audit_creation_date              2012-12-11T15:35:52-0500
_audit_creation_method            fapswitch 2.2
_symmetry_space_group_name_H-M    P1
_symmetry_Int_Tables_number       1
_space_group_crystal_system       triclinic
_cell_length_a                    7.07843
_cell_length_b                    11.625196
_cell_length_c                    36.456656
_cell_angle_alpha                 90.067003
_cell_angle_beta                  91.82127
_cell_angle_gamma                 88.950092
_cell_volume                      2997.93087586

loop_
_atom_site_label
_atom_site_type_symbol
_atom_type_description
_atom_site_fract_x
_atom_site_fract_y
_atom_site_fract_z
_atom_type_partial_charge
O1    O     O_R   0.379730 0.148600 0.662710 -0.539765
O2    O     O_R   0.620270 0.851400 0.337290 -0.531324
O3    O     O_R   0.120270 0.648600 0.337290 -0.539259
O4    O     O_R   0.879730 0.351400 0.662710 -0.540006
O5    O     O_R   0.722480 0.134490 0.741330 -0.539683
O6    O     O_R   0.277520 0.865510 0.258670 -0.540806
O7    O     O_R   0.777520 0.634490 0.258670 -0.538945
O8    O     O_R   0.222480 0.365510 0.741330 -0.538749
O9    O     O_R   0.892880 0.345890 0.741600 -0.535319
O10   O     O_R   0.107120 0.654110 0.258400 -0.535784
O11   O     O_R   0.607120 0.845890 0.258400 -0.534253
O12   O     O_R   0.392880 0.154110 0.741600 -0.534501
C1    C     C_R   0.556484 0.112473 0.754138 0.693669
C2    C     C_R   0.443535 0.887258 0.245760 0.692438
C3    C     C_R   0.946416 0.612926 0.245742 0.693172
C4    C     C_R   0.053706 0.387011 0.754248 0.693853
O13   O     O_R   0.709490 0.135560 0.662990 -0.532185
O14   O     O_R   0.290510 0.864440 0.337010 -0.539686
O15   O     O_R   0.790510 0.635560 0.337010 -0.530493
O16   O     O_R   0.209490 0.364440 0.662990 -0.532239
C5    C     C_R   0.539837 0.109198 0.650263 0.701042
C6    C     C_R   0.460196 0.891199 0.349663 0.702295
C7    C     C_R   0.961787 0.608912 0.349686 0.701273
C8    C     C_R   0.037889 0.391199 0.650396 0.697860
O17   O     O_3   0.552800 0.316610 0.702160 -0.368588
O18   O     O_3   0.447200 0.683390 0.297840 -0.368750
O19   O     O_3   0.947200 0.816610 0.297840 -0.369699
O20   O     O_3   0.052800 0.183390 0.702160 -0.369923
V1    V     V_3+5 0.827630 0.234380 0.702160 1.418550
V2    V     V_3+5 0.172370 0.765620 0.297840 1.412110
V3    V     V_3+5 0.672370 0.734380 0.297840 1.428264
V4    V     V_3+5 0.327630 0.265620 0.702160 1.417517
C9    C     C_R   0.053408 0.648066 0.916672 0.538829
C10   C     C_R   0.944430 0.353810 0.082762 0.540901
C11   C     C_R   0.511409 0.147307 0.084206 0.540451
C12   C     C_R   0.486320 0.846502 0.914307 0.538359
O21   O     O_2   0.102936 0.537705 0.923846 -0.552801
O22   O     O_2   0.894318 0.464155 0.075729 -0.552518
O23   O     O_2   0.569395 0.037722 0.078944 -0.552020
O24   O     O_2   0.426559 0.955724 0.919597 -0.552425
N1    N     N_R   0.033100 0.686644 0.880957 -0.536607
N2    N     N_R   0.966846 0.315104 0.118441 -0.535951
N3    N     N_R   0.468979 0.186633 0.118849 -0.541009
N4    N     N_R   0.530550 0.807596 0.879694 -0.541045
C13   C     C_R   0.994572 0.802402 0.874919 0.570900
C14   C     C_R   0.005998 0.199303 0.124318 0.571109
C15   C     C_R   0.426832 0.302821 0.123020 0.547189
C16   C     C_R   0.572271 0.691345 0.875494 0.545570
C17   C     C_R   0.112640 0.646054 0.815891 -0.097196
C18   C     C_R   0.891570 0.354374 0.183760 -0.096436
C19   C     C_R   0.497328 0.149925 0.186613 -0.078611
C20   C     C_R   0.509295 0.846061 0.811807 -0.079992
C21   C     C_R   0.092237 0.581665 0.783347 0.034393
C22   C     C_R   0.912978 0.418061 0.216402 0.035432
C23   C     C_R   0.463849 0.084701 0.218116 0.036609
C24   C     C_R   0.541707 0.913475 0.780692 0.033436
C25   C     C_R   0.989189 0.421768 0.819922 -0.244207
C26   C     C_R   0.008789 0.579709 0.179824 -0.245404
C27   C     C_R   0.422411 0.918917 0.178487 -0.243986
C28   C     C_R   0.575164 0.077866 0.821181 -0.243623
C29   C     C_R   0.984741 0.492662 0.850967 -0.065757
C30   C     C_R   0.014050 0.509216 0.148646 -0.072271
C31   C     C_R   0.423644 0.990033 0.147470 -0.096788
C32   C     C_R   0.575047 0.005258 0.851808 -0.094264
C33   C     C_R   0.048422 0.607044 0.849731 0.367733
C34   C     C_R   0.952647 0.394334 0.149818 0.368629
C35   C     C_R   0.467067 0.108015 0.150671 0.357659
C36   C     C_R   0.534799 0.886935 0.848046 0.356324
C37   C     C_R   0.008104 0.842655 0.940206 -0.036629
C38   C     C_R   0.988920 0.159303 0.059057 -0.039122
C39   C     C_R   0.476805 0.340647 0.058768 -0.035966
C40   C     C_R   0.520433 0.653149 0.939671 -0.033001
C41   C     C_R   0.028346 0.723865 0.946515 -0.038717
C42   C     C_R   0.968221 0.278106 0.052818 -0.038902
C43   C     C_R   0.501196 0.221774 0.053542 -0.039297
C44   C     C_R   0.496171 0.771972 0.944928 -0.040275
C45   C     C_R   0.028180 0.683299 0.982542 -0.114102
C46   C     C_R   0.966981 0.318717 0.016778 -0.114533
C47   C     C_R   0.520186 0.179817 0.017904 -0.114291
C48   C     C_R   0.476603 0.813887 0.980552 -0.113908
C49   C     C_R   0.996543 0.881961 0.903948 -0.010691
C50   C     C_R   0.001897 0.119893 0.095284 -0.015601
C51   C     C_R   0.446271 0.381230 0.094196 -0.016656
C52   C     C_R   0.551302 0.612719 0.904241 -0.013426
C53   C     C_R   0.044482 0.465021 0.786100 -0.056519
C54   C     C_R   0.956215 0.535419 0.213728 -0.057298
C55   C     C_R   0.445101 0.965043 0.213884 -0.049041
C56   C     C_R   0.555241 0.033202 0.785583 -0.047808
H1    H     H_    0.945501 0.333246 0.822129 0.118588
H2    H     H_    0.049911 0.668724 0.177662 0.119391
H3    H     H_    0.397071 0.827873 0.174902 0.115385
H4    H     H_    0.597640 0.169033 0.825237 0.114533
H5    H     H_    0.927440 0.457118 0.875427 0.152808
H6    H     H_    0.069474 0.545612 0.124129 0.152580
H7    H     H_    0.387225 0.950857 0.121468 0.159979
H8    H     H_    0.609797 0.043793 0.877978 0.160477
H9    H     H_    0.040167 0.592147 0.988291 0.154326
H10   H     H_    0.954237 0.409860 0.011060 0.153884
H11   H     H_    0.535883 0.088459 0.012834 0.154311
H12   H     H_    0.461034 0.905244 0.985638 0.154765
C57   C     C_R   0.005395 0.959559 0.036374 0.049940
C58   C     C_R   0.991333 0.042469 0.962857 0.048474
C59   C     C_R   0.523540 0.454113 0.963054 0.058475
C60   C     C_R   0.472372 0.539609 0.035326 0.057868
C61   C     C_R   0.989089 0.121993 0.992652 0.012282
C62   C     C_R   0.007019 0.880061 0.006592 0.011277
C63   C     C_R   0.486561 0.618074 0.005584 0.011387
C64   C     C_R   0.509496 0.375623 0.992811 0.012301
C65   C     C_R   0.994885 0.079954 0.029216 0.072828
C66   C     C_R   0.001656 0.922070 0.970025 0.072557
C67   C     C_R   0.510719 0.574776 0.969601 0.082330
C68   C     C_R   0.485689 0.418950 0.028802 0.080281
C69   C     C_R   0.015029 0.923110 0.073395 -0.142850
C70   C     C_R   0.982764 0.078849 0.925823 -0.147906
C71   C     C_R   0.550775 0.416458 0.926675 -0.141478
C72   C     C_R   0.444678 0.577337 0.071677 -0.137790
C73   C     C_R   0.013541 0.001676 0.102088 -0.109507
C74   C     C_R   0.985078 0.000207 0.897129 -0.109538
C75   C     C_R   0.564438 0.494175 0.898035 -0.125344
C76   C     C_R   0.431883 0.499729 0.100346 -0.121522
O25   O     O_2   0.057407 0.159647 0.157976 -0.543711
O26   O     O_2   0.946625 0.841875 0.841074 -0.545048
O27   O     O_2   0.642133 0.649838 0.844132 -0.545630
O28   O     O_2   0.357822 0.344373 0.154472 -0.544150
C77   C     C_R   0.014488 0.759199 0.011928 -0.163602
C78   C     C_R   0.980559 0.242875 0.987348 -0.162142
C79   C     C_R   0.520096 0.254549 0.988082 -0.157969
C80   C     C_R   0.476144 0.739129 0.010341 -0.158107
H13   H     H_    0.835874 0.270065 0.184882 0.132157
H14   H     H_    0.170187 0.730064 0.814729 0.132713
H15   H     H_    0.464025 0.760535 0.807592 0.135231
H16   H     H_    0.544756 0.235233 0.190183 0.132870
H17   H     H_    0.019863 0.968729 0.129898 0.151214
H18   H     H_    0.979624 0.033114 0.869313 0.151569
H19   H     H_    0.582884 0.460300 0.870660 0.146190
H20   H     H_    0.413457 0.533683 0.127709 0.146157
H21   H     H_    0.025360 0.834188 0.081460 0.106138
H22   H     H_    0.973113 0.167794 0.917758 0.107135
H23   H     H_    0.563183 0.327215 0.919130 0.105619
H24   H     H_    0.431366 0.666554 0.079194 0.105131
H25   H     H_    0.014159 0.719472 0.038558 0.138805
H26   H     H_    0.979622 0.282613 0.960709 0.138527
H27   H     H_    0.533793 0.213870 0.961757 0.137122
H28   H     H_    0.462355 0.779818 0.036660 0.137470
C81   C     C_R   0.976277 0.528485 0.381163 -0.063343
C82   C     C_R   0.020141 0.471727 0.619063 -0.060679
C83   C     C_R   0.527008 0.028804 0.618943 -0.055964
C84   C     C_R   0.473136 0.971127 0.381155 -0.067459
C85   C     C_R   0.987755 0.332268 0.405067 0.041423
C86   C     C_R   0.974567 0.666598 0.595344 0.049615
C87   C     C_R   0.477982 0.835468 0.595231 0.049101
C88   C     C_R   0.504075 0.165820 0.405275 0.057972
C89   C     C_R   0.979024 0.409756 0.375380 -0.147825
C90   C     C_R   0.987750 0.588895 0.624936 -0.138467
C91   C     C_R   0.490569 0.913009 0.624762 -0.141013
C92   C     C_R   0.484194 0.089534 0.375467 -0.147386
C93   C     C_R   0.982058 0.571381 0.417053 -0.227979
C94   C     C_R   0.031752 0.430146 0.583201 -0.224883
C95   C     C_R   0.545812 0.069276 0.583167 -0.221921
C96   C     C_R   0.477972 0.927834 0.416988 -0.232575
C97   C     C_R   0.984853 0.497011 0.447991 0.084425
C98   C     C_R   0.003288 0.503680 0.552318 0.080104
C99   C     C_R   0.522822 0.995645 0.552231 0.074773
C100  C     C_R   0.495720 0.001597 0.447952 0.090293
C101  C     C_R   0.990333 0.375988 0.441633 0.085429
C102  C     C_R   0.976292 0.623605 0.558764 0.071973
C103  C     C_R   0.484687 0.877648 0.558710 0.065518
C104  C     C_R   0.518848 0.121155 0.441572 0.089149
C105  C     C_R   0.980485 0.539363 0.485046 0.068418
C106  C     C_R   0.998482 0.461265 0.515288 0.076644
C107  C     C_R   0.529416 0.036534 0.515124 0.072345
C108  C     C_R   0.492571 0.960153 0.485022 0.067157
C109  C     C_R   0.000708 0.342729 0.507600 -0.201224
C110  C     C_R   0.948279 0.656621 0.492830 -0.209811
C111  C     C_R   0.445777 0.845886 0.492940 -0.208132
C112  C     C_R   0.569780 0.151775 0.507106 -0.200535
C113  C     C_R   0.992413 0.301720 0.471975 -0.169932
C114  C     C_R   0.941922 0.696817 0.528589 -0.153069
C115  C     C_R   0.441929 0.806059 0.528682 -0.142962
C116  C     C_R   0.561469 0.192984 0.471485 -0.171698
H29   H     H_    0.981506 0.209921 0.469143 0.174878
H30   H     H_    0.903469 0.786356 0.531946 0.170003
H31   H     H_    0.395522 0.718950 0.532277 0.170154
H32   H     H_    0.595968 0.282182 0.467842 0.165816
H33   H     H_    0.063064 0.339566 0.580493 0.102957
H34   H     H_    0.985726 0.663618 0.419808 0.102281
H35   H     H_    0.472980 0.835625 0.419667 0.103236
H36   H     H_    0.571373 0.159853 0.580617 0.100789
H37   H     H_    0.981835 0.620367 0.652889 0.125520
H38   H     H_    0.975383 0.377475 0.347457 0.124064
H39   H     H_    0.475685 0.122416 0.347652 0.119865
H40   H     H_    0.478733 0.882460 0.652648 0.121473
H41   H     H_    0.999092 0.277949 0.528659 0.126061
H42   H     H_    0.917752 0.719744 0.471765 0.129813
H43   H     H_    0.403790 0.785184 0.472015 0.129525
H44   H     H_    0.608556 0.213814 0.527797 0.128138
C117  C     C_2   0.991098 0.206662 0.396573 0.699062
O29   O     O_2   0.897031 0.170525 0.370617 -0.570894
O30   O     O_R   0.102243 0.129247 0.417468 -0.674441
H45   H     H_    0.087487 0.046674 0.409015 0.298685
C118  C     C_2   0.964330 0.791809 0.603926 0.723697
O31   O     O_2   0.880099 0.824981 0.630717 -0.591851
O32   O     O_R   0.056815 0.871714 0.582580 -0.679019
H46   H     H_    0.040278 0.953569 0.591735 0.298239
C119  C     C_2   0.460206 0.711146 0.603724 0.716475
O33   O     O_2   0.369051 0.681929 0.629826 -0.591302
O34   O     O_R   0.552098 0.627363 0.582912 -0.678065
H47   H     H_    0.529998 0.546367 0.591915 0.298859
C120  C     C_2   0.499829 0.291654 0.397647 0.708152
O35   O     O_2   0.575025 0.328468 0.370559 -0.572828
O36   O     O_R   0.406464 0.368276 0.420768 -0.669446
H48   H     H_    0.413573 0.451152 0.412356 0.297539
C121  C     C_3   0.909560 0.360162 0.253899 -0.388284
C122  C     C_3   0.916059 0.227031 0.252668 -0.339340
C123  C     C_3   0.922510 0.172948 0.290588 -0.691877
H49   H     H_    0.053408 0.194755 0.305938 0.231079
H50   H     H_    0.800230 0.203635 0.306194 0.264822
H51   H     H_    0.916917 0.077840 0.288063 0.220080
H52   H     H_    0.790585 0.194297 0.237970 0.201399
H53   H     H_    0.038452 0.194823 0.237314 0.234669
H54   H     H_    0.034747 0.388407 0.270324 0.173440
H55   H     H_    0.785692 0.392471 0.268732 0.176189
C124  C     C_3   0.101661 0.638049 0.745719 -0.384892
C125  C     C_3   0.097948 0.771080 0.746422 -0.332898
C126  C     C_3   0.086097 0.823669 0.708249 -0.715112
H56   H     H_    0.194966 0.786332 0.690385 0.249934
H57   H     H_    0.945733 0.808187 0.695880 0.260068
H58   H     H_    0.104836 0.918160 0.710121 0.217275
H59   H     H_    0.978101 0.804953 0.762237 0.232187
H60   H     H_    0.225072 0.802903 0.760574 0.202732
H61   H     H_    0.226762 0.604187 0.731606 0.177180
H62   H     H_    0.978041 0.610124 0.728803 0.170724
C127  C     C_3   0.567595 0.859108 0.742848 -0.390554
C128  C     C_3   0.594863 0.726343 0.742797 -0.305870
C129  C     C_3   0.600117 0.675211 0.704301 -0.729203
H63   H     H_    0.454247 0.664459 0.693617 0.256894
H64   H     H_    0.674552 0.730272 0.685031 0.248848
H65   H     H_    0.668331 0.588492 0.705229 0.210828
H66   H     H_    0.724409 0.701714 0.758695 0.229867
H67   H     H_    0.480321 0.682551 0.756460 0.200087
H68   H     H_    0.448029 0.885481 0.724278 0.173347
H69   H     H_    0.695810 0.896011 0.731073 0.182416
C130  C     C_3   0.440241 0.141850 0.255565 -0.393400
C131  C     C_3   0.417490 0.274909 0.254523 -0.310358
C132  C     C_3   0.409906 0.329087 0.292491 -0.720422
H70   H     H_    0.317540 0.282041 0.310835 0.224486
H71   H     H_    0.553561 0.329559 0.305005 0.260831
H72   H     H_    0.359283 0.419838 0.290170 0.216055
H73   H     H_    0.535788 0.315737 0.241110 0.200626
H74   H     H_    0.290258 0.300379 0.237961 0.233158
H75   H     H_    0.311180 0.107426 0.267746 0.178903
H76   H     H_    0.559186 0.115042 0.274163 0.173467

loop_
_geom_bond_atom_site_label_1
_geom_bond_atom_site_label_2
_ccdc_geom_bond_type
C26   C30   A    
C22   C121  S    
C103  C115  A    
C88   C120  S    
C94   H33   S    
O1    C5    A    
C50   C73   A    
C96   C100  A    
O13   V1    S    
C105  C106  A    
C69   C73   A    
O3    C7    A    
C124  C125  S    
C10   N2    A    
C107  C108  A    
C73   H17   S    
C125  C126  S    
C16   O27   S    
C28   C56   A    
C119  O33   D    
C7    C81   S    
C62   C77   A    
C11   C43   A    
C18   C22   A    
C64   C68   A    
C25   H1    S    
C61   C78   A    
C32   C36   A    
C47   H11   S    
O20   V1    S    
C18   H13   S    
O9    C4    A    
C2    C55   S    
C125  H60   S    
C122  H52   S    
C123  H50   S    
N2    C14   A    
O4    C8    A    
O11   C2    A    
C87   C103  A    
C24   C56   A    
C57   C65   A    
C130  C131  S    
C86   C102  A    
C31   H7    S    
C126  H58   S    
C101  C113  A    
C131  C132  S    
C58   C61   A    
C59   C67   A    
C84   C96   A    
C117  O30   S    
C113  H29   S    
C85   C89   A    
C61   C65   A    
C12   C44   A    
C120  O36   S    
C14   C50   A    
C79   H27   S    
C121  H54   S    
C64   C79   A    
C88   C92   A    
C77   H25   S    
C98   C106  A    
C38   C42   A    
C129  H63   S    
C14   O25   S    
C45   H9    S    
C59   C64   A    
O14   V2    S    
C15   C51   A    
C83   C91   A    
C127  C128  S    
C110  C114  A    
C115  H31   S    
O4    V1    S    
C20   C36   A    
C108  C111  A    
O9    V1    S    
C97   C105  A    
O17   V4    S    
O7    C3    A    
C40   C67   A    
O15   V3    S    
O30   H45   S    
O8    C4    A    
C60   C72   A    
C132  H70   S    
O12   V4    S    
O19   V2    S    
C21   C53   A    
C129  H64   S    
C118  O32   S    
O16   V4    S    
C38   C50   A    
C26   C54   A    
C111  H43   S    
C88   C104  A    
C95   H36   S    
C124  H61   S    
C126  H56   S    
C39   C51   A    
C89   H38   S    
C28   H4    S    
O17   V1    S    
C48   H12   S    
C31   C35   A    
O7    V3    S    
C131  H73   S    
C30   C34   A    
C107  C112  A    
O19   V3    S    
O34   H47   S    
O8    V4    S    
O16   C8    A    
C125  H59   S    
C12   O24   S    
C130  H75   S    
C93   H34   S    
C32   H8    S    
C123  H51   S    
C29   H5    S    
C60   C68   A    
C98   C102  A    
C122  C123  S    
C128  H67   S    
C99   C107  A    
C48   C80   A    
C19   C23   A    
C121  C122  S    
C49   C74   A    
C78   H26   S    
O1    V4    S    
O13   C5    A    
C16   C52   A    
O2    V3    S    
C76   H20   S    
C51   C76   A    
O3    V2    S    
C11   O23   S    
C123  H49   S    
C30   H6    S    
C46   H10   S    
C59   C71   A    
C58   C70   A    
C38   C65   A    
C104  C116  A    
O6    C2    A    
C18   C34   A    
C121  H55   S    
O10   V2    S    
C112  C116  A    
O36   H48   S    
C82   C90   A    
O20   V4    S    
C99   C103  A    
C105  C110  A    
C39   C68   A    
C81   C93   A    
C120  O35   D    
C23   C130  S    
C85   C101  A    
C40   C44   A    
C27   H3    S    
C112  H44   S    
C37   C41   A    
C80   H28   S    
C40   C52   A    
C17   C33   A    
C26   H2    S    
C3    C54   S    
C102  C114  A    
C100  C104  A    
C127  H68   S    
O6    V2    S    
C37   C66   A    
C10   C42   A    
C110  H42   S    
O32   H46   S    
C71   C75   A    
C132  H71   S    
C109  H41   S    
C4    C53   S    
C129  H65   S    
C95   C99   A    
C24   C127  S    
N4    C36   S    
C21   C124  S    
C128  C129  S    
C46   C78   A    
O5    V1    S    
C93   C97   A    
C45   C77   A    
C124  H62   S    
O15   C7    A    
C22   C54   A    
C83   C95   A    
C62   C66   A    
C9    C41   A    
C57   C62   A    
C100  C108  A    
C47   C79   A    
C70   C74   A    
N1    C13   A    
C130  H76   S    
C87   C119  S    
O10   C3    A    
C10   O22   S    
C20   H15   S    
C63   C67   A    
C90   H37   S    
C12   N4    A    
C13   C49   A    
C44   C48   A    
C6    C84   S    
C74   H18   S    
C57   C69   A    
C63   C80   A    
N1    C33   S    
C19   H16   S    
C25   C29   A    
C82   C94   A    
C13   O26   S    
C114  H30   S    
C17   H14   S    
C111  C115  A    
C27   C31   A    
C87   C91   A    
C96   H35   S    
C118  O31   D    
C28   C32   A    
C9    N1    A    
O14   C6    A    
C11   N3    A    
C81   C89   A    
N4    C16   A    
C122  H53   S    
O2    C6    A    
C58   C66   A    
C39   C43   A    
C15   O28   S    
C19   C35   A    
N3    C15   A    
C52   C75   A    
C17   C21   A    
O5    C1    A    
C1    C56   S    
C42   C46   A    
C126  H57   S    
C25   C53   A    
C9    O21   S    
C69   H21   S    
C128  H66   S    
C70   H22   S    
C29   C33   A    
C23   C55   A    
C117  O29   D    
C72   C76   A    
C27   C55   A    
C75   H19   S    
C37   C49   A    
C91   H40   S    
C94   C98   A    
C131  H74   S    
O11   V3    S    
C92   H39   S    
C20   C24   A    
C127  H69   S    
O18   V3    S    
O12   C1    A    
N3    C35   S    
C86   C90   A    
C132  H72   S    
N2    C34   S    
C41   C45   A    
C5    C83   S    
C8    C82   S    
C84   C92   A    
C86   C118  S    
C109  C113  A    
C71   H23   S    
C119  O34   S    
C43   C47   A    
C106  C109  A    
C60   C63   A    
C97   C101  A    
C116  H32   S    
C85   C117  S    
C72   H24   S    
O18   V2    S    
