data_mof_unit_12515.cif
_audit_creation_date              2012-12-10T17:17:23-0500
_audit_creation_method            fapswitch 2.2
_symmetry_space_group_name_H-M    P1
_symmetry_Int_Tables_number       1
_space_group_crystal_system       triclinic
_cell_length_a                    10.288853
_cell_length_b                    10.741743
_cell_length_c                    12.234764
_cell_angle_alpha                 91.008918
_cell_angle_beta                  109.096573
_cell_angle_gamma                 96.104495
_cell_volume                      1268.5530786

loop_
_atom_site_label
_atom_site_type_symbol
_atom_type_description
_atom_site_fract_x
_atom_site_fract_y
_atom_site_fract_z
_atom_type_partial_charge
C1    C     C_R   0.053468 0.732826 0.495548 0.902344
C2    C     C_R   0.202091 0.507120 0.840773 -0.186816
C3    C     C_2   0.091536 0.866881 0.503265 0.053299
C4    C     C_R   0.132602 0.507629 0.714742 0.889335
C5    C     C_2   0.025245 0.938239 0.554083 -0.218053
C6    C     C_2   0.930890 0.135694 0.531964 -0.320068
C7    C     C_2   0.040276 0.072344 0.551431 -0.193149
C8    C     C_2   0.435029 0.508145 0.513202 0.356131
C9    C     C_2   0.571995 0.476896 0.504354 0.294039
C10   C     C_R   0.950552 0.267550 0.511390 0.928894
C11   C     C_R   0.865854 0.486891 0.285386 0.915536
C12   C     C_R   0.416574 0.483155 0.994851 0.039536
C13   C     C_R   0.728550 0.342985 0.980274 -0.262067
C14   C     C_R   0.786964 0.463320 0.162011 -0.141350
C15   C     C_R   0.159605 0.580365 0.917755 0.130504
C16   C     C_R   0.241264 0.595336 0.034991 0.435008
C17   C     C_R   0.368858 0.549231 0.072439 -0.258441
C18   C     C_3   0.134716 0.930305 0.328880 -0.662889
C19   C     C_3   0.247249 0.261138 0.331101 -0.511763
C20   C     C_3   0.428246 0.166008 0.677120 -0.763957
C21   C     C_3   0.914171 0.581574 0.882357 -0.614608
C22   C     C_R   0.323867 0.447291 0.883409 0.009501
C23   C     C_R   0.553707 0.452244 0.024251 0.097638
C24   C     C_R   0.591568 0.372673 0.948630 0.030551
C25   C     C_R   0.492051 0.322453 0.844206 0.215483
C26   C     C_R   0.357456 0.356213 0.815481 -0.153540
C27   C     C_R   0.655903 0.502964 0.125611 -0.271859
C28   C     C_R   0.825827 0.386900 0.086245 0.386204
Cl1   Cl    Cl    0.993438 0.344069 0.116897 -0.635237
Cl2   Cl    Cl    0.580302 0.325986 0.450636 -0.648446
Cl3   Cl    Cl    0.443670 0.624274 0.619766 -0.625277
Cl4   Cl    Cl    0.190341 0.678261 0.136645 -0.642534
H1    H     H_    0.947552 0.896547 0.589444 0.183456
H2    H     H_    0.061231 0.002058 0.310408 0.227384
H3    H     H_    0.080086 0.839443 0.283809 0.272435
H4    H     H_    0.220118 0.960259 0.294851 0.258009
H5    H     H_    0.367870 0.424228 0.307143 0.239761
H6    H     H_    0.249338 0.223647 0.246612 0.236888
H7    H     H_    0.139302 0.245525 0.331093 0.262119
H8    H     H_    0.313079 0.208582 0.401011 0.208788
H9    H     H_    0.610217 0.289061 0.740043 0.245080
H10   H     H_    0.479733 0.101566 0.637287 0.264184
H11   H     H_    0.368493 0.223999 0.608648 0.235136
H12   H     H_    0.829790 0.090441 0.528297 0.185410
H13   H     H_    0.358721 0.108500 0.714587 0.243291
H14   H     H_    0.058184 0.738703 0.906715 0.253095
H15   H     H_    0.916432 0.582632 0.973604 0.265183
H16   H     H_    0.898077 0.483119 0.846710 0.243329
H17   H     H_    0.825545 0.629822 0.830946 0.228061
H18   H     H_    0.678857 0.641195 0.575908 0.183035
H19   H     H_    0.760834 0.282708 0.924645 0.187108
H20   H     H_    0.635079 0.572733 0.180084 0.172604
H21   H     H_    0.427626 0.565111 0.163316 0.169987
H22   H     H_    0.278844 0.313000 0.738476 0.160320
H23   H     H_    0.140335 0.119070 0.555990 0.179777
H24   H     H_    0.258093 0.993112 0.496285 0.228677
N1    N     N_2   0.313640 0.446500 0.454900 -0.039164
N2    N     N_2   0.686360 0.553430 0.545150 -0.203437
N3    N     N_2   0.190999 0.916947 0.452292 -0.285537
N4    N     N_2   0.296525 0.393556 0.346492 -0.187552
N5    N     N_2   0.532222 0.245669 0.766687 -0.298091
N6    N     N_2   0.041612 0.646485 0.875575 -0.294041
O1    O     O_R   0.936910 0.692950 0.509080 -0.645004
O2    O     O_R   0.138320 0.658600 0.480130 -0.526966
O3    O     O_R   0.002900 0.525670 0.675280 -0.592926
O4    O     O_R   0.204310 0.491320 0.646330 -0.572229
O5    O     O_R   0.861680 0.341400 0.519870 -0.534924
O6    O     O_R   0.063090 0.307050 0.490920 -0.647678
O7    O     O_R   0.795690 0.508680 0.353670 -0.591101
O8    O     O_R   0.997100 0.474330 0.324720 -0.531967
Zn1   Zn    Zn3+2 0.865520 0.522940 0.519330 0.994152
Zn2   Zn    Zn3+2 0.134480 0.477060 0.480670 1.049397

loop_
_geom_bond_atom_site_label_1
_geom_bond_atom_site_label_2
_ccdc_geom_bond_type
C12   C17   A    
C6    C10   S    
C26   H22   S    
C20   H10   S    
C23   C24   A    
C11   O7    A    
C13   C28   A    
C2    C22   A    
C6    C7    D    
C19   H6    S    
C10   O6    A    
C14   C27   A    
C16   Cl4   S    
C18   H3    S    
C2    C4    S    
C20   H13   S    
H24   N3    S    
C7    H23   S    
O6    Zn2   S    
C21   H16   S    
C14   C28   A    
C3    C5    D    
C21   H17   S    
C11   O8    A    
C25   N5    S    
C10   O5    A    
C24   C25   A    
C4    O4    A    
C2    C15   A    
C18   H2    S    
C12   C23   A    
C21   N6    S    
C19   H7    S    
C9    Cl2   S    
H14   N6    S    
C1    O1    A    
C28   Cl1   S    
C15   N6    S    
O1    Zn1   S    
O5    Zn1   S    
C23   C27   A    
O2    Zn2   S    
N1    Zn2   S    
C4    O3    A    
C8    N1    D    
C11   C14   S    
N2    Zn1   S    
H5    N4    S    
C19   H8    S    
C15   C16   A    
H18   N2    S    
C1    O2    A    
C17   H21   S    
C18   N3    S    
N1    N4    S    
C20   H11   S    
C12   C22   A    
C27   H20   S    
C6    H12   S    
C5    C7    S    
C9    N2    D    
C22   C26   A    
C20   N5    S    
O7    Zn1   S    
C3    N3    S    
C16   C17   A    
C19   N4    S    
O8    Zn2   S    
C21   H15   S    
C25   C26   A    
C13   H19   S    
C8    Cl3   S    
C18   H4    S    
O4    Zn2   S    
H9    N5    S    
C13   C24   A    
O3    Zn1   S    
C8    C9    S    
C1    C3    S    
C5    H1    S    
