data_mof_unit_65497.cif
_audit_creation_date              2012-12-10T18:39:29-0500
_audit_creation_method            fapswitch 2.2
_symmetry_space_group_name_H-M    P1
_symmetry_Int_Tables_number       1
_space_group_crystal_system       triclinic
_cell_length_a                    15.800316
_cell_length_b                    11.5727
_cell_length_c                    10.787903
_cell_angle_alpha                 89.999983
_cell_angle_beta                  90.05136
_cell_angle_gamma                 89.999947
_cell_volume                      1972.59226631

loop_
_atom_site_label
_atom_site_type_symbol
_atom_type_description
_atom_site_fract_x
_atom_site_fract_y
_atom_site_fract_z
_atom_type_partial_charge
C1    C     C_R   0.500000 0.281187 0.500000 0.916916
C2    C     C_R   0.337853 0.500020 0.499936 0.898500
C3    C     C_R   0.662147 0.500020 0.500064 0.898500
C4    C     C_1   0.500000 0.059159 0.500000 0.063199
C5    C     C_1   0.500000 0.161056 0.500000 -0.121113
C6    C     C_1   0.500000 0.500011 0.069786 0.101874
C7    C     C_1   0.500000 0.500011 0.930214 0.101874
C8    C     C_R   0.500000 0.718813 0.500000 0.917094
C9    C     C_3   0.049543 0.435881 0.613635 0.196585
C10   C     C_3   0.047847 0.451673 0.375768 0.199918
C11   C     C_3   0.952153 0.451699 0.624243 0.199914
C12   C     C_1   0.750617 0.501634 0.500307 -0.057712
C13   C     C_3   0.950456 0.435862 0.386380 0.196583
C14   C     C_1   0.500000 0.940839 0.500000 0.063628
C15   C     C_1   0.500000 0.838943 0.500000 -0.120189
C16   C     C_1   0.249383 0.501632 0.499693 -0.057713
C17   C     C_3   0.082902 0.505481 0.498787 -0.284512
C18   C     C_3   0.917098 0.505484 0.501213 -0.284509
C19   C     C_3   0.949739 0.634456 0.492749 0.473594
C20   C     C_3   0.050262 0.634456 0.507222 0.473594
C21   C     C_1   0.825602 0.503396 0.500796 0.220784
C22   C     C_1   0.174398 0.503393 0.499203 0.220778
Cl1   Cl    Cl    0.085148 0.697638 0.651891 -0.434515
Cl2   Cl    Cl    0.101652 0.723949 0.392249 -0.393523
Cl3   Cl    Cl    0.898350 0.723972 0.607703 -0.393515
Cl4   Cl    Cl    0.914853 0.697611 0.348066 -0.434522
Cl5   Cl    Cl    0.896439 0.325341 0.678390 -0.361545
Cl6   Cl    Cl    0.916776 0.287119 0.387180 -0.310568
Cl7   Cl    Cl    0.083220 0.287136 0.612865 -0.310568
Cl8   Cl    Cl    0.103559 0.325302 0.321652 -0.361534
H1    H     H_    0.059123 0.514538 0.299677 0.157799
H2    H     H_    0.078567 0.470880 0.699735 0.156204
H3    H     H_    0.921433 0.470847 0.300272 0.156205
H4    H     H_    0.940880 0.514579 0.700320 0.157801
N1    N     N_1   0.500000 0.500010 0.180630 -0.065461
N2    N     N_1   0.500000 0.500010 0.819370 -0.065461
O1    O     O_R   0.500000 0.334450 0.602530 -0.603325
O2    O     O_R   0.500000 0.334450 0.397470 -0.603325
O3    O     O_R   0.377140 0.500000 0.602580 -0.603595
O4    O     O_R   0.377140 0.500000 0.397420 -0.597073
O5    O     O_R   0.622860 0.500000 0.602580 -0.597072
O6    O     O_R   0.622860 0.500000 0.397420 -0.603594
O7    O     O_R   0.500000 0.665550 0.602530 -0.603328
O8    O     O_R   0.500000 0.665550 0.397470 -0.603327
Zn1   Zn    Zn3+2 0.500000 0.500000 0.636920 1.050128
Zn2   Zn    Zn3+2 0.500000 0.500000 0.363080 1.050128

loop_
_geom_bond_atom_site_label_1
_geom_bond_atom_site_label_2
_ccdc_geom_bond_type
C20   Cl1   S    
C13   Cl6   S    
C13   H3    S    
C6    C7    S    
C11   C18   S    
C9    Cl7   S    
C18   C21   S    
C9    C11   S    
C7    N2    T    
C10   Cl8   S    
C17   C22   S    
C8    O7    A    
C11   Cl5   S    
O3    Zn1   S    
C2    O4    A    
N2    Zn1   S    
C3    O6    A    
O4    Zn2   S    
O7    Zn1   S    
C1    O2    A    
C1    C5    S    
C13   C18   S    
C9    C17   S    
O8    Zn2   S    
C8    C15   S    
C4    C14   S    
C19   Cl3   S    
O2    Zn2   S    
C2    O3    A    
C10   C17   S    
O1    Zn1   S    
C12   C21   T    
C8    O8    A    
C4    C5    T    
C17   C20   S    
C2    C16   S    
C6    N1    T    
C18   C19   S    
O6    Zn2   S    
C19   Cl4   S    
O5    Zn1   S    
C14   C15   T    
C3    O5    A    
C16   C22   T    
C3    C12   S    
C9    H2    S    
N1    Zn2   S    
C10   H1    S    
C20   Cl2   S    
C11   H4    S    
C19   C20   S    
C1    O1    A    
C10   C13   S    
