data_mof_unit_51850.cif
_audit_creation_date              2012-12-11T14:21:03-0500
_audit_creation_method            fapswitch 2.2
_symmetry_space_group_name_H-M    P1
_symmetry_Int_Tables_number       1
_space_group_crystal_system       triclinic
_cell_length_a                    22.030102
_cell_length_b                    7.239856
_cell_length_c                    15.115412
_cell_angle_alpha                 89.883634
_cell_angle_beta                  107.7318
_cell_angle_gamma                 90.329757
_cell_volume                      2296.25873061

loop_
_atom_site_label
_atom_site_type_symbol
_atom_type_description
_atom_site_fract_x
_atom_site_fract_y
_atom_site_fract_z
_atom_type_partial_charge
O1    O     O_R   0.584770 0.505770 0.002090 -0.536593
O2    O     O_R   0.415230 0.005770 0.997910 -0.513988
O3    O     O_R   0.467060 0.173340 0.861950 -0.539207
O4    O     O_R   0.532940 0.673340 0.138050 -0.538585
C1    C     C_R   0.454367 0.344340 0.826678 0.709304
C2    C     C_R   0.545361 0.844383 0.173389 0.703633
O5    O     O_R   0.587510 0.175890 0.993210 -0.554050
O6    O     O_R   0.412490 0.675890 0.006790 -0.556243
O7    O     O_R   0.536540 0.008150 0.130100 -0.539398
O8    O     O_R   0.463460 0.508150 0.869900 -0.540746
C3    C     C_R   0.612680 0.346604 0.996457 0.627416
C4    C     C_R   0.387359 0.844848 0.002684 0.662919
O9    O     O_3   0.483140 0.340040 0.044760 -0.371331
O10   O     O_3   0.516860 0.840040 0.955240 -0.389493
V1    V     V_3+5 0.503130 0.064190 0.991700 1.405641
V2    V     V_3+5 0.496870 0.564190 0.008300 1.400181
C5    C     C_2   0.209314 0.727774 0.978453 0.464627
C6    C     C_2   0.791169 0.231528 0.024860 0.453130
C7    C     C_2   0.176904 0.884230 0.985387 -0.422106
C8    C     C_2   0.819961 0.378891 0.998156 -0.346584
C9    C     C_2   0.278515 0.723400 0.982997 -0.310722
C10   C     C_2   0.719802 0.224005 0.007914 -0.323513
C11   C     C_2   0.321046 0.864406 0.005399 0.198315
C12   C     C_2   0.680546 0.370760 0.997968 0.225665
H1    H     H_    0.295537 0.590222 0.967920 0.144318
H2    H     H_    0.698738 0.087969 0.006147 0.119333
C13   C     C_R   0.922223 0.890239 0.725386 -0.137676
C14   C     C_R   0.076456 0.389708 0.275058 -0.142034
C15   C     C_R   0.570634 0.851056 0.274411 -0.085659
C16   C     C_R   0.428572 0.351211 0.725738 -0.088651
C17   C     C_R   0.927719 0.925190 0.569191 -0.205061
C18   C     C_R   0.070425 0.426078 0.431039 -0.207712
C19   C     C_R   0.957456 0.932134 0.664655 0.433061
C20   C     C_R   0.040844 0.430769 0.335265 0.436165
C21   C     C_R   0.856285 0.855925 0.690156 -0.266691
C22   C     C_R   0.142168 0.355972 0.311034 -0.262931
C23   C     C_R   0.824655 0.857189 0.593148 0.107574
C24   C     C_R   0.173577 0.358384 0.408162 0.108160
C25   C     C_R   0.862831 0.882096 0.533483 0.006653
C26   C     C_R   0.135381 0.384371 0.467532 0.003650
C27   C     C_R   0.756892 0.836918 0.552711 -0.030275
C28   C     C_R   0.241274 0.338748 0.448786 -0.027371
C29   C     C_R   0.730227 0.834129 0.454225 -0.036463
C30   C     C_R   0.268171 0.337583 0.547139 -0.041096
C31   C     C_R   0.772525 0.815756 0.399948 0.388559
C32   C     C_R   0.225834 0.320342 0.601633 0.394766
C33   C     C_R   0.836793 0.855966 0.438457 -0.261591
C34   C     C_R   0.161576 0.360738 0.562936 -0.260063
C35   C     C_R   0.715120 0.815719 0.606618 -0.258853
C36   C     C_R   0.282695 0.316382 0.394799 -0.259853
C37   C     C_R   0.649034 0.798427 0.566395 0.398773
C38   C     C_R   0.348761 0.300436 0.434066 0.397489
C39   C     C_R   0.621277 0.813383 0.468690 -0.050685
C40   C     C_R   0.376872 0.315090 0.531637 -0.047829
C41   C     C_R   0.662651 0.840038 0.413059 -0.029329
C42   C     C_R   0.335939 0.343242 0.587746 -0.033839
C43   C     C_R   0.553714 0.804143 0.424619 0.418658
C44   C     C_R   0.444336 0.303038 0.575141 0.417887
C45   C     C_R   0.530428 0.814828 0.326918 -0.307122
C46   C     C_R   0.468089 0.312281 0.672716 -0.302389
C47   C     C_R   0.635373 0.874588 0.317230 -0.170806
C48   C     C_R   0.363907 0.377685 0.683482 -0.180530
H3    H     H_    0.663678 0.917730 0.273748 0.164500
H4    H     H_    0.336048 0.421068 0.727323 0.168670
H5    H     H_    0.480638 0.794119 0.289678 0.095682
H6    H     H_    0.517728 0.288245 0.709277 0.098083
O11   O     O_R   0.036450 0.233070 0.130130 -0.548381
O12   O     O_R   0.963550 0.733070 0.869870 -0.553314
O13   O     O_R   0.912470 0.560570 0.006790 -0.549579
O14   O     O_R   0.087530 0.060570 0.993210 -0.549619
C49   C     C_R   0.887769 0.390149 0.003804 0.723817
C50   C     C_R   0.111678 0.891051 0.993278 0.726310
O15   O     O_R   0.032920 0.562940 0.138050 -0.529290
O16   O     O_R   0.967080 0.062940 0.861950 -0.531237
O17   O     O_R   0.084790 0.730500 0.002090 -0.509943
O18   O     O_R   0.915210 0.230500 0.997910 -0.503643
C51   C     C_R   0.046516 0.395094 0.173988 0.719378
C52   C     C_R   0.953001 0.895148 0.826150 0.716134
O19   O     O_3   0.016820 0.396170 0.955260 -0.381084
O20   O     O_3   0.983180 0.896170 0.044740 -0.373278
V3    V     V_3+5 0.996880 0.672090 0.008300 1.471157
V4    V     V_3+5 0.003120 0.172090 0.991700 1.479246
O21   O     O_3   0.178182 0.558639 0.965090 -0.543243
C53   C     C_3   0.153739 0.523745 0.868454 0.093305
H7    H     H_    0.178058 0.602866 0.825174 0.095535
H8    H     H_    0.102347 0.558394 0.845134 0.129412
C54   C     C_3   0.160319 0.320292 0.849568 -0.659383
H9    H     H_    0.144355 0.294394 0.773605 0.202756
H10   H     H_    0.210854 0.277845 0.878790 0.249731
H11   H     H_    0.129946 0.237470 0.881034 0.226042
O22   O     O_3   0.828206 0.075979 0.058028 -0.551052
C55   C     C_3   0.814051 0.996037 0.134898 0.048525
H12   H     H_    0.767019 0.925089 0.113367 0.159838
H13   H     H_    0.814888 0.101564 0.188698 0.112018
C56   C     C_3   0.863681 0.849553 0.177395 -0.600217
H14   H     H_    0.852814 0.782215 0.236753 0.198621
H15   H     H_    0.863080 0.742099 0.124891 0.225597
H16   H     H_    0.911931 0.912639 0.202005 0.209783
O23   O     O_3   0.019877 0.992939 0.698435 -0.563281
C57   C     C_3   0.061953 0.843269 0.705048 0.067126
H17   H     H_    0.040695 0.705700 0.712011 0.094907
H18   H     H_    0.102766 0.864911 0.768719 0.124862
C58   C     C_3   0.087797 0.840763 0.622282 -0.745705
H19   H     H_    0.102585 0.982068 0.608535 0.238493
H20   H     H_    0.129561 0.747485 0.637267 0.185326
H21   H     H_    0.051009 0.788661 0.559477 0.210341
O24   O     O_3   0.978669 0.492157 0.301053 -0.566714
C59   C     C_3   0.936119 0.340081 0.282115 0.085351
H22   H     H_    0.955116 0.216848 0.255384 0.110858
H23   H     H_    0.892595 0.382555 0.226419 0.141676
C60   C     C_3   0.916697 0.288773 0.367700 -0.768614
H24   H     H_    0.903805 0.414824 0.399502 0.234615
H25   H     H_    0.875048 0.193805 0.347855 0.188592
H26   H     H_    0.956573 0.218359 0.419534 0.212147
H27   H     H_    0.831136 0.831673 0.740163 0.120003
H28   H     H_    0.167275 0.331810 0.261133 0.120717
O25   O     O_3   0.753611 0.741350 0.311568 -0.570902
C61   C     C_3   0.746758 0.548216 0.319292 0.067091
H29   H     H_    0.707091 0.514522 0.348039 0.135591
H30   H     H_    0.791554 0.485156 0.364324 0.125512
C62   C     C_3   0.731309 0.461760 0.223695 -0.669735
H31   H     H_    0.686276 0.520977 0.177963 0.239991
H32   H     H_    0.725369 0.310013 0.228662 0.156486
H33   H     H_    0.770524 0.489789 0.193498 0.233789
O26   O     O_3   0.244326 0.246704 0.690306 -0.566791
C63   C     C_3   0.255890 0.055683 0.684305 0.078655
H34   H     H_    0.300287 0.032785 0.665469 0.137776
H35   H     H_    0.215654 0.985090 0.632078 0.122226
C64   C     C_3   0.264302 0.966181 0.778039 -0.695433
H36   H     H_    0.276084 0.817767 0.775239 0.166985
H37   H     H_    0.219688 0.977468 0.797244 0.221024
H38   H     H_    0.303702 0.036359 0.831316 0.245713
H39   H     H_    0.732479 0.805809 0.681192 0.139837
H40   H     H_    0.264701 0.304210 0.320844 0.132966
O27   O     O_3   0.512639 0.766673 0.476925 -0.564388
C65   C     C_3   0.452661 0.854072 0.441570 0.099782
H41   H     H_    0.422210 0.785624 0.378122 0.083340
H42   H     H_    0.458794 0.999480 0.424185 0.227069
C66   C     C_3   0.416223 0.842777 0.512267 -0.685240
H43   H     H_    0.440145 0.926518 0.574232 0.229651
H44   H     H_    0.367168 0.896174 0.481212 0.188706
H45   H     H_    0.413147 0.697361 0.533710 0.201745
O28   O     O_3   0.484760 0.261646 0.522653 -0.563275
C67   C     C_3   0.544677 0.351873 0.555653 0.095695
H46   H     H_    0.575743 0.286880 0.619623 0.089856
H47   H     H_    0.538443 0.497855 0.571147 0.227520
C68   C     C_3   0.580073 0.338842 0.483772 -0.687031
H48   H     H_    0.555916 0.421781 0.421760 0.227653
H49   H     H_    0.629422 0.392456 0.513532 0.188111
H50   H     H_    0.582320 0.193099 0.462738 0.205485
H51   H     H_    0.197002 0.018161 0.982903 0.180649
H52   H     H_    0.793869 0.496654 0.965632 0.171065
O29   O     O_3   0.302037 0.041133 0.017429 -0.556234
C69   C     C_3   0.311077 0.070922 0.112529 0.094754
H53   H     H_    0.362399 0.060804 0.152817 0.121594
H54   H     H_    0.283870 0.968774 0.140998 0.118498
C70   C     C_3   0.286670 0.262827 0.123298 -0.683018
H55   H     H_    0.234494 0.270639 0.088802 0.236751
H56   H     H_    0.296463 0.294564 0.197455 0.184308
H57   H     H_    0.311046 0.367324 0.092165 0.225248
O30   O     O_3   0.705662 0.549023 0.004038 -0.564371
C71   C     C_3   0.673301 0.655291 0.924924 0.115501
H58   H     H_    0.640899 0.752413 0.944936 0.160970
H59   H     H_    0.645155 0.569669 0.864867 0.101856
C72   C     C_3   0.720325 0.771240 0.892003 -0.771494
H60   H     H_    0.740571 0.688174 0.846209 0.202849
H61   H     H_    0.695785 0.892142 0.851916 0.187429
H62   H     H_    0.759595 0.821982 0.951959 0.263928
H63   H     H_    0.867430 0.854186 0.394390 0.145813
H64   H     H_    0.131071 0.360719 0.607284 0.144800
O31   O     O_3   0.613654 0.745825 0.623762 -0.552766
C73   C     C_3   0.591720 0.903988 0.658421 0.111025
H65   H     H_    0.561841 0.987604 0.600419 0.186697
H66   H     H_    0.632061 0.989795 0.701126 0.089140
C74   C     C_3   0.549978 0.844768 0.717449 -0.686836
H67   H     H_    0.579330 0.787643 0.783978 0.192500
H68   H     H_    0.523836 0.964630 0.732726 0.181781
H69   H     H_    0.515232 0.737280 0.681202 0.232929
O32   O     O_3   0.383653 0.250207 0.375785 -0.555606
C75   C     C_3   0.406496 0.409991 0.342650 0.097448
H70   H     H_    0.438570 0.487399 0.401470 0.192093
H71   H     H_    0.366777 0.501366 0.303812 0.089509
C76   C     C_3   0.445373 0.354765 0.278935 -0.691135
H72   H     H_    0.475424 0.232775 0.307098 0.231799
H73   H     H_    0.413996 0.322714 0.208588 0.206954
H74   H     H_    0.476710 0.470135 0.271840 0.183636
H75   H     H_    0.955383 0.954750 0.522617 0.135247
H76   H     H_    0.042450 0.455702 0.477150 0.138844

loop_
_geom_bond_atom_site_label_1
_geom_bond_atom_site_label_2
_ccdc_geom_bond_type
O31   C73   S    
C63   H34   S    
C32   O26   S    
C56   H14   S    
O1    C3    A    
C53   C54   S    
C54   H9    S    
C13   C52   S    
O2    C4    A    
C2    O7    A    
O30   C71   S    
C56   H16   S    
O27   C65   S    
C74   H68   S    
C13   C19   A    
O5    C3    A    
C4    C11   S    
C72   H60   S    
O12   V3    S    
C10   C12   D    
C59   C60   S    
C65   H41   S    
C68   H49   S    
C53   H8    S    
C24   C28   A    
C76   H73   S    
C16   C48   A    
C49   O18   A    
C66   H45   S    
C43   C45   A    
C44   C46   A    
O28   C67   S    
C3    C12   S    
C59   H22   S    
C47   H3    S    
C27   C35   A    
O13   C49   A    
C61   H29   S    
C55   H12   S    
C62   H33   S    
C48   H4    S    
C68   H48   S    
C44   O28   S    
C70   H55   S    
C60   H25   S    
O21   C53   S    
C73   H66   S    
C35   C37   A    
C12   O30   S    
C16   C46   A    
C36   C38   A    
O24   C59   S    
C17   C19   A    
C8    C49   S    
C21   H27   S    
C60   H26   S    
C69   H54   S    
C75   C76   S    
C64   H38   S    
O5    V1    S    
C46   H6    S    
O6    V2    S    
C23   C27   A    
C27   C29   A    
C7    C50   S    
C72   H61   S    
C28   C30   A    
O16   V4    S    
C67   C68   S    
O15   V3    S    
C33   H63   S    
C38   C40   A    
C74   H69   S    
C15   C47   A    
C31   C33   A    
O12   C52   A    
C40   C42   A    
C18   H76   S    
C15   C45   A    
C68   H50   S    
C53   H7    S    
C69   C70   S    
C67   H47   S    
C36   H40   S    
C76   H74   S    
O18   V4    S    
O22   C55   S    
C39   C43   A    
O17   V3    S    
C30   C32   A    
C63   C64   S    
C13   C21   A    
C55   C56   S    
C5    C9    S    
C8    H52   S    
C37   C39   A    
C61   C62   S    
C18   C20   A    
O4    V2    S    
C76   H72   S    
C14   C51   S    
O11   C51   A    
C71   C72   S    
C30   C42   A    
C7    H51   S    
C74   H67   S    
O6    C4    A    
C55   H13   S    
C62   H31   S    
C58   H20   S    
O1    V2    S    
O2    V1    S    
C29   C31   A    
C69   H53   S    
C28   C36   A    
C34   H64   S    
C65   H42   S    
C72   H62   S    
C9    C11   D    
O16   C52   A    
O26   C63   S    
C42   C48   A    
O9    V2    S    
O4    C2    A    
C20   O24   S    
C39   C41   A    
C17   H75   S    
C22   C24   A    
C22   H28   S    
O3    V1    S    
C73   H65   S    
C25   C33   A    
C57   H18   S    
C40   C44   A    
C31   O25   S    
C26   C34   A    
C9    H1    S    
C56   H15   S    
C63   H35   S    
C75   H71   S    
C60   H24   S    
C21   C23   A    
C6    C10   S    
C1    C16   S    
O20   V3    S    
O3    C1    A    
O19   V4    S    
C66   H43   S    
C73   C74   S    
C29   C41   A    
C70   H57   S    
C71   H58   S    
O23   C57   S    
C67   H46   S    
C11   O29   S    
C64   H36   S    
C38   O32   S    
C5    O21   S    
C1    O8    A    
C23   C25   A    
C71   H59   S    
O8    V2    S    
O25   C61   S    
C65   C66   S    
C24   C26   A    
C66   H44   S    
C50   O17   A    
C41   C47   A    
C37   O31   S    
C57   H17   S    
C5    C7    D    
C59   H23   S    
C58   H21   S    
C6    C8    D    
C18   C26   A    
C57   C58   S    
O14   V4    S    
C61   H30   S    
C62   H32   S    
O13   V3    S    
C14   C20   A    
O32   C75   S    
C32   C34   A    
C6    O22   S    
C2    C15   S    
C14   C22   A    
O11   V4    S    
C70   H56   S    
C10   H2    S    
C54   H11   S    
C35   H39   S    
C58   H19   S    
C17   C25   A    
C54   H10   S    
O15   C51   A    
O10   V1    S    
C43   O27   S    
O14   C50   A    
C19   O23   S    
O29   C69   S    
C45   H5    S    
C75   H70   S    
O7    V1    S    
C64   H37   S    
