data_mof_unit_10095.cif
_audit_creation_date              2012-12-10T19:43:24-0500
_audit_creation_method            fapswitch 2.2
_symmetry_space_group_name_H-M    P1
_symmetry_Int_Tables_number       1
_space_group_crystal_system       triclinic
_cell_length_a                    10.856625
_cell_length_b                    10.873305
_cell_length_c                    9.570672
_cell_angle_alpha                 90.027456
_cell_angle_beta                  90.963205
_cell_angle_gamma                 91.951535
_cell_volume                      1128.97742992

loop_
_atom_site_label
_atom_site_type_symbol
_atom_type_description
_atom_site_fract_x
_atom_site_fract_y
_atom_site_fract_z
_atom_type_partial_charge
C1    C     C_R   0.507398 0.262503 0.501396 0.800605
C2    C     C_R   0.208844 0.730944 0.024589 -0.116405
C3    C     C_R   0.932875 0.544035 0.387494 -0.250995
C4    C     C_R   0.871571 0.494777 0.503302 -0.076185
C5    C     C_R   0.939924 0.447264 0.616847 -0.004155
C6    C     C_R   0.067656 0.452571 0.612421 -0.246377
C7    C     C_R   0.128692 0.503031 0.497283 -0.084128
C8    C     C_R   0.060656 0.549383 0.383281 -0.001437
C9    C     C_R   0.867976 0.450985 0.862810 -0.132006
C10   C     C_R   0.827361 0.389952 0.982986 -0.142729
C11   C     C_R   0.807133 0.262389 0.981287 -0.124576
C12   C     C_R   0.262513 0.502280 0.498827 0.793894
C13   C     C_R   0.827224 0.195804 0.859247 -0.163003
C14   C     C_R   0.863976 0.257089 0.737612 -0.160903
C15   C     C_R   0.884149 0.385227 0.738732 0.135499
C16   C     C_R   0.542829 0.116741 0.767791 -0.171703
C17   C     C_R   0.519207 0.054929 0.892252 -0.168678
C18   C     C_R   0.462932 0.938859 0.888802 -0.140626
C19   C     C_R   0.439986 0.880643 0.761007 -0.164051
C20   C     C_R   0.477187 0.936462 0.633791 0.098328
C21   C     C_R   0.511919 0.062468 0.636093 0.096231
C22   C     C_R   0.513634 0.128078 0.506924 -0.118928
C23   C     C_R   0.491344 0.737247 0.500772 0.776380
C24   C     C_R   0.506448 0.063328 0.380429 -0.221474
C25   C     C_R   0.496300 0.936374 0.379740 -0.228583
C26   C     C_R   0.482785 0.871389 0.505018 -0.117887
C27   C     C_R   0.658793 0.667566 0.146818 -0.179031
C28   C     C_R   0.734462 0.750790 0.075748 -0.228086
C29   C     C_R   0.734222 0.750708 0.931910 -0.208112
C30   C     C_R   0.658760 0.666940 0.858434 -0.142024
C31   C     C_R   0.577585 0.582598 0.926485 0.209295
C32   C     C_R   0.577557 0.582710 0.076203 0.210447
C33   C     C_R   0.425893 0.421742 0.072528 -0.051691
C34   C     C_R   0.737557 0.496403 0.501357 0.777916
C35   C     C_R   0.425951 0.421749 0.924458 -0.074532
C36   C     C_R   0.224935 0.784873 0.156548 -0.134520
C37   C     C_R   0.179796 0.724159 0.274726 -0.107962
C38   C     C_R   0.118135 0.609093 0.260897 0.132708
C39   C     C_R   0.104476 0.554454 0.128386 -0.153828
C40   C     C_R   0.150102 0.615240 0.010615 -0.137948
Cu1   Cu    Cu3+1 0.499990 0.499990 0.640660 0.923325
Cu2   Cu    Cu3+1 0.500010 0.500010 0.359340 0.934595
H1    H     H_    0.240413 0.779288 0.932902 0.116965
H2    H     H_    0.777042 0.215023 0.074784 0.127551
H3    H     H_    0.813076 0.096777 0.858505 0.139011
H4    H     H_    0.879790 0.204566 0.643803 0.123161
H5    H     H_    0.510017 0.110773 0.280982 0.157882
H6    H     H_    0.590254 0.204714 0.778428 0.191163
H7    H     H_    0.542435 0.098383 0.991506 0.131043
H8    H     H_    0.439714 0.892697 0.985397 0.133790
H9    H     H_    0.390583 0.793101 0.764074 0.158822
H10   H     H_    0.365090 0.357747 0.126772 0.135185
H11   H     H_    0.669608 0.673478 0.256844 0.203379
H12   H     H_    0.795094 0.814666 0.133074 0.154074
H13   H     H_    0.794775 0.814368 0.876561 0.147887
H14   H     H_    0.670330 0.670941 0.748801 0.202601
H15   H     H_    0.365286 0.357630 0.867812 0.140393
H16   H     H_    0.190614 0.767614 0.376271 0.102655
H17   H     H_    0.057890 0.465373 0.116554 0.131402
H18   H     H_    0.138624 0.573437 0.908395 0.133346
H19   H     H_    0.881219 0.581947 0.300681 0.152424
H20   H     H_    0.119722 0.414123 0.698773 0.153585
H21   H     H_    0.888890 0.548928 0.866796 0.134383
H22   H     H_    0.814051 0.441175 0.078201 0.142654
N1    N     N_R   0.501190 0.501210 0.147910 -0.195719
N2    N     N_R   0.501230 0.501290 0.852040 -0.201908
O1    O     O_R   0.499990 0.319640 0.618810 -0.591916
O2    O     O_R   0.500000 0.319660 0.381240 -0.583995
O3    O     O_R   0.319640 0.500000 0.618780 -0.591178
O4    O     O_R   0.319650 0.500020 0.381210 -0.565562
O5    O     O_R   0.500000 0.680340 0.618760 -0.612941
O6    O     O_R   0.500010 0.680360 0.381190 -0.594373
O7    O     O_R   0.680350 0.499980 0.618790 -0.593498
O8    O     O_R   0.680360 0.500000 0.381220 -0.606775
H23   H     H_    0.498652 0.889121 0.280171 0.167312
H24   H     H_    0.270535 0.874541 0.167035 0.120539

loop_
_geom_bond_atom_site_label_1
_geom_bond_atom_site_label_2
_ccdc_geom_bond_type
C31   N2    A    
C12   O3    A    
C16   C21   A    
C40   H18   S    
Cu1   Cu2   S    
C19   C20   A    
C16   H6    S    
C33   N1    A    
C7    C8    A    
Cu1   O1    S    
C33   H10   S    
C37   C38   A    
C36   C37   A    
C5    C6    A    
Cu2   O4    S    
C1    O2    A    
C18   C19   A    
C23   C26   S    
C36   H24   S    
C1    O1    A    
C16   C17   A    
Cu2   N1    S    
C9    C10   A    
C37   H16   S    
Cu1   O5    S    
C1    C22   S    
C21   C22   A    
Cu2   O2    S    
C8    C38   S    
C3    H19   S    
C7    C12   S    
C4    C34   S    
Cu2   O8    S    
C23   O5    A    
C38   C39   A    
C24   C25   A    
C14   H4    S    
C3    C8    A    
C17   H7    S    
C39   C40   A    
C28   H12   S    
C29   H13   S    
C35   N2    A    
C25   C26   A    
C30   H14   S    
C25   H23   S    
C29   C30   A    
C19   H9    S    
C31   C32   A    
C2    H1    S    
C39   H17   S    
Cu2   O6    S    
C17   C18   A    
C11   H2    S    
Cu1   N2    S    
C34   O8    A    
C22   C24   A    
C3    C4    A    
C18   H8    S    
Cu1   O3    S    
C2    C36   A    
C12   O4    A    
C28   C29   A    
C27   C32   A    
C9    H21   S    
C24   H5    S    
C23   O6    A    
C10   H22   S    
C4    C5    A    
C27   H11   S    
C6    C7    A    
C35   H15   S    
C6    H20   S    
C9    C15   A    
C13   H3    S    
C11   C13   A    
C30   C31   A    
C20   C26   A    
C33   C35   A    
C5    C15   S    
C10   C11   A    
C34   O7    A    
Cu1   O7    S    
C2    C40   A    
C20   C21   A    
C27   C28   A    
C14   C15   A    
C13   C14   A    
C32   N1    A    
