data_mof_unit_24440.cif
_audit_creation_date              2012-12-10T17:56:45-0500
_audit_creation_method            fapswitch 2.2
_symmetry_space_group_name_H-M    P1
_symmetry_Int_Tables_number       1
_space_group_crystal_system       triclinic
_cell_length_a                    10.827652
_cell_length_b                    9.582901
_cell_length_c                    10.860787
_cell_angle_alpha                 89.134412
_cell_angle_beta                  90.447751
_cell_angle_gamma                 89.965321
_cell_volume                      1126.75540553

loop_
_atom_site_label
_atom_site_type_symbol
_atom_type_description
_atom_site_fract_x
_atom_site_fract_y
_atom_site_fract_z
_atom_type_partial_charge
C1    C     C_R   0.262261 0.499991 0.499995 0.794695
C2    C     C_R   0.737735 0.499941 0.500165 0.789742
C3    C     C_R   0.936034 0.626766 0.501758 -0.183915
C4    C     C_R   0.063812 0.626797 0.501549 -0.179983
C5    C     C_R   0.411686 0.075044 0.436664 0.592784
C6    C     C_R   0.589419 0.072834 0.561548 0.581437
C7    C     C_R   0.411373 0.926784 0.437414 -0.160216
C8    C     C_R   0.589762 0.924572 0.560635 -0.144868
C9    C     C_R   0.493182 0.502122 0.262057 0.797333
C10   C     C_R   0.509683 0.499211 0.737382 0.792013
C11   C     C_R   0.492211 0.765983 0.104631 -0.207308
C12   C     C_R   0.611957 0.735597 0.881804 -0.224342
C13   C     C_R   0.533317 0.884185 0.040686 0.188834
C14   C     C_R   0.608703 0.867370 0.936358 0.148202
C15   C     C_R   0.549552 0.621325 0.936003 0.070279
C16   C     C_R   0.512083 0.631842 0.058801 0.059856
C17   C     C_R   0.487796 0.508153 0.126967 -0.100185
C18   C     C_R   0.520035 0.498400 0.871776 -0.084655
C19   C     C_R   0.470274 0.384206 0.064519 -0.216910
C20   C     C_R   0.480665 0.379978 0.937471 -0.204602
C21   C     C_R   0.063933 0.373241 0.498916 -0.164582
C22   C     C_R   0.936178 0.373212 0.499007 -0.161828
C23   C     C_R   0.871681 0.499964 0.500360 -0.027817
C24   C     C_R   0.128303 0.500027 0.500120 -0.029038
Cu1   Cu    Cu3+1 0.500000 0.640660 0.500000 0.943937
Cu2   Cu    Cu3+1 0.500000 0.359340 0.500000 1.039422
H1    H     H_    0.444159 0.292540 0.115742 0.192064
H2    H     H_    0.456731 0.284646 0.890677 0.169335
H3    H     H_    0.433729 0.781949 0.183184 0.171696
H4    H     H_    0.663145 0.722315 0.797622 0.144029
H5    H     H_    0.111961 0.274088 0.497833 0.190759
H6    H     H_    0.888256 0.274052 0.497887 0.192178
H7    H     H_    0.887964 0.725906 0.502977 0.155756
H8    H     H_    0.111778 0.725950 0.502554 0.157589
H9    H     H_    0.340406 0.872180 0.386728 0.160254
H10   H     H_    0.662643 0.867815 0.607702 0.144206
N1    N     N_R   0.500000 0.852070 0.500000 -0.209048
N2    N     N_R   0.500000 0.147940 0.500000 -0.249014
O1    O     O_R   0.319640 0.618740 0.499990 -0.595354
O2    O     O_R   0.680360 0.618740 0.500010 -0.600407
O3    O     O_R   0.319620 0.381170 0.499990 -0.532980
O4    O     O_R   0.680380 0.381170 0.500010 -0.527925
O5    O     O_R   0.500000 0.618810 0.319650 -0.594432
O6    O     O_R   0.500000 0.618810 0.680350 -0.580846
O7    O     O_R   0.499970 0.381240 0.319640 -0.550842
O8    O     O_R   0.500030 0.381240 0.680360 -0.557118
C25   C     C_3   0.482991 0.022711 0.079223 -0.438900
C26   C     C_3   0.346395 0.034070 0.041678 -0.794207
H11   H     H_    0.337329 0.033591 0.939713 0.242649
H12   H     H_    0.292274 0.945852 0.080878 0.252231
H13   H     H_    0.304713 0.131409 0.076051 0.259421
H14   H     H_    0.492987 0.033542 0.180497 0.217717
H15   H     H_    0.534675 0.108994 0.036041 0.208239
C27   C     C_3   0.681979 0.986227 0.879988 -0.380894
C28   C     C_3   0.784114 0.035221 0.967064 -0.806511
H16   H     H_    0.745842 0.073448 0.054788 0.243195
H17   H     H_    0.849094 0.948069 0.987797 0.250566
H18   H     H_    0.836258 0.121721 0.922478 0.260715
H19   H     H_    0.727984 0.952254 0.794696 0.224405
H20   H     H_    0.620057 0.074215 0.853636 0.233005
F1    F     F_    0.323999 0.144495 0.370479 -0.673617
F2    F     F_    0.679886 0.140321 0.623414 -0.686197

loop_
_geom_bond_atom_site_label_1
_geom_bond_atom_site_label_2
_ccdc_geom_bond_type
C10   O8    A    
C15   C18   A    
C28   H16   S    
C6    N2    A    
C9    O7    A    
C25   H14   S    
C13   C14   A    
C19   H1    S    
C11   C16   A    
C3    C23   A    
C19   C20   A    
C12   C15   A    
C25   H15   S    
Cu1   N1    S    
Cu1   O5    S    
C26   H12   S    
C7    N1    A    
C5    F1    S    
C14   C27   S    
C27   H20   S    
C21   C22   A    
Cu1   O1    S    
C11   C13   A    
C6    F2    S    
C21   H5    S    
C22   H6    S    
C26   H13   S    
C2    O4    A    
Cu1   O6    S    
C1    O3    A    
C26   H11   S    
C17   C19   A    
C10   C18   S    
C18   C20   A    
C27   H19   S    
C28   H17   S    
Cu1   O2    S    
C4    C24   A    
C4    H8    S    
C21   C24   A    
C9    O5    A    
C8    N1    A    
C3    H7    S    
C10   O6    A    
C15   C16   A    
C2    O2    A    
C7    H9    S    
C11   H3    S    
C1    C24   S    
C5    C7    A    
C8    H10   S    
C28   H18   S    
C9    C17   S    
C2    C23   S    
Cu2   O4    S    
C1    O1    A    
C27   C28   S    
Cu2   N2    S    
C6    C8    A    
C20   H2    S    
Cu2   O7    S    
C12   H4    S    
Cu1   Cu2   S    
C5    N2    A    
Cu2   O8    S    
C13   C25   S    
C22   C23   A    
C3    C4    A    
C25   C26   S    
Cu2   O3    S    
C12   C14   A    
C16   C17   A    
