data_mof_unit_23109.cif
_audit_creation_date              2013-03-05T15:40:07-0500
_audit_creation_method            fapswitch 2.2
_symmetry_space_group_name_H-M    P1
_symmetry_Int_Tables_number       1
_space_group_crystal_system       triclinic
_cell_length_a                    28.17442
_cell_length_b                    18.565129
_cell_length_c                    17.077946
_cell_angle_alpha                 89.862051
_cell_angle_beta                  60.69434
_cell_angle_gamma                 89.791169
_cell_volume                      7789.55237769

loop_
_atom_site_label
_atom_site_type_symbol
_atom_site_description
_atom_site_fract_x
_atom_site_fract_y
_atom_site_fract_z
_atom_type_partial_charge
O1    O     O_R   0.746490 0.236330 0.638080 -0.638939
O2    O     O_R   0.253510 0.763670 0.361920 -0.643226
O3    O     O_R   0.253510 0.236330 0.361920 -0.625955
O4    O     O_R   0.746490 0.763670 0.638080 -0.638032
O5    O     O_R   0.246490 0.736330 0.638080 -0.627292
O6    O     O_R   0.753510 0.263670 0.361920 -0.632693
O7    O     O_R   0.753510 0.736330 0.361920 -0.629639
O8    O     O_R   0.246490 0.263670 0.638080 -0.626976
O9    O     O_R   0.674170 0.186160 0.516270 -0.654716
O10   O     O_R   0.325830 0.813840 0.483730 -0.657103
O11   O     O_R   0.325830 0.186160 0.483730 -0.658282
O12   O     O_R   0.674170 0.813840 0.516270 -0.653806
O13   O     O_R   0.174170 0.686160 0.516270 -0.650615
O14   O     O_R   0.825830 0.313840 0.483730 -0.655285
O15   O     O_R   0.825830 0.686160 0.483730 -0.654200
O16   O     O_R   0.174170 0.313840 0.516270 -0.653713
O17   O     O_R   0.739960 0.127620 0.525000 -0.558281
O18   O     O_R   0.260040 0.872380 0.475000 -0.555202
O19   O     O_R   0.260040 0.127620 0.475000 -0.552031
O20   O     O_R   0.739960 0.872380 0.525000 -0.558593
O21   O     O_R   0.239960 0.627620 0.525000 -0.562172
O22   O     O_R   0.760040 0.372380 0.475000 -0.554476
O23   O     O_R   0.760040 0.627620 0.475000 -0.547952
O24   O     O_R   0.239960 0.372380 0.525000 -0.555802
O25   O     O_R   0.680700 0.294870 0.629350 -0.633454
O26   O     O_R   0.319300 0.705130 0.370650 -0.639404
O27   O     O_R   0.319300 0.294870 0.370650 -0.638321
O28   O     O_R   0.680700 0.705130 0.629350 -0.633888
O29   O     O_R   0.180700 0.794870 0.629350 -0.626718
O30   O     O_R   0.819300 0.205130 0.370650 -0.622979
O31   O     O_R   0.819300 0.794870 0.370650 -0.623949
O32   O     O_R   0.180700 0.205130 0.629350 -0.637587
C1    C     C_R   0.701739 0.268661 0.675882 0.876610
C2    C     C_R   0.298141 0.731107 0.324147 0.868670
C3    C     C_R   0.298135 0.268908 0.324201 0.886795
C4    C     C_R   0.701793 0.731228 0.675798 0.874134
C5    C     C_R   0.201796 0.768768 0.675889 0.902347
C6    C     C_R   0.798238 0.231292 0.324134 0.898123
C7    C     C_R   0.798181 0.768823 0.324220 0.897902
C8    C     C_R   0.201860 0.231100 0.675802 0.886633
C9    C     C_R   0.692352 0.129111 0.530868 0.927648
C10   C     C_R   0.308625 0.870889 0.466227 0.918924
C11   C     C_R   0.308770 0.129269 0.465752 0.921319
C12   C     C_R   0.692347 0.870875 0.530879 0.923962
C13   C     C_R   0.195509 0.627754 0.521211 0.924272
C14   C     C_R   0.808926 0.370513 0.463835 0.911410
C15   C     C_R   0.809303 0.629602 0.462968 0.910557
C16   C     C_R   0.190995 0.370449 0.535058 0.918672
Zn1   Zn    Zn3+2 0.792340 0.208750 0.507670 1.006791
Zn2   Zn    Zn3+2 0.207660 0.791250 0.492330 1.008857
Zn3   Zn    Zn3+2 0.207660 0.208750 0.492330 1.013198
Zn4   Zn    Zn3+2 0.792340 0.791250 0.507670 1.009393
Zn5   Zn    Zn3+2 0.292340 0.708750 0.507670 1.002992
Zn6   Zn    Zn3+2 0.707660 0.291250 0.492330 1.013104
Zn7   Zn    Zn3+2 0.707660 0.708750 0.492330 1.017883
Zn8   Zn    Zn3+2 0.292340 0.291250 0.507670 1.006127
C17   C     C_R   0.534289 0.000279 0.547315 0.034429
C18   C     C_R   0.451338 0.000063 0.499919 0.032962
C19   C     C_R   0.056993 0.496921 0.479297 0.034343
C20   C     C_R   0.968059 0.498308 0.446473 0.034345
C21   C     C_R   0.511904 0.066109 0.539435 0.045843
C22   C     C_R   0.472002 0.934138 0.512765 0.046765
C23   C     C_R   0.472373 0.066097 0.510934 0.046408
C24   C     C_R   0.511648 0.934395 0.541038 0.045738
C25   C     C_R   0.044992 0.559960 0.445218 0.045804
C26   C     C_R   0.986816 0.432724 0.463853 0.045935
C27   C     C_R   0.997091 0.562532 0.437048 0.045517
C28   C     C_R   0.027057 0.433387 0.490417 0.044451
C29   C     C_R   0.605473 0.935037 0.561426 0.026283
C30   C     C_R   0.390004 0.065302 0.460035 0.028774
C31   C     C_R   0.389528 0.934550 0.461801 0.033689
C32   C     C_R   0.605551 0.065552 0.560490 0.027337
C33   C     C_R   0.111589 0.434811 0.535604 0.030314
C34   C     C_R   0.897009 0.564920 0.432096 0.030676
C35   C     C_R   0.895097 0.433624 0.437498 0.031171
C36   C     C_R   0.131890 0.558831 0.485357 0.022122
C37   C     C_R   0.660646 0.935779 0.543632 -0.244734
C38   C     C_R   0.343185 0.064837 0.447718 -0.237797
C39   C     C_R   0.342790 0.935257 0.448947 -0.250655
C40   C     C_R   0.660653 0.064449 0.543362 -0.244663
C41   C     C_R   0.157468 0.435023 0.549701 -0.228045
C42   C     C_R   0.844703 0.564929 0.437229 -0.241244
C43   C     C_R   0.843873 0.434810 0.439221 -0.252653
C44   C     C_R   0.168569 0.561464 0.520846 -0.251201
C45   C     C_R   0.689248 0.000039 0.522822 0.222034
C46   C     C_R   0.323972 0.000125 0.432879 0.230262
C47   C     C_R   0.178606 0.499791 0.557624 0.232490
C48   C     C_R   0.822687 0.500029 0.428623 0.237117
C49   C     C_R   0.581493 0.000302 0.557149 0.081113
C50   C     C_R   0.410034 0.999962 0.474344 0.067739
C51   C     C_R   0.099708 0.497114 0.501045 0.073111
C52   C     C_R   0.920045 0.499049 0.438386 0.073189
C53   C     C_R   0.077367 0.374653 0.554986 -0.137021
C54   C     C_R   0.928411 0.627793 0.416977 -0.149830
C55   C     C_R   0.923983 0.369374 0.430741 -0.143255
C56   C     C_R   0.125937 0.615231 0.435037 -0.150298
C57   C     C_R   0.573855 0.872098 0.578869 -0.153794
C58   C     C_R   0.419328 0.128431 0.454657 -0.139774
C59   C     C_R   0.418507 0.871211 0.458363 -0.141098
C60   C     C_R   0.574033 0.128723 0.576496 -0.154171
C61   C     C_R   0.036779 0.373295 0.531035 -0.223718
C62   C     C_R   0.977053 0.626750 0.419825 -0.219178
C63   C     C_R   0.966516 0.368373 0.449613 -0.228170
C64   C     C_R   0.082201 0.617175 0.418635 -0.216924
C65   C     C_R   0.528835 0.871220 0.565696 -0.218637
C66   C     C_R   0.457741 0.129489 0.483130 -0.225797
C67   C     C_R   0.456921 0.870420 0.486873 -0.227330
C68   C     C_R   0.529186 0.129537 0.562825 -0.219510
H1    H     H_    0.080331 0.328752 0.591463 0.168079
H2    H     H_    0.917635 0.678373 0.398532 0.173945
H3    H     H_    0.915794 0.318994 0.408510 0.176467
H4    H     H_    0.155075 0.658317 0.406070 0.174381
H5    H     H_    0.583213 0.822559 0.601602 0.173110
H6    H     H_    0.415536 0.177508 0.424226 0.175439
H7    H     H_    0.414786 0.821688 0.429034 0.176871
H8    H     H_    0.583250 0.178506 0.598514 0.173921
H9    H     H_    0.011645 0.325662 0.548441 0.142338
H10   H     H_    0.997376 0.677712 0.411064 0.140712
H11   H     H_    0.985198 0.316951 0.447812 0.143431
H12   H     H_    0.079469 0.663009 0.382001 0.140274
H13   H     H_    0.507686 0.820674 0.575904 0.141530
H14   H     H_    0.477938 0.180099 0.477751 0.141296
H15   H     H_    0.476839 0.819637 0.482854 0.141483
H16   H     H_    0.508162 0.180232 0.571812 0.141642
H17   H     H_    0.649111 0.247672 0.083543 0.132398
H18   H     H_    0.288878 0.627559 0.986886 0.133461
H19   H     H_    0.289453 0.371687 0.984732 0.133028
H20   H     H_    0.649056 0.750582 0.084000 0.132094
H21   H     H_    0.210564 0.871535 0.013684 0.133663
H22   H     H_    0.850841 0.252266 0.916516 0.132408
H23   H     H_    0.850820 0.749591 0.916133 0.134180
H24   H     H_    0.210481 0.128416 0.015336 0.133105
C69   C     C_R   0.720558 0.264061 0.953580 0.113546
C70   C     C_R   0.278707 0.733403 0.046863 0.110697
C71   C     C_R   0.279144 0.266347 0.046304 0.111075
C72   C     C_R   0.720529 0.735380 0.953721 0.112379
C73   C     C_R   0.220715 0.765689 0.953705 0.111772
C74   C     C_R   0.779393 0.235873 0.046477 0.115737
C75   C     C_R   0.779349 0.764800 0.046407 0.114733
C76   C     C_R   0.220790 0.233755 0.953760 0.111211
C77   C     C_R   0.777831 0.264504 0.907934 -0.172076
C78   C     C_R   0.255416 0.801790 0.054007 -0.175223
C79   C     C_R   0.255630 0.198148 0.054432 -0.172175
C80   C     C_R   0.777831 0.736007 0.907914 -0.171087
C81   C     C_R   0.243989 0.697288 0.946586 -0.172730
C82   C     C_R   0.722121 0.235433 0.092124 -0.166778
C83   C     C_R   0.722046 0.764171 0.092220 -0.166041
C84   C     C_R   0.244301 0.301956 0.945635 -0.171849
H25   H     H_    0.800380 0.277105 0.837005 0.134273
H26   H     H_    0.260028 0.843463 0.094014 0.142959
H27   H     H_    0.260160 0.156676 0.095000 0.143163
H28   H     H_    0.800483 0.723803 0.836907 0.135300
H29   H     H_    0.239388 0.655626 0.906554 0.142659
H30   H     H_    0.699572 0.222832 0.163053 0.136111
H31   H     H_    0.699397 0.776370 0.163229 0.135599
H32   H     H_    0.239773 0.343426 0.905064 0.143002
C85   C     C_R   0.806806 0.250613 0.953710 -0.173069
C86   C     C_R   0.226970 0.817776 0.007906 -0.176432
C87   C     C_R   0.227012 0.182033 0.008707 -0.174459
C88   C     C_R   0.806774 0.750509 0.953543 -0.171069
C89   C     C_R   0.272443 0.681303 0.992685 -0.176850
C90   C     C_R   0.693145 0.249324 0.046348 -0.175061
C91   C     C_R   0.693102 0.749669 0.046589 -0.174041
C92   C     C_R   0.272920 0.318071 0.991362 -0.174690
C93   C     C_R   0.643330 0.325916 0.946076 -0.201283
C94   C     C_R   0.356409 0.673062 0.054215 -0.202707
C95   C     C_R   0.356501 0.327224 0.054101 -0.202229
C96   C     C_R   0.643459 0.673397 0.945996 -0.199984
C97   C     C_R   0.143205 0.826333 0.946099 -0.202955
C98   C     C_R   0.856618 0.174006 0.053976 -0.201137
C99   C     C_R   0.856436 0.826761 0.054105 -0.198957
C100  C     C_R   0.143451 0.172853 0.945940 -0.201053
H33   H     H_    0.630138 0.347022 0.012700 0.151207
H34   H     H_    0.370843 0.653801 0.986438 0.149263
H35   H     H_    0.370937 0.346592 0.986318 0.149055
H36   H     H_    0.630259 0.652207 0.012645 0.151060
H37   H     H_    0.128711 0.845511 0.013926 0.148759
H38   H     H_    0.869821 0.152920 0.987340 0.150223
H39   H     H_    0.869635 0.847953 0.987457 0.150618
H40   H     H_    0.129006 0.153498 0.013730 0.149263
C101  C     C_R   0.616276 0.346832 0.898549 -0.067230
C102  C     C_R   0.383571 0.652732 0.101649 -0.067690
C103  C     C_R   0.383506 0.347528 0.101756 -0.066336
C104  C     C_R   0.616444 0.652739 0.898365 -0.067188
C105  C     C_R   0.116242 0.847006 0.898476 -0.065936
C106  C     C_R   0.883666 0.153078 0.101508 -0.067080
C107  C     C_R   0.883475 0.847381 0.101711 -0.066825
C108  C     C_R   0.116468 0.152510 0.898264 -0.065537
C109  C     C_R   0.632905 0.321969 0.813404 -0.258657
C110  C     C_R   0.366914 0.677752 0.186718 -0.259748
C111  C     C_R   0.366803 0.322424 0.186859 -0.261160
C112  C     C_R   0.633108 0.677719 0.813209 -0.259075
C113  C     C_R   0.132971 0.822112 0.813324 -0.255287
C114  C     C_R   0.867014 0.177888 0.186678 -0.234573
C115  C     C_R   0.866801 0.822428 0.186875 -0.235583
C116  C     C_R   0.133180 0.177600 0.813151 -0.259513
H41   H     H_    0.611844 0.338803 0.777585 0.178242
H42   H     H_    0.388157 0.661355 0.222401 0.177926
H43   H     H_    0.387867 0.338826 0.222687 0.177852
H44   H     H_    0.612125 0.661072 0.777340 0.178334
H45   H     H_    0.111884 0.838794 0.777490 0.179536
H46   H     H_    0.888053 0.161013 0.222518 0.180485
H47   H     H_    0.887784 0.839078 0.222744 0.180545
H48   H     H_    0.112131 0.161171 0.777308 0.177931
C117  C     C_R   0.679313 0.281199 0.770988 -0.047698
C118  C     C_R   0.320380 0.718285 0.229112 -0.039200
C119  C     C_R   0.320478 0.281754 0.229062 -0.043470
C120  C     C_R   0.679381 0.718469 0.770918 -0.047093
C121  C     C_R   0.179410 0.781371 0.771033 -0.049276
C122  C     C_R   0.820635 0.218706 0.229061 -0.044770
C123  C     C_R   0.820548 0.781651 0.229145 -0.043345
C124  C     C_R   0.179500 0.218281 0.770954 -0.042692
C125  C     C_R   0.707440 0.259364 0.816962 -0.193998
C126  C     C_R   0.291949 0.739332 0.183268 -0.191329
C127  C     C_R   0.292330 0.260612 0.182949 -0.178594
C128  C     C_R   0.707379 0.740104 0.817002 -0.193513
C129  C     C_R   0.207631 0.759954 0.817100 -0.181299
C130  C     C_R   0.792516 0.240564 0.183086 -0.178129
C131  C     C_R   0.792532 0.760036 0.183087 -0.174550
C132  C     C_R   0.207629 0.239456 0.817087 -0.178607
H49   H     H_    0.743837 0.226586 0.783261 0.152492
H50   H     H_    0.254622 0.770255 0.217595 0.153880
H51   H     H_    0.255206 0.229539 0.217171 0.157422
H52   H     H_    0.743600 0.772953 0.783370 0.152919
H53   H     H_    0.244875 0.728854 0.782879 0.156413
H54   H     H_    0.756134 0.273371 0.216776 0.157219
H55   H     H_    0.756319 0.727169 0.216715 0.158300
H56   H     H_    0.244750 0.270536 0.782872 0.156764
C133  C     C_R   0.689507 0.281711 0.905612 0.072195
C134  C     C_R   0.309822 0.716384 0.094829 0.070943
C135  C     C_R   0.310151 0.283635 0.094445 0.068149
C136  C     C_R   0.689541 0.717580 0.905653 0.071707
C137  C     C_R   0.189691 0.782816 0.905606 0.070215
C138  C     C_R   0.810442 0.218211 0.094442 0.071392
C139  C     C_R   0.810347 0.782593 0.094460 0.069826
C140  C     C_R   0.189794 0.216454 0.905604 0.068412
O33   O     O_R   0.062020 0.072840 0.007170 -0.630820
O34   O     O_R   0.937980 0.927160 0.992830 -0.629078
O35   O     O_R   0.937980 0.072840 0.992830 -0.629623
O36   O     O_R   0.062020 0.927160 0.007170 -0.631020
O37   O     O_R   0.562020 0.572840 0.007170 -0.627589
O38   O     O_R   0.437980 0.427160 0.992830 -0.629920
O39   O     O_R   0.437980 0.572840 0.992830 -0.629739
O40   O     O_R   0.562020 0.427160 0.007170 -0.627462
O41   O     O_R   0.947860 0.073950 0.109290 -0.615315
O42   O     O_R   0.052140 0.926050 0.890710 -0.622068
O43   O     O_R   0.052140 0.073950 0.890710 -0.622852
O44   O     O_R   0.947860 0.926050 0.109290 -0.615417
O45   O     O_R   0.447860 0.573950 0.109290 -0.622639
O46   O     O_R   0.552140 0.426050 0.890710 -0.621394
O47   O     O_R   0.552140 0.573950 0.890710 -0.621226
O48   O     O_R   0.447860 0.426050 0.109290 -0.622421
C141  C     C_R   0.073986 0.099539 0.933936 0.906796
C142  C     C_R   0.925877 0.900578 0.066165 0.917852
C143  C     C_R   0.925971 0.099589 0.066000 0.918128
C144  C     C_R   0.073869 0.900275 0.934118 0.907866
C145  C     C_R   0.574092 0.599463 0.933865 0.910448
C146  C     C_R   0.426005 0.400473 0.066072 0.908637
C147  C     C_R   0.426086 0.599671 0.065915 0.909260
C148  C     C_R   0.574005 0.400379 0.934023 0.911301
Zn9   Zn    Zn3+2 0.505960 0.500000 0.080520 0.946262
Zn10  Zn    Zn3+2 0.494040 0.500000 0.919480 0.944415
Zn11  Zn    Zn3+2 0.005960 0.000000 0.080520 0.956978
Zn12  Zn    Zn3+2 0.994040 0.000000 0.919480 0.948491
N1    N     N_R   0.747633 0.999917 0.465400 0.235380
O49   O     O_R   0.767990 0.000697 0.378639 -0.398136
O50   O     O_R   0.780233 0.999768 0.499280 -0.364710
N2    N     N_R   0.288864 0.000387 0.393743 0.224322
O51   O     O_R   0.236141 0.999363 0.444098 -0.361989
O52   O     O_R   0.309834 0.010240 0.307698 -0.407050
N3    N     N_R   0.207992 0.502402 0.606795 0.225287
O53   O     O_R   0.182040 0.490185 0.692799 -0.404604
O54   O     O_R   0.260995 0.502175 0.564502 -0.362898
N4    N     N_R   0.781937 0.500420 0.400923 0.229136
O55   O     O_R   0.730297 0.499407 0.459914 -0.361156
O56   O     O_R   0.796687 0.510728 0.316706 -0.400044

loop_
_geom_bond_atom_site_label_1
_geom_bond_atom_site_label_2
_geom_bond_distance
_ccdc_geom_bond_type
C18   C22   1.415460 A    
C26   C28   1.412441 A    
O4    C4    1.254247 A    
C131  H55   1.082747 S    
H19   C92   1.082501 S    
C32   C49   1.405101 A    
C115  H47   1.084909 S    
O5    C5    1.251247 A    
C20   C26   1.413159 A    
O33   Zn11  1.990750 S    
C112  C120  1.369806 A    
C71   C92   1.410234 A    
C34   C54   1.412212 A    
O34   Zn12  1.990750 S    
H17   C90   1.082750 S    
C60   H8    1.077986 S    
O16   Zn3   2.115817 S    
C33   C53   1.407200 A    
O31   Zn4   2.077689 S    
C35   C43   1.429134 A    
C69   C90   1.408175 A    
C76   C84   1.405887 A    
C9    C40   1.450606 S    
C31   C39   1.437067 A    
C78   C86   1.401808 A    
C17   C49   1.419718 A    
O48   C146  1.264168 A    
C24   C65   1.407296 A    
O22   Zn6   2.029925 S    
C101  C148  1.435831 S    
C99   C139  1.400904 A    
C2    C118  1.445203 S    
C11   C38   1.472040 S    
C102  C147  1.433982 S    
C98   C138  1.399452 A    
C75   C83   1.407958 A    
O37   C145  1.228277 A    
C73   C86   1.410049 A    
O4    Zn4   2.018406 S    
H22   C85   1.082750 S    
C127  C135  1.405284 A    
O18   Zn2   2.029925 S    
C73   C81   1.404985 A    
C108  C141  1.436213 S    
C72   C136  1.500126 S    
C111  H43   1.084902 S    
O45   C147  1.262579 A    
C53   H1    1.081224 S    
O18   C10   1.302280 A    
C76   C87   1.410230 A    
C59   H7    1.077718 S    
C72   C80   1.407941 A    
O44   C142  1.264905 A    
C129  H53   1.082990 S    
C58   H6    1.078427 S    
O14   Zn1   2.120339 S    
O10   C10   1.258032 A    
C93   H33   1.083218 S    
N3    O53   1.300634 A    
C114  H46   1.084924 S    
C113  H45   1.084909 S    
O16   C16   1.259496 A    
C132  H56   1.082922 S    
C96   H36   1.083120 S    
N4    O55   1.302833 A    
C4    C120  1.445256 S    
C15   C42   1.481283 S    
C34   C52   1.410715 A    
C21   C23   1.417079 A    
C21   C68   1.407184 A    
C48   N4    1.439987 S    
C29   C37   1.430592 A    
O46   Zn10  2.001331 S    
C108  C116  1.371069 A    
C22   C24   1.417373 A    
O2    Zn2   2.018737 S    
C47   N3    1.440171 S    
C125  H49   1.082820 S    
C70   C78   1.404902 A    
O26   C2    1.295467 A    
C95   C103  1.411775 A    
C46   N2    1.439536 S    
C20   C27   1.412047 A    
C109  C117  1.369470 A    
C25   C27   1.423720 A    
C94   C102  1.409849 A    
C83   H31   1.082523 S    
C30   C58   1.413096 A    
C104  C112  1.371283 A    
O11   C11   1.261176 A    
C58   C66   1.386906 A    
O39   Zn10  1.987022 S    
C67   H15   1.080396 S    
O13   C13   1.260472 A    
C116  H48   1.084899 S    
H18   C89   1.082573 S    
C126  H50   1.083021 S    
N1    O49   1.301009 A    
O43   Zn12  2.007882 S    
C62   H10   1.079253 S    
O44   Zn11  2.007883 S    
C57   C65   1.392572 A    
O46   C148  1.263339 A    
C100  H40   1.082996 S    
C79   H27   1.082740 S    
C43   C48   1.398049 A    
C36   C56   1.413656 A    
C33   C51   1.409116 A    
C37   C45   1.386903 A    
C10   C39   1.473207 S    
C94   C134  1.398036 A    
O37   Zn9   1.990750 S    
C93   C133  1.399460 A    
O8    Zn8   2.018406 S    
O38   C146  1.228395 A    
C109  H41   1.084917 S    
C99   H39   1.083114 S    
C30   C50   1.406505 A    
C101  C109  1.371770 A    
C59   C67   1.387213 A    
C105  C144  1.434101 S    
C29   C49   1.404218 A    
C73   C137  1.496471 S    
C33   C41   1.425985 A    
H21   C86   1.082566 S    
O20   C12   1.295681 A    
O28   Zn7   2.077689 S    
O19   C11   1.303403 A    
C74   C82   1.407194 A    
O21   C13   1.285288 A    
O29   Zn2   2.077874 S    
C100  C140  1.399682 A    
C57   H5    1.078325 S    
C132  C140  1.405304 A    
C5    C121  1.445761 S    
C36   C44   1.432243 A    
C60   C68   1.392781 A    
H24   C87   1.082499 S    
O23   C15   1.300435 A    
C55   C63   1.384962 A    
C35   C55   1.414260 A    
C84   C92   1.403134 A    
C131  C139  1.404619 A    
C65   H13   1.080579 S    
O25   Zn6   2.077874 S    
O10   Zn5   2.120339 S    
O14   C14   1.265813 A    
O17   Zn1   2.029925 S    
C114  C122  1.369360 A    
N1    O50   1.303326 A    
O3    Zn3   2.018406 S    
O15   C15   1.269656 A    
O39   C147  1.229072 A    
C22   C67   1.401960 A    
C124  C132  1.420701 A    
O27   C3    1.297740 A    
O12   C12   1.255394 A    
C31   C59   1.413938 A    
O42   C144  1.262453 A    
C54   H2    1.078574 S    
H20   C91   1.082689 S    
C6    C122  1.444570 S    
O13   Zn2   2.120339 S    
C103  C111  1.371047 A    
C23   C66   1.402095 A    
O24   C16   1.304734 A    
C66   H14   1.080445 S    
C128  H52   1.082736 S    
O32   Zn3   2.077689 S    
C115  C123  1.369699 A    
C40   C45   1.385786 A    
C45   N1    1.445115 S    
C19   C28   1.410000 A    
C96   C136  1.400905 A    
O41   C143  1.263306 A    
C84   H32   1.082740 S    
C71   C135  1.499520 S    
C113  C121  1.369665 A    
C54   C62   1.394962 A    
C82   H30   1.082589 S    
O3    C3    1.253936 A    
C103  C146  1.436182 S    
C1    C117  1.444853 S    
C98   C106  1.411573 A    
C119  C127  1.420691 A    
O38   Zn10  1.990750 S    
C7    C123  1.444910 S    
C19   C51   1.422611 A    
O15   Zn4   2.115817 S    
C28   C61   1.407423 A    
C107  C142  1.437652 S    
C95   C135  1.399670 A    
C18   C50   1.429208 A    
C130  C138  1.404302 A    
O36   C144  1.229258 A    
C41   C47   1.379747 A    
C97   C137  1.398077 A    
O48   Zn9   2.007883 S    
C82   C90   1.402275 A    
O7    Zn7   2.018406 S    
C35   C52   1.409373 A    
C125  C133  1.404342 A    
C77   C85   1.402274 A    
O22   C14   1.295085 A    
O30   Zn1   2.077874 S    
O34   C142  1.228225 A    
C75   C88   1.408376 A    
O6    Zn6   2.018737 S    
C97   H37   1.083119 S    
C75   C139  1.500085 S    
O35   Zn12  1.987022 S    
C74   C138  1.497290 S    
C13   C44   1.449895 S    
C80   C88   1.403346 A    
O36   Zn11  1.987024 S    
C129  C137  1.404946 A    
O41   Zn11  2.001330 S    
O26   Zn5   2.077874 S    
O43   C141  1.264161 A    
C29   C57   1.412029 A    
O32   C8    1.297748 A    
C123  C131  1.419323 A    
C110  H42   1.084928 S    
C17   C24   1.409875 A    
C95   H35   1.082994 S    
C34   C42   1.432820 A    
C30   C38   1.433871 A    
O33   C141  1.228421 A    
C18   C23   1.415983 A    
N3    O54   1.302252 A    
C12   C37   1.449170 S    
O40   Zn9   1.987024 S    
O17   C9    1.295435 A    
C107  C115  1.371180 A    
O2    C2    1.251013 A    
O27   Zn8   2.077689 S    
O9    C9    1.251440 A    
C26   C63   1.398607 A    
C106  C114  1.371681 A    
C63   H11   1.081661 S    
C104  C145  1.437776 S    
C70   C134  1.496353 S    
N2    O52   1.300575 A    
O30   C6    1.294851 A    
C127  H51   1.082921 S    
C32   C60   1.412449 A    
C17   C21   1.409309 A    
O47   Zn10  2.007882 S    
C44   C47   1.397651 A    
O23   Zn7   2.022988 S    
C111  C119  1.369926 A    
O24   Zn8   2.022988 S    
C102  C110  1.371434 A    
C8    C124  1.446094 S    
C94   H34   1.083116 S    
C69   C77   1.407202 A    
C53   C61   1.390616 A    
C122  C130  1.419104 A    
C70   C89   1.410040 A    
C99   C107  1.413443 A    
O20   Zn4   2.022988 S    
C93   C101  1.411579 A    
C61   H9    1.081218 S    
C78   H26   1.082804 S    
C56   C64   1.391318 A    
C110  C118  1.369500 A    
O5    Zn5   2.018737 S    
C96   C104  1.413445 A    
C81   H29   1.082795 S    
C106  C143  1.435698 S    
C32   C40   1.432256 A    
C83   C91   1.403391 A    
C19   C25   1.417454 A    
O35   C143  1.229001 A    
C97   C105  1.409647 A    
C74   C85   1.408164 A    
C118  C126  1.420383 A    
C77   H25   1.082586 S    
C31   C50   1.407802 A    
C81   C89   1.401988 A    
C16   C41   1.467637 S    
C100  C108  1.411757 A    
C42   C48   1.397729 A    
O21   Zn5   2.029925 S    
C71   C79   1.405878 A    
C56   H4    1.078809 S    
O31   C7    1.297077 A    
C68   H16   1.080664 S    
N4    O56   1.300780 A    
C79   C87   1.403112 A    
C112  H44   1.084901 S    
H23   C88   1.082685 S    
O42   Zn12  2.001331 S    
C69   C133  1.497323 S    
O40   C148  1.229049 A    
O12   Zn7   2.115817 S    
O1    C1    1.251508 A    
C36   C51   1.405368 A    
C117  C125  1.419142 A    
C14   C43   1.473757 S    
C116  C124  1.369952 A    
O19   Zn3   2.022988 S    
C3    C119  1.446046 S    
C55   H3    1.077594 S    
N2    O51   1.302332 A    
O28   C4    1.297137 A    
C120  C128  1.419361 A    
C38   C46   1.393228 A    
O6    C6    1.251430 A    
O29   C5    1.295497 A    
C76   C140  1.499529 S    
O7    C7    1.254142 A    
C128  C136  1.404701 A    
C105  C113  1.371555 A    
O9    Zn6   2.120339 S    
O8    C8    1.253964 A    
C25   C64   1.404725 A    
O45   Zn9   2.001330 S    
C98   H38   1.083216 S    
C20   C52   1.425488 A    
O1    Zn1   2.018737 S    
C130  H54   1.082825 S    
C39   C46   1.393867 A    
O47   C145  1.264928 A    
O11   Zn8   2.115817 S    
C80   H28   1.082511 S    
C27   C62   1.408039 A    
O25   C1    1.294912 A    
C121  C129  1.420490 A    
C64   H12   1.079574 S    
C72   C91   1.408422 A    
C126  C134  1.404722 A    
