data_mof_unit_31468.cif
_audit_creation_date              2012-12-10T17:53:20-0500
_audit_creation_method            fapswitch 2.2
_symmetry_space_group_name_H-M    P1
_symmetry_Int_Tables_number       1
_space_group_crystal_system       triclinic
_cell_length_a                    23.419187
_cell_length_b                    10.618496
_cell_length_c                    9.940785
_cell_angle_alpha                 89.291144
_cell_angle_beta                  89.574276
_cell_angle_gamma                 92.10463
_cell_volume                      2470.10653094

loop_
_atom_site_label
_atom_site_type_symbol
_atom_type_description
_atom_site_fract_x
_atom_site_fract_y
_atom_site_fract_z
_atom_type_partial_charge
C1    C     C_R   0.501363 0.260799 0.500679 0.848850
C2    C     C_R   0.965845 0.270485 0.447994 -0.157518
C3    C     C_R   0.025259 0.269110 0.449522 -0.159519
C4    C     C_R   0.057615 0.379703 0.476485 -0.014464
C5    C     C_R   0.029878 0.492544 0.502347 -0.021666
C6    C     C_R   0.061956 0.604032 0.529692 -0.015815
C7    C     C_R   0.033949 0.716017 0.555130 -0.157017
C8    C     C_R   0.974555 0.717415 0.553493 -0.159518
C9    C     C_R   0.117262 0.380822 0.478270 0.502595
C10   C     C_R   0.121484 0.600406 0.530215 0.504546
C11   C     C_R   0.237829 0.496366 0.625271 -0.100882
C12   C     C_R   0.389424 0.498950 0.500507 0.847795
C13   C     C_R   0.297125 0.499163 0.624393 -0.217404
C14   C     C_R   0.327109 0.495520 0.501696 -0.038052
C15   C     C_R   0.297041 0.487717 0.380201 -0.224937
C16   C     C_R   0.237750 0.484681 0.381526 -0.101469
C17   C     C_R   0.208268 0.489501 0.503907 0.321252
C18   C     C_R   0.761951 0.506348 0.619966 -0.104951
C19   C     C_R   0.702732 0.507392 0.620538 -0.243238
C20   C     C_R   0.672818 0.499997 0.498820 -0.037202
C21   C     C_R   0.702880 0.491679 0.376702 -0.190612
C22   C     C_R   0.762129 0.490530 0.376544 -0.103318
C23   C     C_R   0.501730 0.739362 0.499243 0.894522
C24   C     C_R   0.791543 0.497833 0.498102 0.323475
C25   C     C_R   0.597243 0.137395 0.622629 -0.175039
C26   C     C_R   0.642405 0.074499 0.680325 -0.110786
C27   C     C_R   0.642800 0.943508 0.678383 -0.117516
C28   C     C_R   0.598053 0.874960 0.618651 -0.163916
C29   C     C_R   0.551577 0.937282 0.560987 0.100654
C30   C     C_R   0.551145 0.069225 0.563028 0.093320
C31   C     C_R   0.505044 0.128681 0.501374 -0.085571
C32   C     C_R   0.461866 0.061935 0.434607 -0.205126
C33   C     C_R   0.462301 0.933369 0.432657 -0.182465
C34   C     C_R   0.610565 0.500396 0.499543 0.856300
C35   C     C_R   0.505881 0.871996 0.497592 -0.080523
C36   C     C_R   0.422084 0.340382 0.142942 -0.154070
C37   C     C_R   0.383561 0.262298 0.074322 -0.192481
C38   C     C_R   0.383719 0.262246 0.935018 -0.183266
C39   C     C_R   0.422424 0.340245 0.863468 -0.154467
C40   C     C_R   0.461173 0.422676 0.929481 0.168846
C41   C     C_R   0.461022 0.422921 0.073917 0.142496
C42   C     C_R   0.539710 0.568720 0.067707 0.024074
C43   C     C_R   0.538904 0.568829 0.925219 -0.188010
C44   C     C_R   0.882593 0.605870 0.524310 0.503693
C45   C     C_R   0.878281 0.386215 0.472675 0.501807
C46   C     C_R   0.937828 0.382483 0.473377 -0.015017
C47   C     C_R   0.969925 0.493950 0.500725 -0.021584
C48   C     C_R   0.942211 0.606837 0.526446 -0.015085
H1    H     H_    0.942011 0.183706 0.426895 0.195342
H2    H     H_    0.680517 0.514048 0.715998 0.157905
H3    H     H_    0.680755 0.485625 0.281608 0.153424
H4    H     H_    0.785277 0.484141 0.282304 0.138635
H5    H     H_    0.427232 0.109636 0.386087 0.142411
H6    H     H_    0.599353 0.239185 0.623657 0.153401
H7    H     H_    0.677464 0.127650 0.725497 0.151106
H8    H     H_    0.678158 0.894879 0.722050 0.151306
H9    H     H_    0.600784 0.773571 0.616302 0.143818
H10   H     H_    0.427851 0.881276 0.383358 0.155133
H11   H     H_    0.420953 0.331089 0.249636 0.197549
H12   H     H_    0.354049 0.199887 0.129780 0.157519
H13   H     H_    0.354309 0.199861 0.881921 0.160669
H14   H     H_    0.421679 0.331394 0.756890 0.203387
H15   H     H_    0.570492 0.624749 0.868225 0.141132
H16   H     H_    0.057778 0.802800 0.576244 0.195131
H17   H     H_    0.954130 0.805222 0.573456 0.192939
H18   H     H_    0.214755 0.499988 0.719877 0.140852
H19   H     H_    0.319351 0.504687 0.719421 0.169003
H20   H     H_    0.319187 0.484171 0.284363 0.168021
H21   H     H_    0.214619 0.479612 0.287702 0.140855
H22   H     H_    0.784950 0.511851 0.713949 0.138727
N1    N     N_R   0.852237 0.496676 0.497955 -0.360155
N2    N     N_R   0.147570 0.490061 0.504643 -0.360364
N3    N     N_R   0.499460 0.498800 0.142780 -0.133795
N4    N     N_R   0.499440 0.498720 0.857170 -0.117587
O1    O     O_R   0.500000 0.316780 0.614690 -0.639666
O2    O     O_2   0.846510 0.280497 0.447984 -0.550774
O3    O     O_2   0.144904 0.273926 0.454410 -0.552481
O4    O     O_2   0.153217 0.706170 0.554982 -0.548930
O5    O     O_R   0.500000 0.316750 0.385360 -0.631624
O6    O     O_R   0.416160 0.499970 0.614690 -0.636256
O7    O     O_R   0.416150 0.499950 0.385360 -0.644562
O8    O     O_R   0.500000 0.683250 0.614640 -0.622843
O9    O     O_R   0.500000 0.683220 0.385310 -0.543940
O10   O     O_R   0.583850 0.500050 0.614640 -0.641283
O11   O     O_R   0.583840 0.500030 0.385310 -0.593060
O12   O     O_2   0.855012 0.712948 0.547713 -0.551621
Zn1   Zn    Zn3+2 0.500000 0.500020 0.653130 0.934898
Zn2   Zn    Zn3+2 0.500000 0.499980 0.346870 0.981079
C49   C     C_2   0.588133 0.639290 0.128668 0.454789
H23   H     H_    0.630471 0.632813 0.084641 0.006983
O13   O     O_2   0.581455 0.712272 0.220257 -0.531938
H24   H     H_    0.045691 0.181326 0.429493 0.193147

loop_
_geom_bond_atom_site_label_1
_geom_bond_atom_site_label_2
_ccdc_geom_bond_type
C18   H22   S    
C33   H10   S    
C23   O8    A    
C45   N1    A    
C19   C20   A    
O10   Zn1   S    
C36   H11   S    
C26   H7    S    
C10   O4    S    
C43   H15   S    
C7    C8    A    
C28   H9    S    
C2    C46   A    
C5    C47   A    
C26   C27   A    
C37   C38   A    
C23   O9    A    
C45   O2    S    
C18   C24   A    
C36   C37   A    
O6    Zn1   S    
C5    C6    A    
O8    Zn1   S    
C1    C31   S    
C44   N1    A    
C18   C19   A    
C11   C17   A    
C31   C32   A    
C16   C17   A    
C9    N2    A    
N4    Zn1   S    
C49   O13   D    
C11   H18   S    
C38   H13   S    
C20   C34   S    
C43   N4    A    
O9    Zn2   S    
C8    H17   S    
C21   C22   A    
C36   C41   A    
C34   O10   A    
C44   O12   S    
O5    Zn2   S    
C1    O1    A    
C25   H6    S    
C39   C40   A    
C27   H8    S    
C25   C26   A    
C45   C46   A    
C3    H24   S    
C34   O11   A    
C8    C48   A    
N3    Zn2   S    
C29   C30   A    
C2    H1    S    
C47   C48   A    
C30   C31   A    
C9    O3    S    
C37   H12   S    
O1    Zn1   S    
C40   C41   A    
C12   C14   S    
C23   C35   S    
C1    O5    A    
C22   C24   A    
C42   C43   A    
C3    C4    A    
C32   H5    S    
C21   H3    S    
C22   H4    S    
C13   H19   S    
O11   Zn2   S    
C25   C30   A    
C39   H14   S    
C46   C47   A    
C28   C29   A    
C42   N3    A    
C16   H21   S    
C4    C5    A    
C6    C10   A    
C6    C7    A    
C29   C35   A    
C42   C49   S    
C32   C33   A    
C2    C3    A    
C4    C9    A    
C11   C13   A    
C19   H2    S    
C38   C39   A    
C15   H20   S    
C12   O6    A    
C33   C35   A    
C40   N4    A    
C12   O7    A    
C7    H16   S    
O7    Zn2   S    
C41   N3    A    
C44   C48   A    
C20   C21   A    
C17   N2    S    
C27   C28   A    
C14   C15   A    
C49   H23   S    
C13   C14   A    
C15   C16   A    
C24   N1    S    
C10   N2    A    
