data_mof_unit_35149.cif
_audit_creation_date              2013-03-05T16:18:54-0500
_audit_creation_method            fapswitch 2.2
_symmetry_space_group_name_H-M    P1
_symmetry_Int_Tables_number       1
_space_group_crystal_system       triclinic
_cell_length_a                    9.742312
_cell_length_b                    10.658014
_cell_length_c                    16.774152
_cell_angle_alpha                 90.489685
_cell_angle_beta                  84.793859
_cell_angle_gamma                 89.144301
_cell_volume                      1734.25787935

loop_
_atom_site_label
_atom_site_type_symbol
_atom_site_description
_atom_site_fract_x
_atom_site_fract_y
_atom_site_fract_z
_atom_type_partial_charge
O1    O     O_R   0.383960 0.685090 0.500020 -0.615863
O2    O     O_R   0.616040 0.685320 0.499960 -0.642087
C1    C     C_R   0.499165 0.741891 0.497668 0.911538
O3    O     O_R   0.370240 0.499890 0.615830 -0.623410
O4    O     O_R   0.602330 0.500120 0.615770 -0.616355
C2    C     C_R   0.480483 0.496628 0.652872 0.920878
Zn1   Zn    Zn3+2 0.345040 0.499850 0.500040 0.982591
Zn2   Zn    Zn3+2 0.654960 0.500150 0.499960 0.919593
O5    O     O_R   0.383960 0.314680 0.500040 -0.541388
O6    O     O_R   0.616040 0.314910 0.499980 -0.601274
O7    O     O_R   0.397670 0.499880 0.384230 -0.637707
O8    O     O_R   0.629760 0.500110 0.384170 -0.627706
C3    C     C_R   0.501581 0.257327 0.496798 0.838307
C4    C     C_R   0.519999 0.500875 0.347042 0.858041
C5    C     C_R   0.467146 0.466137 0.736834 -0.020267
C6    C     C_R   0.562847 0.382473 0.765508 -0.227970
C7    C     C_R   0.546819 0.345111 0.844501 -0.149755
C8    C     C_R   0.436151 0.392948 0.895378 0.172224
C9    C     C_R   0.336134 0.470787 0.865768 -0.173941
C10   C     C_R   0.351915 0.507921 0.786388 -0.175526
C11   C     C_R   0.444105 0.533023 0.134565 0.522647
C12   C     C_R   0.435502 0.548728 0.217032 -0.338979
C13   C     C_R   0.649803 0.430469 0.221872 -0.206904
C14   C     C_R   0.657066 0.411162 0.139853 -0.234027
C15   C     C_R   0.551071 0.456499 0.096829 0.071462
C16   C     C_2   0.439832 0.385773 0.981360 -0.189550
C17   C     C_2   0.553975 0.422710 0.012759 -0.230046
C18   C     C_R   0.536083 0.494965 0.260732 -0.103427
H1    H     H_    0.649527 0.345696 0.726795 0.141311
H2    H     H_    0.349398 0.601399 0.246949 0.154289
H3    H     H_    0.729226 0.389735 0.255325 0.150262
H4    H     H_    0.650031 0.435228 0.975540 0.154614
H5    H     H_    0.251068 0.508888 0.905167 0.144259
H6    H     H_    0.275793 0.570308 0.763932 0.164690
H7    H     H_    0.343638 0.375366 0.018697 0.181888
H8    H     H_    0.624088 0.284076 0.867053 0.134608
H9    H     H_    0.741770 0.356006 0.110571 0.152894
C19   C     C_3   0.362444 0.929908 0.466458 -0.419614
H10   H     H_    0.270118 0.901755 0.505478 0.239457
H11   H     H_    0.349382 0.891575 0.405663 0.167723
C20   C     C_3   0.368735 0.072569 0.462746 -0.458124
H12   H     H_    0.365667 0.103284 0.399732 0.161320
H13   H     H_    0.275467 0.111507 0.497753 0.261829
H14   H     H_    0.414293 0.104731 0.619320 0.197054
C21   C     C_3   0.520642 0.928996 0.581724 0.193611
C22   C     C_3   0.617209 0.921757 0.436980 -0.528878
C23   C     C_3   0.497590 0.877728 0.496576 0.011977
H15   H     H_    0.714169 0.877485 0.453298 0.199751
H16   H     H_    0.601811 0.890521 0.374918 0.138730
C24   C     C_3   0.503535 0.120139 0.495552 0.039845
C25   C     C_3   0.508772 0.073019 0.582319 -0.444172
C26   C     C_3   0.629250 0.065605 0.440277 0.407166
H17   H     H_    0.620871 0.103688 0.379059 0.032322
H18   H     H_    0.628302 0.903813 0.593922 0.118780
H19   H     H_    0.598071 0.113498 0.610023 0.174413
C27   C     C_3   0.913020 0.626934 0.521622 -0.287762
H20   H     H_    0.868667 0.656300 0.582504 0.183896
H21   H     H_    0.876747 0.697431 0.479518 0.171648
C28   C     C_3   0.075904 0.630311 0.517174 -0.494837
H22   H     H_    0.114978 0.696339 0.469615 0.176507
H23   H     H_    0.108795 0.669035 0.574112 0.211700
H24   H     H_    0.856268 0.430649 0.620202 0.130482
H25   H     H_    0.087002 0.466504 0.624244 0.039402
C29   C     C_3   0.910856 0.411465 0.560159 -0.334603
C30   C     C_3   0.930150 0.465832 0.422228 -0.311164
N1    N     N_3   0.861190 0.500250 0.501720 -0.066490
H26   H     H_    0.890492 0.374506 0.403189 0.162379
H27   H     H_    0.899813 0.534596 0.377193 0.123648
N2    N     N_3   0.138550 0.503270 0.501080 -0.089641
C31   C     C_3   0.071534 0.421097 0.565751 0.523719
C32   C     C_3   0.092657 0.462201 0.421541 0.510000
H28   H     H_    0.133964 0.531160 0.375962 0.031400
H29   H     H_    0.882904 0.314583 0.543512 0.195107
N3    N     N_R   0.426877 0.874264 0.645267 0.199097
O9    O     O_R   0.294244 0.892822 0.648040 -0.455593
O10   O     O_R   0.477018 0.807708 0.700800 -0.429436
O11   O     O_3   0.755976 0.096544 0.471319 -0.644261
C33   C     C_3   0.865683 0.107325 0.410066 0.107088
H30   H     H_    0.944785 0.166405 0.434694 0.209995
H31   H     H_    0.833082 0.156278 0.356585 0.094487
C34   C     C_3   0.934051 0.979854 0.386047 -0.393434
H32   H     H_    0.953500 0.926836 0.440806 0.227159
H33   H     H_    0.865873 0.924955 0.349838 0.209711
C35   C     C_3   0.070434 0.994603 0.335350 -0.972855
H34   H     H_    0.053863 0.042434 0.278437 0.273826
H35   H     H_    0.117692 0.900686 0.321047 0.253409
H36   H     H_    0.141947 0.049347 0.368969 0.281496
O12   O     O_3   0.141601 0.338399 0.401197 -0.613372
C36   C     C_3   0.186201 0.323614 0.318294 0.073262
H37   H     H_    0.238403 0.230698 0.310128 0.159682
H38   H     H_    0.264431 0.392392 0.298080 0.169782
C37   C     C_3   0.069328 0.330741 0.262767 -0.455789
H39   H     H_    0.986716 0.265709 0.283086 0.220473
H40   H     H_    0.025475 0.427449 0.262940 0.210946
C38   C     C_3   0.121704 0.296217 0.176747 -0.915524
H41   H     H_    0.203448 0.361654 0.154071 0.283035
H42   H     H_    0.035430 0.302876 0.137953 0.260480
H43   H     H_    0.163869 0.198721 0.173382 0.255001
O13   O     O_3   0.134149 0.300001 0.562759 -0.594603
C39   C     C_3   0.099354 0.230427 0.633561 0.019828
H44   H     H_    0.119054 0.129776 0.618282 0.200127
H45   H     H_    0.988229 0.238350 0.655202 0.111985
C40   C     C_3   0.187603 0.266823 0.701168 -0.360126
H46   H     H_    0.297039 0.273503 0.677327 0.237272
H47   H     H_    0.152716 0.359338 0.726743 0.203356
C41   C     C_3   0.175825 0.171878 0.768869 -0.900229
H48   H     H_    0.066638 0.163541 0.793518 0.254842
H49   H     H_    0.237633 0.203397 0.817564 0.266947
H50   H     H_    0.215733 0.078632 0.747024 0.307939
O14   O     O_3   0.341755 0.584902 0.092525 -0.674980
C42   C     C_3   0.387589 0.698920 0.057408 0.103023
H51   H     H_    0.333675 0.711845 0.002390 0.177221
H52   H     H_    0.500256 0.698311 0.037776 0.130567
C43   C     C_3   0.349731 0.809775 0.114533 -0.381646
H53   H     H_    0.238255 0.806713 0.135453 0.234945
H54   H     H_    0.409915 0.803008 0.167549 0.209930
C44   C     C_3   0.380041 0.935092 0.073781 -0.940021
H55   H     H_    0.491284 0.940721 0.052930 0.266720
H56   H     H_    0.352913 0.013065 0.116960 0.259334
H57   H     H_    0.317936 0.946283 0.021844 0.270412

loop_
_geom_bond_atom_site_label_1
_geom_bond_atom_site_label_2
_geom_bond_distance
_ccdc_geom_bond_type
Zn2   N1    2.012066 S    
C20   H12   1.112057 S    
C38   H41   1.109710 S    
C8    C16   1.448612 S    
C35   H36   1.105280 S    
C34   H32   1.111841 S    
C38   H43   1.110735 S    
O11   C33   1.420425 S    
C31   O13   1.417816 S    
Zn1   O7    1.963646 S    
C22   H16   1.114013 S    
C16   C17   1.335964 D    
N3    O10   1.301181 A    
C35   H35   1.110656 S    
C44   H56   1.110623 S    
O4    C2    1.290538 A    
O7    C4    1.294267 A    
C33   H31   1.110249 S    
C41   H48   1.110861 S    
C21   C25   1.537498 S    
C5    C6    1.399865 A    
C22   C26   1.540262 S    
C27   H20   1.112677 S    
C8    C9    1.398255 A    
N2    C32   1.508534 S    
O5    C3    1.287208 A    
O14   C42   1.415559 S    
C37   H39   1.102385 S    
H24   C29   1.111328 S    
C2    C5    1.442892 S    
C40   H47   1.108200 S    
C42   H51   1.111112 S    
C6    C7    1.382753 A    
C30   H26   1.107702 S    
C24   C26   1.568748 S    
C29   H29   1.111577 S    
C7    H8    1.083603 S    
C29   C31   1.581451 S    
C36   H38   1.098731 S    
C10   H6    1.083616 S    
C28   H22   1.113128 S    
C12   C18   1.395211 A    
C11   C12   1.386791 A    
C20   H13   1.109241 S    
C42   C43   1.534163 S    
O3    Zn1   1.979707 S    
C37   H40   1.109720 S    
C34   H33   1.109584 S    
C11   O14   1.383860 S    
C21   C23   1.561272 S    
C5    C10   1.399617 A    
C22   H15   1.107108 S    
C28   H23   1.112635 S    
N3    O9    1.300865 A    
C14   C15   1.395336 A    
C19   C20   1.524213 S    
O3    C2    1.288860 A    
C9    H5    1.083717 S    
C44   H57   1.111110 S    
C33   H30   1.108533 S    
C24   C25   1.548656 S    
C6    H1    1.083839 S    
C30   C32   1.582092 S    
C39   C40   1.534615 S    
C3    C24   1.461934 S    
C21   N3    1.469921 S    
O1    C1    1.280789 A    
C29   N1    1.476058 S    
O13   C39   1.422954 S    
H25   C31   1.113788 S    
Zn2   O8    1.979709 S    
C30   H27   1.112943 S    
C39   H45   1.111934 S    
C7    C8    1.399952 A    
C42   H52   1.116893 S    
C13   C18   1.401202 A    
C35   H34   1.109584 S    
C36   C37   1.536508 S    
C19   C23   1.549736 S    
C28   N2    1.489250 S    
H14   C25   1.109104 S    
O8    C4    1.285331 A    
C21   H18   1.116010 S    
C26   O11   1.424782 S    
C20   C24   1.559111 S    
C34   C35   1.522094 S    
C26   H17   1.116810 S    
C14   H9    1.083891 S    
Zn1   O5    2.004069 S    
C11   C15   1.413477 A    
C22   C23   1.546144 S    
C12   H2    1.084153 S    
C17   H4    1.087397 S    
O1    Zn1   2.015923 S    
O2    Zn2   2.004071 S    
O6    C3    1.285928 A    
Zn1   N2    2.009964 S    
O4    Zn2   1.963646 S    
C43   H54   1.110983 S    
C38   H42   1.110505 S    
C43   H53   1.111653 S    
C15   C17   1.450139 S    
C27   C28   1.582809 S    
C9    C10   1.388147 A    
O2    C1    1.284255 A    
C32   H28   1.117704 S    
C44   H55   1.110850 S    
C19   H11   1.114036 S    
C33   C34   1.538389 S    
C19   H10   1.109982 S    
C41   H49   1.110504 S    
C27   N1    1.494225 S    
C1    C23   1.447898 S    
C39   H44   1.110632 S    
C27   H21   1.111149 S    
C40   C41   1.525216 S    
C25   H19   1.113597 S    
C37   C38   1.526247 S    
N2    C31   1.508271 S    
C43   C44   1.526152 S    
C13   C14   1.384649 A    
C32   O12   1.424375 S    
C16   H7    1.086541 S    
O12   C36   1.425482 S    
Zn2   O6    2.015922 S    
C30   N1    1.478376 S    
C40   H46   1.107738 S    
C4    C18   1.442765 S    
C36   H37   1.108195 S    
C13   H3    1.083978 S    
C41   H50   1.108828 S    
