data_mof_unit_67195.cif
_audit_creation_date              2012-12-11T18:15:16-0500
_audit_creation_method            fapswitch 2.2
_symmetry_space_group_name_H-M    P1
_symmetry_Int_Tables_number       1
_space_group_crystal_system       triclinic
_cell_length_a                    20.257385
_cell_length_b                    20.462816
_cell_length_c                    8.497851
_cell_angle_alpha                 89.559536
_cell_angle_beta                  91.90611
_cell_angle_gamma                 90.466843
_cell_volume                      3520.39297674

loop_
_atom_site_label
_atom_site_type_symbol
_atom_type_description
_atom_site_fract_x
_atom_site_fract_y
_atom_site_fract_z
_atom_type_partial_charge
Ba1   Ba    Ba6+2 0.999980 0.452130 0.155200 1.661712
Ba2   Ba    Ba6+2 0.999980 0.547870 0.655200 1.658005
Ba3   Ba    Ba6+2 0.499980 0.952130 0.155200 1.661710
Ba4   Ba    Ba6+2 0.499980 0.047870 0.655200 1.658004
C1    C     C_3   0.921741 0.159183 0.341636 -0.384471
C2    C     C_3   0.966847 0.849828 0.721005 -0.392805
C3    C     C_3   0.421741 0.659184 0.341635 -0.384466
C4    C     C_3   0.466846 0.349828 0.721005 -0.392809
C5    C     C_R   0.148558 0.345573 0.825620 0.018405
C6    C     C_R   0.149820 0.652988 0.326562 0.056850
C7    C     C_R   0.648558 0.845573 0.825620 0.018406
C8    C     C_R   0.649821 0.152988 0.326561 0.056849
C9    C     C_R   0.108870 0.335533 0.688376 -0.251110
C10   C     C_R   0.113027 0.660961 0.185727 -0.262378
C11   C     C_R   0.608870 0.835533 0.688376 -0.251111
C12   C     C_R   0.613028 0.160961 0.185726 -0.262383
C13   C     C_R   0.117411 0.281507 0.590303 0.012433
C14   C     C_R   0.125870 0.712566 0.083514 0.027251
C15   C     C_R   0.617412 0.781508 0.590303 0.012437
C16   C     C_R   0.625870 0.212566 0.083513 0.027248
C17   C     C_R   0.161522 0.232350 0.637551 -0.155579
C18   C     C_R   0.171172 0.761274 0.128123 -0.142149
C19   C     C_R   0.661523 0.732350 0.637550 -0.155584
C20   C     C_R   0.671172 0.261275 0.128123 -0.142148
C21   C     C_R   0.202102 0.239166 0.774362 -0.003954
C22   C     C_R   0.207948 0.756825 0.270736 -0.005838
C23   C     C_R   0.702102 0.739166 0.774362 -0.003962
C24   C     C_R   0.707948 0.256825 0.270737 -0.005834
C25   C     C_R   0.196571 0.296134 0.869212 -0.020976
C26   C     C_R   0.198882 0.701620 0.370460 -0.022857
C27   C     C_R   0.696571 0.796134 0.869212 -0.020976
C28   C     C_R   0.698882 0.201620 0.370460 -0.022855
C29   C     C_R   0.792858 0.696090 0.946127 0.027771
C30   C     C_R   0.794511 0.302343 0.450514 0.011220
C31   C     C_R   0.292858 0.196090 0.946127 0.027766
C32   C     C_R   0.294511 0.802343 0.450513 0.011225
C33   C     C_R   0.785812 0.751792 0.042697 0.011920
C34   C     C_R   0.785087 0.247470 0.551169 0.009146
C35   C     C_R   0.285812 0.251793 0.042696 0.011915
C36   C     C_R   0.285087 0.747470 0.551169 0.009143
C37   C     C_R   0.842266 0.648233 0.990597 -0.007762
C38   C     C_R   0.843556 0.350750 0.494329 -0.023045
C39   C     C_R   0.342266 0.148232 0.990598 -0.007765
C40   C     C_R   0.343556 0.850750 0.494328 -0.023040
C41   C     C_R   0.876965 0.654158 0.134139 -0.273583
C42   C     C_R   0.878446 0.344343 0.638211 -0.269919
C43   C     C_R   0.376963 0.154157 0.134142 -0.273585
C44   C     C_R   0.378446 0.844343 0.638212 -0.269921
C45   C     C_3   0.000759 0.205961 0.844305 0.348164
C46   C     C_3   0.983920 0.796745 0.248359 0.313770
C47   C     C_3   0.500757 0.705963 0.844299 0.348172
C48   C     C_3   0.483927 0.296737 0.248367 0.313769
C49   C     C_R   0.866652 0.706468 0.231607 0.020581
C50   C     C_R   0.866720 0.292243 0.739420 0.018443
C51   C     C_R   0.366650 0.206466 0.231609 0.020586
C52   C     C_R   0.366719 0.792244 0.739421 0.018445
C53   C     C_R   0.824813 0.756900 0.181538 -0.170271
C54   C     C_R   0.821745 0.243114 0.694491 -0.158812
C55   C     C_R   0.324814 0.256900 0.181537 -0.170269
C56   C     C_R   0.321744 0.743114 0.694491 -0.158811
C57   C     C_R   0.750166 0.690739 0.812142 -0.017164
C58   C     C_R   0.754546 0.306383 0.311726 -0.011547
C59   C     C_R   0.250166 0.190739 0.812143 -0.017136
C60   C     C_R   0.254546 0.806383 0.311725 -0.011541
C61   C     C_3   0.993378 0.140913 0.761041 -0.423415
C62   C     C_3   0.037634 0.848610 0.244869 -0.383789
C63   C     C_3   0.493382 0.640912 0.761044 -0.423419
C64   C     C_3   0.537637 0.348606 0.244883 -0.383789
C65   C     C_3   0.770735 0.498009 0.990004 0.699603
C66   C     C_3   0.770127 0.500746 0.488470 0.697626
C67   C     C_3   0.270735 0.998009 0.990004 0.699606
C68   C     C_3   0.270128 0.000746 0.488472 0.697638
C69   C     C_3   0.698664 0.520262 0.994112 0.199653
C70   C     C_3   0.697275 0.479437 0.491051 0.207318
C71   C     C_3   0.198663 0.020259 0.994115 0.199665
C72   C     C_3   0.197277 0.979436 0.491059 0.207318
C73   C     C_3   0.233868 0.500968 0.834975 0.315638
C74   C     C_3   0.215636 0.478102 0.355286 0.315064
C75   C     C_3   0.733868 0.000968 0.834974 0.315639
C76   C     C_3   0.715636 0.978102 0.355285 0.315064
C77   C     C_3   0.285632 0.452123 0.780298 -0.194546
C78   C     C_3   0.283472 0.479585 0.275733 -0.150998
C79   C     C_3   0.785632 0.952123 0.780297 -0.194545
C80   C     C_3   0.783472 0.979585 0.275732 -0.150998
C81   C     C_3   0.962189 0.220271 0.376163 0.355565
C82   C     C_3   0.988849 0.783879 0.780800 0.353341
C83   C     C_3   0.462189 0.720272 0.376160 0.355562
C84   C     C_3   0.488848 0.283878 0.780798 0.353341
C85   C     C_R   0.239990 0.301633 0.001506 -0.070153
C86   C     C_R   0.238828 0.697766 0.509176 -0.054690
C87   C     C_R   0.739989 0.801632 0.001507 -0.070154
C88   C     C_R   0.738828 0.197766 0.509175 -0.054688
H1    H     H_    0.944661 0.258549 0.292289 0.112539
H2    H     H_    0.991935 0.750883 0.679000 0.140209
H3    H     H_    0.444662 0.758548 0.292284 0.112540
H4    H     H_    0.491936 0.250883 0.678997 0.140207
H5    H     H_    0.673986 0.512184 0.876769 0.015668
H6    H     H_    0.672993 0.488357 0.373659 0.028332
H7    H     H_    0.173982 0.012176 0.876778 0.015682
H8    H     H_    0.172991 0.988360 0.373672 0.028317
H9    H     H_    0.673257 0.490285 0.084278 0.009774
H10   H     H_    0.672898 0.510202 0.579923 -0.001573
H11   H     H_    0.173261 0.990284 0.084291 0.009751
H12   H     H_    0.172902 0.010195 0.579943 -0.001571
H13   H     H_    0.195898 0.508031 0.740187 0.075346
H14   H     H_    0.179860 0.484239 0.255923 0.088851
H15   H     H_    0.695897 0.008031 0.740186 0.075346
H16   H     H_    0.679860 0.984239 0.255923 0.088851
H17   H     H_    0.296174 0.465166 0.658835 0.105532
H18   H     H_    0.289528 0.433252 0.211325 0.079398
H19   H     H_    0.796173 0.965165 0.658834 0.105533
H20   H     H_    0.789528 0.933252 0.211324 0.079398
H21   H     H_    0.263983 0.402599 0.776227 0.047819
H22   H     H_    0.281013 0.519602 0.187736 0.101786
H23   H     H_    0.763983 0.902598 0.776228 0.047819
H24   H     H_    0.781013 0.019602 0.187736 0.101786
H25   H     H_    0.953399 0.235839 0.498412 -0.055867
H26   H     H_    0.952375 0.764882 0.865365 -0.006516
H27   H     H_    0.453398 0.735841 0.498408 -0.055864
H28   H     H_    0.452374 0.264880 0.865360 -0.006510
H29   H     H_    0.868555 0.168818 0.357300 0.073306
H30   H     H_    0.973823 0.884588 0.819070 0.113509
H31   H     H_    0.368555 0.668819 0.357294 0.073306
H32   H     H_    0.473822 0.384587 0.819070 0.113513
H33   H     H_    0.928751 0.144025 0.218356 0.155965
H34   H     H_    0.914472 0.847472 0.678426 0.119161
H35   H     H_    0.428753 0.644024 0.218357 0.155964
H36   H     H_    0.414470 0.347471 0.678427 0.119163
H37   H     H_    0.033618 0.134976 0.676786 0.093205
H38   H     H_    0.052351 0.857626 0.121975 0.108989
H39   H     H_    0.533619 0.634978 0.676781 0.093199
H40   H     H_    0.552358 0.357620 0.121991 0.108988
H41   H     H_    0.073737 0.372600 0.651361 0.059432
H42   H     H_    0.077274 0.624039 0.149151 0.066569
H43   H     H_    0.573737 0.872600 0.651361 0.059432
H44   H     H_    0.577275 0.124039 0.149149 0.066570
H45   H     H_    0.166207 0.190140 0.563185 0.066849
H46   H     H_    0.177385 0.802534 0.050822 0.072656
H47   H     H_    0.666208 0.690140 0.563184 0.066849
H48   H     H_    0.677384 0.302535 0.050823 0.072656
H49   H     H_    0.825254 0.801109 0.248697 0.065395
H50   H     H_    0.815710 0.201628 0.771901 0.067137
H51   H     H_    0.325255 0.301110 0.248695 0.065400
H52   H     H_    0.315710 0.701629 0.771902 0.067138
H53   H     H_    0.912643 0.617560 0.171284 0.065318
H54   H     H_    0.914435 0.381182 0.673979 0.067567
H55   H     H_    0.412640 0.117557 0.171289 0.065318
H56   H     H_    0.414435 0.881183 0.673979 0.067567
H57   H     H_    0.238161 0.344530 0.074104 0.084972
H58   H     H_    0.233634 0.656619 0.586773 0.111918
H59   H     H_    0.738160 0.844529 0.074106 0.084975
H60   H     H_    0.733634 0.156619 0.586772 0.111916
H61   H     H_    0.753145 0.648346 0.737945 0.126136
H62   H     H_    0.758894 0.348222 0.234913 0.136685
H63   H     H_    0.253145 0.148346 0.737946 0.126139
H64   H     H_    0.258895 0.848221 0.234912 0.136686
H65   H     H_    0.937841 0.119384 0.422809 0.108854
H66   H     H_    0.997606 0.866540 0.623151 0.128035
H67   H     H_    0.437840 0.619386 0.422813 0.108852
H68   H     H_    0.497603 0.366540 0.623150 0.128032
H69   H     H_    0.049149 0.208299 0.908838 0.037978
H70   H     H_    0.004368 0.750812 0.201482 -0.019285
H71   H     H_    0.549148 0.708307 0.908830 0.037965
H72   H     H_    0.504382 0.250802 0.201516 -0.019274
H73   H     H_    0.001337 0.244754 0.751913 -0.049920
H74   H     H_    0.942879 0.813857 0.169174 -0.000583
H75   H     H_    0.501331 0.744754 0.751902 -0.049926
H76   H     H_    0.442889 0.313842 0.169158 -0.000588
H77   H     H_    0.995384 0.100514 0.848559 0.112191
H78   H     H_    0.081410 0.831640 0.314741 0.120950
H79   H     H_    0.495397 0.600515 0.848567 0.112182
H80   H     H_    0.581411 0.331640 0.314767 0.120950
H81   H     H_    0.945001 0.139073 0.696161 0.108276
H82   H     H_    0.019123 0.894992 0.292654 0.104358
H83   H     H_    0.445003 0.639065 0.696173 0.108283
H84   H     H_    0.519121 0.394988 0.292657 0.104364
H85   H     H_    0.796828 0.520643 0.091744 0.022390
H86   H     H_    0.795409 0.477583 0.590883 0.016099
H87   H     H_    0.296827 0.020644 0.091744 0.022376
H88   H     H_    0.295412 0.977583 0.590884 0.016094
O1    O     O_2   0.130070 0.404060 0.104920 -0.470772
O2    O     O_2   0.130070 0.595940 0.604920 -0.460900
O3    O     O_2   0.630070 0.904060 0.104920 -0.470774
O4    O     O_2   0.630070 0.095940 0.604920 -0.460900
O5    O     O_3   0.798972 0.482112 0.347268 -0.661195
O6    O     O_3   0.799251 0.517094 0.847927 -0.659463
O7    O     O_3   0.298972 0.982113 0.347269 -0.661191
O8    O     O_3   0.299250 0.017095 0.847927 -0.659461
O9    O     O_3   0.950158 0.211529 0.953392 -0.600031
O10   O     O_3   0.961837 0.788611 0.403201 -0.615951
O11   O     O_3   0.450157 0.711529 0.953387 -0.600030
O12   O     O_3   0.461833 0.288610 0.403202 -0.615952
O13   O     O_3   0.924190 0.533610 0.949240 -0.476568
O14   O     O_3   0.924190 0.466390 0.449240 -0.479469
O15   O     O_3   0.424190 0.033610 0.949240 -0.476569
O16   O     O_3   0.424190 0.966390 0.449240 -0.479471
O17   O     O_3   0.075780 0.466370 0.861070 -0.479748
O18   O     O_3   0.075780 0.533630 0.361070 -0.498853
O19   O     O_3   0.575780 0.966370 0.861070 -0.479747
O20   O     O_3   0.575780 0.033630 0.361070 -0.498852
O21   O     O_3   0.022320 0.344950 0.359800 -0.498339
O22   O     O_3   0.022320 0.655050 0.859800 -0.501782
O23   O     O_3   0.522320 0.844950 0.359800 -0.498340
O24   O     O_3   0.522320 0.155050 0.859800 -0.501783
O25   O     O_2   0.124028 0.281668 0.257027 -0.490157
O26   O     O_2   0.132986 0.708420 0.752483 -0.493133
O27   O     O_2   0.624028 0.781668 0.257026 -0.490158
O28   O     O_2   0.632986 0.208421 0.752481 -0.493132
O29   O     O_3   0.203934 0.478871 0.971733 -0.651159
O30   O     O_3   0.210839 0.530276 0.459187 -0.673363
O31   O     O_3   0.703934 0.978872 0.971732 -0.651159
O32   O     O_3   0.710838 0.030276 0.459187 -0.673363
O33   O     O_3   0.029402 0.207032 0.356674 -0.603266
O34   O     O_3   0.050573 0.791619 0.856298 -0.642299
O35   O     O_3   0.529402 0.707032 0.356675 -0.603262
O36   O     O_3   0.550572 0.291619 0.856300 -0.642301
O37   O     O_2   0.869860 0.403670 0.205810 -0.404513
O38   O     O_2   0.869860 0.596330 0.705810 -0.408647
O39   O     O_2   0.369860 0.903670 0.205810 -0.404513
O40   O     O_2   0.369860 0.096330 0.705810 -0.408647
O41   O     O_3   0.977590 0.344880 0.951200 -0.465631
O42   O     O_3   0.977590 0.655120 0.451200 -0.462966
O43   O     O_3   0.477590 0.844880 0.951200 -0.465633
O44   O     O_3   0.477590 0.155120 0.451200 -0.462970
O45   O     O_2   0.867845 0.293071 0.071047 -0.493375
O46   O     O_2   0.875718 0.720425 0.561679 -0.507288
O47   O     O_2   0.367844 0.793071 0.071048 -0.493379
O48   O     O_2   0.375716 0.220423 0.561682 -0.507287
P1    P     P_3+3 0.136530 0.426510 0.931350 0.952283
P2    P     P_3+3 0.136530 0.573490 0.431350 0.944899
P3    P     P_3+3 0.636530 0.926510 0.931350 0.952282
P4    P     P_3+3 0.636530 0.073490 0.431350 0.944899
P5    P     P_3+3 0.863410 0.426100 0.379280 1.010450
P6    P     P_3+3 0.863410 0.573900 0.879280 1.014719
P7    P     P_3+3 0.363410 0.926100 0.379280 1.010453
P8    P     P_3+3 0.363410 0.073900 0.879280 1.014722
P9    P     P_3+3 0.913241 0.287818 0.929102 0.973495
P10   P     P_3+3 0.917593 0.714799 0.412917 0.941903
P11   P     P_3+3 0.413240 0.787819 0.929102 0.973495
P12   P     P_3+3 0.417591 0.214797 0.412919 0.941904
P13   P     P_3+3 0.084221 0.714606 0.887796 0.899321
P14   P     P_3+3 0.074798 0.278859 0.392575 0.923154
P15   P     P_3+3 0.584221 0.214606 0.887796 0.899317
P16   P     P_3+3 0.574798 0.778859 0.392575 0.923155
O49   O     O_3   0.697426 0.586981 0.033501 -0.705391
C89   C     C_3   0.631735 0.606869 0.048748 0.123794
H89   H     H_    0.604175 0.602018 0.934677 0.036274
H90   H     H_    0.632006 0.659123 0.082452 0.117783
H91   H     H_    0.606805 0.578823 0.142842 0.043348
O50   O     O_3   0.692524 0.412375 0.528644 -0.697528
C90   C     C_3   0.628557 0.398358 0.580460 0.130389
H92   H     H_    0.622363 0.344573 0.590199 0.122351
H93   H     H_    0.620802 0.419818 0.697784 0.038146
H94   H     H_    0.590016 0.417892 0.497692 0.027145
O51   O     O_3   0.197422 0.086981 0.033480 -0.705382
C91   C     C_3   0.131730 0.106856 0.048823 0.123831
H95   H     H_    0.104131 0.101975 0.934804 0.036255
H96   H     H_    0.131999 0.159117 0.082467 0.117778
H97   H     H_    0.106838 0.078822 0.143004 0.043333
O52   O     O_3   0.192529 0.912372 0.528636 -0.697530
C92   C     C_3   0.128562 0.898351 0.580449 0.130394
H98   H     H_    0.122370 0.844565 0.590173 0.122349
H99   H     H_    0.120806 0.919805 0.697778 0.038154
H100  H     H_    0.090020 0.917887 0.497686 0.027144
C93   C     C_3   0.265507 0.568408 0.866159 -0.179802
C94   C     C_3   0.218362 0.613485 0.944260 -0.325005
H101  H     H_    0.167690 0.605619 0.895421 0.158613
H102  H     H_    0.218559 0.602505 0.072077 0.070974
H103  H     H_    0.234228 0.664952 0.928542 0.107883
H104  H     H_    0.309214 0.566087 0.947385 0.101083
H105  H     H_    0.281667 0.589400 0.753375 0.065513
C95   C     C_3   0.196692 0.414908 0.444404 -0.154417
C96   C     C_3   0.244222 0.357317 0.443904 -0.469653
H106  H     H_    0.230877 0.325304 0.344330 0.160153
H107  H     H_    0.296547 0.371032 0.441437 0.125330
H108  H     H_    0.240294 0.328506 0.553056 0.129127
H109  H     H_    0.187611 0.426711 0.567855 0.038088
H110  H     H_    0.147741 0.398428 0.398434 0.127405
C97   C     C_3   0.765507 0.068407 0.866157 -0.179802
C98   C     C_3   0.718362 0.113485 0.944258 -0.325007
H111  H     H_    0.667690 0.105620 0.895419 0.158614
H112  H     H_    0.718559 0.102505 0.072075 0.070976
H113  H     H_    0.734228 0.164952 0.928540 0.107882
H114  H     H_    0.809214 0.066087 0.947384 0.101083
H115  H     H_    0.781667 0.089400 0.753373 0.065513
C99   C     C_3   0.696692 0.914907 0.444402 -0.154417
C100  C     C_3   0.744222 0.857317 0.443908 -0.469655
H116  H     H_    0.730876 0.825301 0.344340 0.160154
H117  H     H_    0.796547 0.871032 0.441432 0.125329
H118  H     H_    0.740296 0.828509 0.553066 0.129128
H119  H     H_    0.687609 0.926711 0.567853 0.038088
H120  H     H_    0.647741 0.898428 0.398430 0.127407
C101  C     C_3   0.350266 0.449179 0.879562 -0.202785
C102  C     C_3   0.405307 0.491593 0.811199 -0.459116
H121  H     H_    0.419734 0.473060 0.695358 0.136269
H122  H     H_    0.389973 0.542735 0.792665 0.135618
H123  H     H_    0.449051 0.491308 0.893420 0.124572
H124  H     H_    0.342057 0.464433 0.000307 0.130881
H125  H     H_    0.366399 0.397719 0.889690 0.105981
C103  C     C_3   0.345892 0.493885 0.378488 -0.206528
C104  C     C_3   0.407221 0.495900 0.278816 -0.471003
H126  H     H_    0.402309 0.533651 0.184957 0.139581
H127  H     H_    0.451583 0.506963 0.354473 0.130637
H128  H     H_    0.414485 0.447583 0.223649 0.137536
H129  H     H_    0.340822 0.541153 0.440209 0.139293
H130  H     H_    0.355687 0.455010 0.465601 0.119331
C105  C     C_3   0.850266 0.949179 0.879560 -0.202784
C106  C     C_3   0.905306 0.991592 0.811195 -0.459118
H131  H     H_    0.919734 0.973059 0.695356 0.136270
H132  H     H_    0.889971 0.042735 0.792659 0.135617
H133  H     H_    0.949050 0.991308 0.893417 0.124571
H134  H     H_    0.842057 0.964434 0.000306 0.130881
H135  H     H_    0.866399 0.897718 0.889688 0.105980
C107  C     C_3   0.845892 0.993885 0.378488 -0.206528
C108  C     C_3   0.907221 0.995900 0.278815 -0.471004
H136  H     H_    0.902310 0.033651 0.184957 0.139581
H137  H     H_    0.951583 0.006962 0.354473 0.130636
H138  H     H_    0.914485 0.947583 0.223647 0.137534
H139  H     H_    0.840822 0.041153 0.440209 0.139293
H140  H     H_    0.855686 0.955010 0.465601 0.119331
O53   O     O_3   0.776279 0.429684 0.013579 -0.659670
C109  C     C_3   0.747417 0.393024 0.889544 0.166986
H141  H     H_    0.692955 0.395500 0.891437 0.005739
H142  H     H_    0.761193 0.341257 0.907369 0.068877
H143  H     H_    0.766389 0.407305 0.774219 0.071178
O54   O     O_3   0.776580 0.569100 0.511355 -0.661847
C110  C     C_3   0.748954 0.606369 0.385798 0.171378
H144  H     H_    0.694591 0.599944 0.374560 0.007817
H145  H     H_    0.772779 0.595651 0.274310 0.077248
H146  H     H_    0.758505 0.658728 0.410732 0.066005
O55   O     O_3   0.276281 0.929685 0.013578 -0.659667
C111  C     C_3   0.247418 0.893023 0.889546 0.166978
H147  H     H_    0.192957 0.895498 0.891444 0.005734
H148  H     H_    0.261195 0.841257 0.907371 0.068879
H149  H     H_    0.266388 0.907305 0.774220 0.071176
O56   O     O_3   0.276581 0.069100 0.511355 -0.661841
C112  C     C_3   0.248950 0.106368 0.385803 0.171368
H150  H     H_    0.194586 0.099946 0.374585 0.007778
H151  H     H_    0.272768 0.095649 0.274307 0.077241
H152  H     H_    0.258505 0.158728 0.410731 0.066011

loop_
_geom_bond_atom_site_label_1
_geom_bond_atom_site_label_2
_ccdc_geom_bond_type
C109  H142  S    
C51   C55   A    
C74   C78   S    
O45   P9    D    
O5    P5    S    
Ba1   O18   S    
C30   C38   A    
C17   H45   S    
O9    P9    S    
C112  H152  S    
C25   C85   A    
C112  H150  S    
C64   H84   S    
C104  H126  S    
C20   H48   S    
C72   O52   S    
C80   H20   S    
C99   H119  S    
Ba4   P4    S    
C39   P8    S    
O32   P4    S    
C78   C103  S    
C109  H143  S    
C69   O49   S    
C91   H97   S    
C34   C88   A    
C96   H108  S    
Ba1   O41   S    
C5    C9    A    
C66   O5    S    
Ba3   P7    S    
C7    C11   A    
Ba4   O19   S    
C8    C12   A    
Ba1   P5    S    
C95   C96   S    
Ba2   O22   S    
C66   C70   S    
C95   H110  S    
C98   H113  S    
O54   C110  S    
C80   C107  S    
C106  H133  S    
C76   C80   S    
O36   P15   S    
C69   H9    S    
O38   P6    D    
C68   O56   S    
O49   C89   S    
C71   H11   S    
C21   C25   A    
C23   C27   A    
C24   C28   A    
O37   P5    D    
Ba1   O1    S    
C107  C108  S    
C13   C17   A    
O41   P9    S    
C11   C15   A    
C93   H104  S    
C79   H23   S    
C6    C26   A    
C12   C16   A    
C98   H111  S    
C81   H25   S    
O4    P4    D    
C14   P13   S    
O15   P8    S    
C32   C40   A    
O13   P6    S    
O24   P15   S    
C103  C104  S    
C104  H128  S    
Ba4   O16   S    
C7    P3    S    
O8    P8    S    
C9    H41   S    
C3    H31   S    
O56   C112  S    
O16   P7    S    
C72   H8    S    
C76   C99   S    
C74   H14   S    
Ba2   O13   S    
O43   P11   S    
C42   H54   S    
C3    H67   S    
C29   C57   A    
O53   C109  S    
Ba2   O38   S    
C37   C41   A    
Ba1   O13   S    
C62   H82   S    
C31   C59   A    
O20   P4    S    
C32   C60   A    
C39   C43   A    
C35   C85   A    
C33   C53   A    
C40   C44   A    
C103  H129  S    
C16   P15   S    
C36   C56   A    
C46   H70   S    
C47   H75   S    
O28   P15   D    
C30   C58   A    
C86   H58   S    
C70   H6    S    
C28   C88   A    
O35   P16   S    
C41   H53   S    
O33   P14   S    
O48   P12   D    
C71   O51   S    
C92   H98   S    
O12   P12   S    
C6    P2    S    
C105  H134  S    
C101  H124  S    
O19   P3    S    
C81   H1    S    
O2    P2    D    
C91   H96   S    
C31   C39   A    
C74   O30   S    
C45   H69   S    
C76   O32   S    
C1    C81   S    
C65   O53   S    
C41   C49   A    
C80   H24   S    
Ba4   P8    S    
C2    H66   S    
C106  H132  S    
C43   H55   S    
O11   P11   S    
O39   P7    D    
C111  H147  S    
C6    C10   A    
Ba3   P3    S    
C110  H145  S    
C90   H94   S    
O23   P16   S    
O21   P14   S    
C4    C84   S    
C82   O34   S    
C68   O7    S    
C83   H27   S    
C101  C102  S    
C71   H7    S    
Ba3   O20   S    
C47   C63   S    
C47   H71   S    
O44   P12   S    
C94   H102  S    
Ba3   O39   S    
C22   C26   A    
C27   C87   A    
O26   P13   D    
C68   H88   S    
Ba3   Ba4   S    
C12   H44   S    
O3    P3    D    
C47   O11   S    
C107  H139  S    
C17   C21   A    
C89   H89   S    
C108  H138  S    
Ba3   O43   S    
C14   C18   A    
C20   C24   A    
O52   C92   S    
C94   H103  S    
C92   H100  S    
O17   P1    S    
C76   H16   S    
C2    C82   S    
C99   H120  S    
O27   P16   D    
C96   H107  S    
Ba2   P2    S    
C1    H33   S    
C3    H35   S    
Ba3   O3    S    
O25   P14   D    
O6    P6    S    
C89   H91   S    
C24   C58   A    
C72   H12   S    
C84   H4    S    
C102  H122  S    
Ba2   O17   S    
Ba3   O23   S    
O10   P10   S    
C111  H149  S    
C26   C86   A    
Ba1   O21   S    
C90   H92   S    
C66   O54   S    
C75   O31   S    
O31   P3    S    
C97   H115  S    
C102  H121  S    
C38   P5    S    
Ba2   O42   S    
C38   C42   A    
C64   H40   S    
C65   H85   S    
C34   C54   A    
Ba2   P6    S    
C3    C83   S    
C63   H83   S    
Ba4   O40   S    
C46   H74   S    
C97   C98   S    
C65   C69   S    
C105  H135  S    
C74   C95   S    
C51   P12   S    
C84   H28   S    
C70   H10   S    
C85   H57   S    
C109  H141  S    
C108  H136  S    
C67   O55   S    
C112  H151  S    
C62   H78   S    
C104  H127  S    
C105  C106  S    
C2    H34   S    
C102  H123  S    
C40   P7    S    
C49   C53   A    
C4    H32   S    
O50   C90   S    
C29   C33   A    
C52   C56   A    
C61   H77   S    
Ba2   O14   S    
C31   C35   A    
O55   C111  S    
C45   H73   S    
C54   H50   S    
C100  H116  S    
C73   C77   S    
C35   C55   A    
C42   C50   A    
O30   P2    S    
C100  H118  S    
C75   H15   S    
C82   H26   S    
C97   H114  S    
C15   P16   S    
C48   H72   S    
C77   H17   S    
C13   P14   S    
C1    H65   S    
C79   H19   S    
O14   P5    S    
C4    H68   S    
C103  H130  S    
C50   P9    S    
C111  H148  S    
C61   H37   S    
C9    C13   A    
C18   H46   S    
Ba3   O16   S    
C53   H49   S    
C29   C37   A    
C73   H13   S    
Ba1   O14   S    
C93   H105  S    
C110  H144  S    
C56   H52   S    
C75   C79   S    
C64   H80   S    
C73   C93   S    
C46   O10   S    
Ba3   O15   S    
C90   H93   S    
C11   H43   S    
C75   C97   S    
C18   C22   A    
C77   H21   S    
C83   O35   S    
Ba1   O37   S    
C36   C86   A    
C65   O6    S    
Ba4   O15   S    
C87   H59   S    
C95   H109  S    
O46   P10   D    
C10   C14   A    
C52   P11   S    
C15   C19   A    
C67   O8    S    
C68   C72   S    
C69   H5    S    
C45   C61   S    
O34   P13   S    
C78   H18   S    
C19   H47   S    
C98   H112  S    
C21   C59   A    
C99   C100  S    
Ba4   O24   S    
C45   O9    S    
C37   P6    S    
C1    H29   S    
C5    P1    S    
Ba1   Ba2   S    
C48   O12   S    
C67   H87   S    
C22   C60   A    
C77   C101  S    
C82   H2    S    
C16   C20   A    
O1    P1    D    
C88   H60   S    
C19   C23   A    
C23   C57   A    
C93   C94   S    
C48   C64   S    
C73   O29   S    
C100  H117  S    
C7    C27   A    
C8    C28   A    
C70   O50   S    
C4    H36   S    
C8    P4    S    
C107  H140  S    
C89   H90   S    
C108  H137  S    
Ba2   O2    S    
C33   C87   A    
C32   C36   A    
C78   H22   S    
C92   H99   S    
C66   H86   S    
C10   H42   S    
C63   H79   S    
Ba4   O44   S    
O22   P13   S    
O42   P10   S    
C58   H62   S    
C83   H3    S    
C101  H125  S    
C81   O33   S    
C79   C105  S    
C91   H95   S    
C96   H106  S    
O29   P1    S    
Ba4   O4    S    
C46   C62   S    
O47   P11   D    
C2    H30   S    
O51   C91   S    
C106  H131  S    
C43   C51   A    
C50   C54   A    
C44   C52   A    
C84   O36   S    
C61   H81   S    
C30   C34   A    
O40   P8    D    
C63   H39   S    
C57   H61   S    
C49   P10   S    
C110  H146  S    
O18   P2    S    
C5    C25   A    
C60   H64   S    
C59   H63   S    
C48   H76   S    
C67   C71   S    
C44   H56   S    
C94   H101  S    
C55   H51   S    
Ba1   P1    S    
O7    P7    S    
C62   H38   S    
