data_mof_unit_36487.cif
_audit_creation_date              2013-03-05T15:43:42-0500
_audit_creation_method            fapswitch 2.2
_symmetry_space_group_name_H-M    P1
_symmetry_Int_Tables_number       1
_space_group_crystal_system       triclinic
_cell_length_a                    14.94741
_cell_length_b                    10.664238
_cell_length_c                    10.074658
_cell_angle_alpha                 92.899984
_cell_angle_beta                  90.7148
_cell_angle_gamma                 90.367773
_cell_volume                      1603.70669318

loop_
_atom_site_label
_atom_site_type_symbol
_atom_site_description
_atom_site_fract_x
_atom_site_fract_y
_atom_site_fract_z
_atom_type_partial_charge
O1    O     O_R   0.499990 0.319060 0.613040 -0.604770
O2    O     O_R   0.500010 0.319100 0.386900 -0.566334
C1    C     C_R   0.500630 0.262591 0.496359 0.952509
O3    O     O_R   0.367830 0.499950 0.613080 -0.607103
O4    O     O_R   0.367860 0.499990 0.386940 -0.540284
C2    C     C_R   0.327027 0.503365 0.499513 0.922513
Zn1   Zn    Zn3+2 0.499980 0.499970 0.650990 1.091376
Zn2   Zn    Zn3+2 0.500020 0.500030 0.349010 1.122018
O5    O     O_R   0.499990 0.680900 0.613100 -0.548324
O6    O     O_R   0.500010 0.680940 0.386960 -0.623380
O7    O     O_R   0.632140 0.500010 0.613060 -0.593677
O8    O     O_R   0.632170 0.500050 0.386920 -0.622443
C3    C     C_R   0.505855 0.737785 0.503679 0.897256
C4    C     C_R   0.672795 0.500688 0.500799 0.912119
C5    C     C_R   0.811887 0.588576 0.424714 -0.192276
C6    C     C_R   0.768017 0.504309 0.502830 -0.025823
C7    C     C_R   0.814633 0.425089 0.584149 -0.134005
C8    C     C_R   0.907308 0.427108 0.584915 0.053174
C9    C     C_R   0.952863 0.512168 0.506173 0.093046
C10   C     C_R   0.904453 0.594592 0.427740 0.077361
C11   C     C_R   0.954468 0.344268 0.661784 -0.220352
C12   C     C_R   0.047506 0.342098 0.659661 0.312105
C13   C     C_R   0.093700 0.428473 0.582570 0.016862
C14   C     C_R   0.046254 0.514484 0.505599 -0.024991
C15   C     C_R   0.091820 0.602750 0.428470 -0.087540
C16   C     C_R   0.041442 0.693746 0.361432 0.314817
C17   C     C_R   0.948535 0.684587 0.357115 -0.229157
C18   C     C_R   0.186219 0.432559 0.582695 -0.174104
C19   C     C_R   0.231199 0.511163 0.499922 -0.172970
C20   C     C_R   0.185670 0.595408 0.420692 0.278411
H1    H     H_    0.918785 0.278157 0.720472 0.202647
H2    H     H_    0.224743 0.372289 0.644749 0.213537
C21   C     C_2   0.550309 0.928185 0.404838 -0.304719
C22   C     C_2   0.530784 0.868337 0.515128 0.082355
C23   C     C_2   0.558674 0.064082 0.409054 0.364944
C24   C     C_2   0.500543 0.129765 0.485678 -0.322031
C25   C     C_2   0.540333 0.585655 0.931146 0.337776
N1    N     N_2   0.500970 0.501330 0.852150 -0.212923
H3    H     H_    0.487246 0.415908 0.890604 0.192789
C26   C     C_2   0.551530 0.570422 0.077899 -0.103496
N2    N     N_2   0.500990 0.501360 0.147810 -0.024400
H4    H     H_    0.605639 0.622224 0.128832 0.150604
H5    H     H_    0.773691 0.651226 0.364395 0.154492
N3    N     N_R   0.542140 0.927546 0.646329 0.230835
O9    O     O_R   0.479536 0.918327 0.733966 -0.277541
O10   O     O_R   0.615339 0.989092 0.678697 -0.305808
N4    N     N_R   0.627267 0.121481 0.332572 0.238231
O11   O     O_R   0.655777 0.063757 0.224503 -0.308373
O12   O     O_R   0.672531 0.217635 0.382477 -0.391279
H6    H     H_    0.448232 0.084245 0.539995 0.174416
N5    N     N_R   0.578121 0.696869 0.879876 0.243806
O13   O     O_R   0.569847 0.803047 0.947933 -0.282576
O14   O     O_R   0.640610 0.687205 0.791608 -0.340206
N6    N     N_R   0.416899 0.467923 0.095607 0.276172
O15   O     O_R   0.381535 0.361627 0.126028 -0.301682
O16   O     O_R   0.365320 0.552452 0.046411 -0.297198
H7    H     H_    0.778589 0.360180 0.643997 0.172465
N7    N     N_R   0.093413 0.249335 0.732990 0.217083
O17   O     O_R   0.148673 0.172614 0.672503 -0.317489
O18   O     O_R   0.067016 0.225134 0.851667 -0.295661
N8    N     N_R   0.234654 0.667621 0.329075 0.241627
O19   O     O_R   0.297339 0.745332 0.371800 -0.333230
O20   O     O_R   0.219396 0.651112 0.201965 -0.253150
N9    N     N_R   0.081781 0.802521 0.308270 0.246397
O21   O     O_R   0.128385 0.879505 0.386466 -0.277023
O22   O     O_R   0.055908 0.839073 0.192706 -0.283198
H8    H     H_    0.910330 0.752382 0.303590 0.199721
H9    H     H_    0.553704 0.878513 0.308169 0.216049

loop_
_geom_bond_atom_site_label_1
_geom_bond_atom_site_label_2
_geom_bond_distance
_ccdc_geom_bond_type
C12   N7    1.437107 S    
O4    Zn2   2.016748 S    
C13   C14   1.418527 A    
C14   C15   1.425729 A    
C19   C20   1.405093 A    
C10   C17   1.390747 A    
C8    C11   1.393095 A    
N6    O15   1.299932 A    
N4    O11   1.301175 A    
C21   C22   1.343356 D    
Zn2   O8    2.007197 S    
C23   N4    1.441863 S    
N9    O21   1.301306 A    
C26   H4    1.085295 S    
C7    C8    1.385198 A    
N7    O17   1.301461 A    
C5    H5    1.085793 S    
C3    C22   1.437535 S    
N4    O12   1.300943 A    
O1    Zn1   1.947722 S    
C11   C12   1.391436 A    
N3    O9    1.301187 A    
Zn1   O7    2.016745 S    
C11   H1    1.084591 S    
N9    O22   1.301407 A    
C16   C17   1.391502 A    
C25   N1    1.302827 D    
C1    C24   1.415128 S    
O3    Zn1   2.007200 S    
O4    C2    1.293637 A    
O3    C2    1.292077 A    
C18   C19   1.388371 A    
C21   C23   1.452261 S    
Zn1   N1    2.025804 S    
O8    C4    1.291061 A    
O2    C1    1.283111 A    
C25   C26   1.502928 S    
N6    O16   1.302782 A    
N8    O19   1.301475 A    
C25   N5    1.432869 S    
O7    C4    1.290893 A    
C4    C6    1.423455 S    
N2    N6    1.393708 S    
C17   H8    1.084749 S    
C5    C6    1.390601 A    
N7    O18   1.301338 A    
N5    O13   1.301117 A    
C6    C7    1.390611 A    
C18   H2    1.082566 S    
C2    C19   1.435374 S    
C24   H6    1.085899 S    
Zn2   N2    2.028020 S    
Zn2   O6    1.947721 S    
C8    C9    1.412145 A    
C20   N8    1.436192 S    
C7    H7    1.085588 S    
C15   C20   1.408433 A    
Zn1   O5    1.985734 S    
C22   N3    1.443339 S    
C16   N9    1.434564 S    
C12   C13   1.416339 A    
C26   N2    1.291441 D    
O5    C3    1.288531 A    
N5    O14   1.298677 A    
C15   C16   1.424036 A    
C13   C18   1.383309 A    
C9    C14   1.396115 A    
O6    C3    1.297116 A    
N8    O20   1.300890 A    
O2    Zn2   1.985732 S    
C9    C10   1.408825 A    
C21   H9    1.086751 S    
N3    O10   1.301715 A    
C5    C10   1.384589 A    
O1    C1    1.293564 A    
C23   C24   1.345889 D    
N1    H3    1.028254 S    
