data_mof_unit_46341.cif
_audit_creation_date              2012-12-11T14:36:16-0500
_audit_creation_method            fapswitch 2.2
_symmetry_space_group_name_H-M    P1
_symmetry_Int_Tables_number       1
_space_group_crystal_system       triclinic
_cell_length_a                    13.475726
_cell_length_b                    13.492588
_cell_length_c                    27.51455
_cell_angle_alpha                 90.58198
_cell_angle_beta                  90.054936
_cell_angle_gamma                 60.060985
_cell_volume                      4334.90658909

loop_
_atom_site_label
_atom_site_type_symbol
_atom_type_description
_atom_site_fract_x
_atom_site_fract_y
_atom_site_fract_z
_atom_type_partial_charge
C1    C     C_R   0.620193 0.101211 0.570272 0.545429
C2    C     C_1   0.630924 0.732517 0.616528 -0.013595
C3    C     C_3   0.699544 0.561419 0.767988 -0.101572
C4    C     C_3   0.679204 0.655045 0.805566 0.052543
C5    C     C_3   0.590080 0.648597 0.740950 -0.098965
C6    C     C_3   0.663111 0.683976 0.710894 0.052565
C7    C     C_3   0.569952 0.741767 0.779250 -0.101825
C8    C     C_3   0.642785 0.777615 0.748463 -0.103165
C9    C     C_1   0.688082 0.634160 0.857940 -0.058397
C10   C     C_1   0.649199 0.705429 0.658577 -0.057244
C11   C     C_3   0.092259 0.131660 0.738353 -0.101253
C12   C     C_R   0.599607 0.779612 0.568820 0.545100
C13   C     C_3   0.184551 0.059940 0.776606 -0.100177
C14   C     C_1   0.096645 0.201759 0.901768 -0.015219
C15   C     C_1   0.230147 0.137660 0.617727 -0.014068
C16   C     C_3   0.054567 0.240923 0.769674 -0.101504
C17   C     C_3   0.147283 0.169028 0.807086 0.052533
C18   C     C_3   0.142095 0.263663 0.742876 -0.098864
C19   C     C_3   0.179390 0.154690 0.712316 0.052470
C20   C     C_3   0.234345 0.192030 0.780981 -0.101538
C21   C     C_3   0.272137 0.082755 0.749706 -0.103120
C22   C     C_1   0.124421 0.182571 0.859554 -0.057963
C23   C     C_R   0.277938 0.121693 0.569770 0.544686
C24   C     C_1   0.202272 0.146661 0.659892 -0.057352
C25   C     C_3   0.628860 0.277086 0.739776 -0.101246
C26   C     C_3   0.554876 0.258762 0.777867 -0.099746
C27   C     C_1   0.691342 0.208259 0.902875 -0.014691
C28   C     C_1   0.635394 0.133132 0.618441 -0.013875
C29   C     C_3   0.736989 0.204874 0.770853 -0.101602
C30   C     C_3   0.662852 0.186282 0.808119 0.052615
C31   C     C_3   0.758670 0.094865 0.743570 -0.099105
C32   C     C_3   0.650786 0.167227 0.713254 0.052416
C33   C     C_3   0.684769 0.076490 0.781546 -0.101892
C34   C     C_R   0.622977 0.100255 0.431664 0.545090
C35   C     C_3   0.576613 0.148636 0.750496 -0.103169
C36   C     C_1   0.674497 0.197214 0.860631 -0.057734
C37   C     C_1   0.643734 0.152069 0.660735 -0.057406
C38   C     C_R   0.736111 0.699927 0.359866 -0.126643
C39   C     C_R   0.748509 0.679843 0.309708 0.010392
C40   C     C_R   0.764062 0.656594 0.208270 0.004234
C41   C     C_R   0.855023 0.651453 0.235104 -0.106985
C42   C     C_R   0.846791 0.664172 0.285529 -0.094814
C43   C     C_R   0.774710 0.637043 0.158226 -0.130347
C44   C     C_R   0.685023 0.637788 0.132260 -0.007739
C45   C     C_R   0.601985 0.775451 0.430449 0.546591
C46   C     C_R   0.554025 0.703762 0.357102 -0.114369
C47   C     C_R   0.561510 0.691534 0.306980 -0.004688
C48   C     C_R   0.658059 0.681386 0.282947 0.054029
C49   C     C_R   0.470166 0.696351 0.280821 -0.089063
C50   C     C_R   0.471057 0.694529 0.229818 0.014805
C51   C     C_R   0.569644 0.682683 0.205526 0.014805
C52   C     C_R   0.663614 0.674056 0.232241 0.049461
C53   C     C_R   0.579843 0.672256 0.155054 -0.131315
C54   C     C_R   0.635928 0.717828 0.383123 -0.005410
C55   C     C_R   0.191518 0.072357 0.360640 -0.130366
C56   C     C_R   0.277520 0.121451 0.431113 0.546099
C57   C     C_R   0.161587 0.088112 0.311393 0.021035
C58   C     C_R   0.121117 0.109980 0.210929 0.013211
C59   C     C_R   0.112722 0.025465 0.236868 -0.123638
C60   C     C_R   0.134030 0.013874 0.286772 -0.120075
C61   C     C_R   0.099343 0.122396 0.161214 -0.133849
C62   C     C_R   0.101860 0.211186 0.136113 -0.019555
C63   C     C_R   0.206032 0.244805 0.359820 -0.119054
C64   C     C_R   0.184225 0.256936 0.310533 -0.039038
C65   C     C_R   0.163654 0.177501 0.285824 0.051811
C66   C     C_R   0.188812 0.344156 0.285428 -0.085042
C67   C     C_3   0.772454 0.597189 0.737151 -0.101039
C68   C     C_R   0.176067 0.351800 0.235252 0.229260
C69   C     C_R   0.154205 0.273361 0.209900 0.020833
C70   C     C_R   0.146601 0.186779 0.235495 0.027923
C71   C     C_R   0.134762 0.282271 0.160007 -0.105071
C72   C     C_R   0.218322 0.148316 0.384354 -0.000973
C73   C     C_R   0.565035 0.238954 0.363994 -0.104995
C74   C     C_R   0.573050 0.258337 0.314578 0.027809
C75   C     C_R   0.584460 0.285737 0.213744 -0.013811
C76   C     C_R   0.497649 0.372948 0.241801 -0.065937
C77   C     C_R   0.490756 0.359694 0.291839 0.233471
C78   C     C_3   0.752355 0.690402 0.775582 -0.100078
C79   C     C_R   0.594443 0.300426 0.163950 -0.119073
C80   C     C_R   0.683507 0.212442 0.136795 0.003854
C81   C     C_R   0.742486 0.057331 0.358495 -0.100737
C82   C     C_R   0.749946 0.071246 0.308916 0.027932
C83   C     C_R   0.663277 0.171425 0.286640 -0.010154
C84   C     C_R   0.838823 0.984760 0.280624 0.227039
C85   C     C_R   0.837851 0.995866 0.230499 -0.096686
C86   C     C_R   0.752551 0.094442 0.208324 -0.020852
C87   C     C_R   0.666441 0.183860 0.236247 0.036900
C88   C     C_R   0.756536 0.107130 0.158682 -0.123354
C89   C     C_1   0.697072 0.608150 0.900131 -0.015474
C90   C     C_R   0.646605 0.136434 0.385245 -0.035525
C91   C     C_R   0.049111 0.236378 0.949716 0.545594
C92   C     C_R   0.711557 0.563012 0.948168 0.544007
C93   C     C_R   0.722174 0.225605 0.950854 0.545903
C94   C     C_R   0.047499 0.245347 0.088604 0.546502
C95   C     C_R   0.707531 0.575821 0.086108 0.545522
C96   C     C_R   0.718939 0.234065 0.089632 0.546321
Cr1   Cr    Cr6+3 0.417550 0.169090 0.500530 1.040359
Cr2   Cr    Cr6+3 0.669180 0.913420 0.499920 1.039751
Cr3   Cr    Cr6+3 0.413260 0.917540 0.499520 1.037227
Cr4   Cr    Cr6+3 0.909170 0.177380 0.020380 1.022780
Cr5   Cr    Cr6+3 0.912710 0.429210 0.018220 1.033722
Cr6   Cr    Cr6+3 0.657170 0.432570 0.019030 1.027824
H1    H     H_    0.818696 0.708028 0.790430 0.104769
H2    H     H_    0.293029 0.216431 0.798903 0.104003
H3    H     H_    0.124160 0.347586 0.728514 0.105123
H4    H     H_    0.964688 0.306368 0.778433 0.098907
H5    H     H_    0.470971 0.325818 0.792533 0.105067
H6    H     H_    0.606352 0.359329 0.722172 0.103811
H7    H     H_    0.510345 0.125417 0.741546 0.100275
H8    H     H_    0.707343 0.994187 0.799114 0.103768
H9    H     H_    0.842643 0.027780 0.728963 0.105176
H10   H     H_    0.803335 0.228000 0.779775 0.099215
H11   H     H_    0.855537 0.612591 0.140350 0.140623
H12   H     H_    0.855452 0.537526 0.719371 0.104104
H13   H     H_    0.800472 0.708797 0.380034 0.142266
H14   H     H_    0.932381 0.637699 0.217070 0.178880
H15   H     H_    0.917371 0.661126 0.305637 0.185816
H16   H     H_    0.510178 0.678329 0.133369 0.129621
H17   H     H_    0.397520 0.704234 0.300843 0.153105
H18   H     H_    0.477534 0.714598 0.375039 0.153096
H19   H     H_    0.073673 0.067354 0.142810 0.127968
H20   H     H_    0.198923 0.999008 0.379672 0.129991
H21   H     H_    0.090170 0.968134 0.218456 0.119883
H22   H     H_    0.619364 0.866902 0.739827 0.100450
H23   H     H_    0.129011 0.947113 0.306202 0.162425
H24   H     H_    0.136961 0.349878 0.140084 0.193962
H25   H     H_    0.204934 0.405064 0.304724 0.200785
H26   H     H_    0.223779 0.306042 0.377912 0.157897
H27   H     H_    0.537512 0.381782 0.147171 0.128917
H28   H     H_    0.492480 0.299881 0.385502 0.188893
H29   H     H_    0.434872 0.451145 0.224691 0.161980
H30   H     H_    0.824377 0.037613 0.137893 0.131053
H31   H     H_    0.486893 0.801430 0.796990 0.103590
H32   H     H_    0.905687 0.928372 0.208931 0.135075
H33   H     H_    0.806231 0.979572 0.375599 0.200524
H34   H     H_    0.523694 0.630945 0.726168 0.105454
H35   H     H_    0.722875 0.472155 0.776618 0.098775
H36   H     H_    0.202446 0.976099 0.791040 0.104604
H37   H     H_    0.033573 0.107330 0.720387 0.104180
H38   H     H_    0.362036 0.017406 0.740919 0.100077
O1    O     O_R   0.301710 0.195650 0.554160 -0.505438
O2    O     O_R   0.658900 0.818120 0.449760 -0.497370
O3    O     O_R   0.503220 0.801620 0.445520 -0.517305
O4    O     O_R   0.319370 0.022040 0.450020 -0.497806
O5    O     O_3   0.499990 0.000010 0.499990 -0.251098
O6    O     O_R   0.818720 0.150820 0.967160 -0.506885
O7    O     O_R   0.006410 0.181720 0.970200 -0.495416
O8    O     O_R   0.027890 0.334070 0.964920 -0.505323
O9    O     O_R   0.809600 0.521790 0.967960 -0.495505
O10   O     O_R   0.635520 0.542770 0.964420 -0.507565
O11   O     O_R   0.665950 0.325030 0.970100 -0.493934
O12   O     O_R   0.522390 0.158990 0.550460 -0.494171
O13   O     O_R   0.816620 0.158530 0.074540 -0.524245
O14   O     O_R   0.004460 0.188870 0.069750 -0.502421
O15   O     O_R   0.025800 0.341780 0.072300 -0.515220
O16   O     O_R   0.807650 0.528950 0.067500 -0.499200
O17   O     O_R   0.633420 0.550490 0.071810 -0.522250
O18   O     O_R   0.664000 0.332180 0.069640 -0.497735
O19   O     O_3   0.826350 0.346390 0.019210 -0.246599
O20   O     O_R   0.694390 0.003530 0.554040 -0.505356
O21   O     O_R   0.657700 0.819660 0.549320 -0.495395
O22   O     O_R   0.501930 0.803280 0.552920 -0.504796
O23   O     O_R   0.318170 0.023580 0.549580 -0.494735
O24   O     O_R   0.303010 0.193990 0.446760 -0.517535
O25   O     O_R   0.523600 0.157450 0.450900 -0.497839
O26   O     O_R   0.695690 0.001860 0.446640 -0.513682
C97   C     C_3   0.370108 0.703080 0.200831 -0.302208
C98   C     C_3   0.269150 0.712671 0.230046 -0.394156
H39   H     H_    0.295535 0.634576 0.251422 0.236470
H40   H     H_    0.233885 0.787580 0.254791 0.159735
H41   H     H_    0.200262 0.723125 0.204823 0.178062
H42   H     H_    0.336386 0.779498 0.177248 0.145778
H43   H     H_    0.401481 0.625872 0.177164 0.146450
Cl1   Cl    Cl    0.187727 0.461508 0.206143 -0.677396
Cl2   Cl    Cl    0.378999 0.472958 0.324867 -0.674536
Cl3   Cl    Cl    0.953033 0.860447 0.305937 -0.687902

loop_
_geom_bond_atom_site_label_1
_geom_bond_atom_site_label_2
_ccdc_geom_bond_type
Cr4   O13   S    
C5    H34   S    
C66   C68   A    
Cr5   O8    S    
C40   C41   A    
C41   C42   A    
C29   H10   S    
C96   O18   A    
C74   C83   A    
C43   C44   A    
C2    C12   S    
Cr6   O18   S    
C91   O7    A    
C81   C82   A    
C7    C8    S    
C47   C49   A    
C49   H17   S    
C85   C86   A    
C11   C19   S    
C20   C21   S    
C84   Cl3   S    
Cr3   O3    S    
C60   H23   S    
C19   C21   S    
C67   H12   S    
C73   C90   A    
C18   C19   S    
C5    C6    S    
C76   H29   S    
C86   C88   A    
Cr5   O15   S    
Cr4   O7    S    
C65   C70   A    
C79   H27   S    
C17   C20   S    
C58   C70   A    
C66   H25   S    
C1    O12   A    
C61   H19   S    
C95   O16   A    
C73   C74   A    
C69   C71   A    
C11   H37   S    
C12   O21   A    
C73   H28   S    
C44   C53   A    
C40   C43   A    
C96   O13   A    
Cr4   O6    S    
C16   C17   S    
C56   C72   S    
C74   C77   A    
C1    C28   S    
C31   C33   S    
C71   H24   S    
C3    H35   S    
C80   C96   S    
C34   O25   A    
C55   C72   A    
C35   H7    S    
C16   H4    S    
C85   H32   S    
C97   H43   S    
Cr6   O11   S    
C15   C23   S    
C25   C32   S    
C98   H40   S    
Cr3   O5    S    
C55   H20   S    
C59   C60   A    
C77   Cl2   S    
C95   O17   A    
Cr2   O2    S    
C8    C78   S    
C61   C62   A    
C67   C78   S    
C1    O20   A    
C4    C7    S    
Cr6   O17   S    
C91   O8    A    
C59   H21   S    
C81   H33   S    
C39   C42   A    
C23   O23   A    
C98   H41   S    
C25   C29   S    
C46   H18   S    
C51   C52   A    
C32   C35   S    
Cr3   O4    S    
C76   C77   A    
C9    C89   T    
C97   C98   S    
C5    C7    S    
C68   Cl1   S    
C53   H16   S    
C8    H22   S    
C57   C60   A    
C6    C8    S    
Cr5   O16   S    
C58   C59   A    
C40   C52   A    
Cr6   O19   S    
C63   C64   A    
C51   C53   A    
C64   C66   A    
C26   H5    S    
C75   C76   A    
C34   C90   S    
C4    C78   S    
C29   C30   S    
Cr3   O22   S    
C11   C16   S    
C47   C48   A    
C38   C54   A    
C94   O14   A    
Cr1   O24   S    
C46   C54   A    
C50   C51   A    
C94   O15   A    
C13   C21   S    
C93   O6    A    
C16   C18   S    
C32   C37   S    
C84   C85   A    
C89   C92   S    
Cr1   O1    S    
Cr2   O26   S    
Cr6   O10   S    
Cr3   O23   S    
C81   C90   A    
C75   C87   A    
C98   H39   S    
Cr2   O20   S    
C45   C54   S    
C26   C30   S    
C82   C84   A    
C62   C94   S    
C92   O10   A    
C45   O2    A    
C49   C50   A    
C27   C93   S    
C88   H30   S    
C41   H14   S    
C3    C4    S    
C2    C10   T    
C50   C97   S    
Cr2   O21   S    
Cr4   O14   S    
C46   C47   A    
C15   C24   T    
C30   C33   S    
C78   H1    S    
C86   C87   A    
Cr1   O5    S    
C68   C69   A    
C31   C32   S    
C3    C67   S    
C63   H26   S    
C57   C65   A    
C3    C5    S    
C83   C87   A    
C6    C10   S    
C42   H15   S    
C7    H31   S    
C97   H42   S    
C20   H2    S    
Cr2   O5    S    
C30   C36   S    
C27   C36   T    
C56   O24   A    
C17   C22   S    
C13   C17   S    
C64   C65   A    
C14   C22   T    
C55   C57   A    
C19   C24   S    
C25   C26   S    
C18   H3    S    
C80   C88   A    
C44   C95   S    
C6    C67   S    
C13   H36   S    
C38   H13   S    
C11   C13   S    
Cr4   O19   S    
C38   C39   A    
C28   C37   T    
C58   C61   A    
Cr1   O25   S    
Cr5   O9    S    
C33   C35   S    
Cr1   O12   S    
C62   C71   A    
C18   C20   S    
C69   C70   A    
C14   C91   S    
C93   O11   A    
C12   O22   A    
C79   C80   A    
C56   O4    A    
C26   C35   S    
C48   C52   A    
C63   C72   A    
Cr5   O19   S    
C29   C31   S    
C82   C83   A    
C92   O9    A    
C45   O3    A    
C31   H9    S    
C23   O1    A    
C33   H8    S    
C21   H38   S    
C4    C9    S    
C34   O26   A    
C75   C79   A    
C43   H11   S    
C25   H6    S    
C39   C48   A    
