data_mof_unit_17606.cif
_audit_creation_date              2012-12-10T17:15:49-0500
_audit_creation_method            fapswitch 2.2
_symmetry_space_group_name_H-M    P1
_symmetry_Int_Tables_number       1
_space_group_crystal_system       triclinic
_cell_length_a                    10.283142
_cell_length_b                    10.617521
_cell_length_c                    10.622124
_cell_angle_alpha                 91.449383
_cell_angle_beta                  94.255917
_cell_angle_gamma                 81.068274
_cell_volume                      1142.40541924

loop_
_atom_site_label
_atom_site_type_symbol
_atom_type_description
_atom_site_fract_x
_atom_site_fract_y
_atom_site_fract_z
_atom_type_partial_charge
C1    C     C_R   0.445909 0.502238 0.266509 0.914571
C2    C     C_2   0.505320 0.406270 0.933849 0.084105
C3    C     C_2   0.077081 0.488254 0.483258 0.225104
C4    C     C_R   0.504146 0.261206 0.519082 0.870092
C5    C     C_2   0.932362 0.508553 0.505455 -0.030696
C6    C     C_R   0.554528 0.486716 0.733327 0.846476
C7    C     C_R   0.497948 0.740619 0.490557 0.906100
C8    C     C_R   0.756623 0.070507 0.558048 0.196776
C9    C     C_R   0.862916 0.000652 0.499408 -0.360189
C10   C     C_R   0.843003 0.903011 0.410227 0.538708
C11   C     C_R   0.715495 0.869291 0.390351 0.082636
C12   C     C_R   0.627232 0.043116 0.526780 0.017372
C13   C     C_R   0.612655 0.927946 0.465129 -0.032613
C14   C     C_3   0.269754 0.149108 0.621426 -0.902146
C15   C     C_3   0.126292 0.400064 0.376937 -0.726326
C16   C     C_3   0.863223 0.342672 0.360138 -0.596927
C17   C     C_3   0.787213 0.162307 0.663093 -0.840982
C18   C     C_3   0.070308 0.841108 0.390531 -0.295834
C19   C     C_3   0.688663 0.783751 0.278291 -0.695027
C20   C     C_3   0.406146 0.327759 0.874731 -0.957197
C21   C     C_3   0.802868 0.441858 0.930778 -0.340458
C22   C     C_R   0.510258 0.127433 0.549682 -0.137412
C23   C     C_R   0.392356 0.078041 0.566200 0.207504
C24   C     C_R   0.388675 0.952333 0.534905 -0.233900
C25   C     C_R   0.496828 0.876533 0.485491 -0.141646
C26   C     C_2   0.419912 0.479661 0.132684 -0.381986
C27   C     C_2   0.517904 0.415590 0.069672 -0.063622
C28   C     C_2   0.584522 0.466293 0.867887 0.334371
H1    H     H_    0.323683 0.513801 0.085987 0.162878
H2    H     H_    0.107011 0.302652 0.390163 0.183089
H3    H     H_    0.085791 0.441098 0.284639 0.201546
H4    H     H_    0.230080 0.377797 0.369476 0.285268
H5    H     H_    0.766817 0.315453 0.327831 0.241641
H6    H     H_    0.901094 0.370066 0.271778 0.181391
H7    H     H_    0.918549 0.256406 0.406852 0.181177
H8    H     H_    0.859363 0.111383 0.734656 0.219934
H9    H     H_    0.831381 0.241208 0.625356 0.257257
H10   H     H_    0.698407 0.202561 0.712500 0.214430
H11   H     H_    0.079669 0.814633 0.491851 0.149507
H12   H     H_    0.898918 0.582028 0.573744 0.110700
H13   H     H_    0.102256 0.934940 0.377538 0.157888
H14   H     H_    0.138219 0.768473 0.340596 0.215897
H15   H     H_    0.746624 0.687151 0.292032 0.268608
H16   H     H_    0.582416 0.776071 0.261299 0.198203
H17   H     H_    0.718550 0.824277 0.191466 0.236623
H18   H     H_    0.370041 0.270311 0.946957 0.255810
H19   H     H_    0.319053 0.390102 0.830572 0.264802
H20   H     H_    0.454374 0.260344 0.804646 0.231684
H21   H     H_    0.838030 0.426921 0.834274 0.184125
H22   H     H_    0.795551 0.348482 0.973011 0.146024
H23   H     H_    0.118112 0.610613 0.621712 0.124272
H24   H     H_    0.878415 0.485058 0.989795 0.197857
H25   H     H_    0.959763 0.026606 0.521605 0.153177
H26   H     H_    0.300723 0.913095 0.553052 0.169484
H27   H     H_    0.614124 0.380837 0.116046 0.165731
H28   H     H_    0.244230 0.094181 0.701310 0.228816
H29   H     H_    0.279514 0.244346 0.660491 0.274165
H30   H     H_    0.185721 0.157566 0.548890 0.228840
N1    N     N_2   0.157290 0.551390 0.551110 -0.214774
N2    N     N_2   0.842740 0.448550 0.448960 -0.065707
O1    O     O_R   0.568950 0.489660 0.307530 -0.607389
O2    O     O_3   0.682346 0.526097 0.929586 -0.605703
O3    O     O_R   0.348880 0.522640 0.340350 -0.624540
O4    O     O_R   0.610060 0.300270 0.483590 -0.610726
O5    O     O_R   0.389990 0.333260 0.516410 -0.623546
O6    O     O_R   0.651120 0.477360 0.659650 -0.611530
O7    O     O_R   0.431050 0.510340 0.692470 -0.615498
O8    O     O_R   0.610010 0.666740 0.483590 -0.596167
O9    O     O_R   0.389940 0.699730 0.516410 -0.623274
O10   O     O_3   0.940988 0.841063 0.336005 -0.612925
Zn1   Zn    Zn3+2 0.646940 0.477980 0.478090 0.927859
Zn2   Zn    Zn3+2 0.353060 0.522020 0.521910 0.906242

loop_
_geom_bond_atom_site_label_1
_geom_bond_atom_site_label_2
_ccdc_geom_bond_type
C14   C23   S    
C18   O10   S    
O9    Zn2   S    
C14   H28   S    
C18   H11   S    
C19   H17   S    
C7    O9    A    
C2    C27   S    
C17   H8    S    
C6    C28   S    
C16   H5    S    
O5    Zn2   S    
C4    C22   S    
C9    C10   A    
C4    O4    A    
C8    C17   S    
C7    C25   S    
N1    Zn2   S    
C8    C12   A    
C13   C25   A    
O1    Zn1   S    
C21   H21   S    
C21   O2    S    
C3    C15   S    
C15   H4    S    
C17   H9    S    
C19   H16   S    
C15   H3    S    
C12   C13   A    
C11   C13   A    
C11   C19   S    
C26   C27   D    
C20   H20   S    
C26   H1    S    
O8    Zn1   S    
C10   O10   S    
C6    O7    A    
C19   H15   S    
C21   H22   S    
C17   H10   S    
C18   H14   S    
C16   H7    S    
C4    O5    A    
C14   H30   S    
C27   H27   S    
O3    Zn2   S    
O4    Zn1   S    
C20   H19   S    
C9    H25   S    
C10   C11   A    
N2    Zn1   S    
C23   C24   A    
C24   H26   S    
C12   C22   A    
C6    O6    A    
H23   N1    S    
C24   C25   A    
C15   H2    S    
O7    Zn2   S    
C16   N2    S    
C18   H13   S    
C14   H29   S    
C22   C23   A    
C1    O3    A    
C2    C28   D    
C1    O1    A    
C5    N2    D    
C16   H6    S    
C7    O8    A    
C5    H12   S    
C2    C20   S    
C1    C26   S    
C21   H24   S    
C20   H18   S    
O6    Zn1   S    
C3    N1    D    
C8    C9    A    
C3    C5    S    
C28   O2    S    
