data_mof_unit_53109.cif
_audit_creation_date              2012-12-10T17:10:59-0500
_audit_creation_method            fapswitch 2.2
_symmetry_space_group_name_H-M    P1
_symmetry_Int_Tables_number       1
_space_group_crystal_system       triclinic
_cell_length_a                    11.846995
_cell_length_b                    13.077143
_cell_length_c                    13.533221
_cell_angle_alpha                 93.87863
_cell_angle_beta                  78.720278
_cell_angle_gamma                 100.470811
_cell_volume                      2020.7738631

loop_
_atom_site_label
_atom_site_type_symbol
_atom_type_description
_atom_site_fract_x
_atom_site_fract_y
_atom_site_fract_z
_atom_type_partial_charge
C1    C     C_R   0.520393 0.701271 0.504267 0.821730
C2    C     C_R   0.471333 0.536032 0.967154 0.038220
C3    C     C_R   0.498449 0.500925 0.866353 0.051913
C4    C     C_R   0.553914 0.541453 0.030045 -0.082792
C5    C     C_R   0.672703 0.548611 0.987695 -0.135502
C6    C     C_R   0.701545 0.511840 0.887156 -0.037790
C7    C     C_R   0.613038 0.480303 0.830823 -0.216476
C8    C     C_R   0.518195 0.513338 0.131462 0.346667
C9    C     C_R   0.714905 0.581326 0.157007 0.304390
C10   C     C_R   0.409156 0.486471 0.806759 -0.222449
C11   C     C_R   0.458786 0.186773 0.515300 -0.146647
C12   C     C_R   0.438878 0.489437 0.694985 0.817445
C13   C     C_R   0.530083 0.816416 0.510710 -0.295708
C14   C     C_R   0.643210 0.990390 0.526192 0.408477
C15   C     C_R   0.632214 0.882339 0.531540 -0.193770
C16   C     C_R   0.432716 0.861532 0.500324 0.407372
C17   C     C_R   0.437168 0.969855 0.513249 -0.092332
C18   C     C_R   0.546432 0.033631 0.515201 -0.063461
C19   C     C_R   0.556880 0.140746 0.510154 -0.227025
C20   C     C_R   0.346517 0.125284 0.537185 -0.141628
C21   C     C_R   0.334507 0.015203 0.528325 0.438048
C22   C     C_R   0.944561 0.580173 0.606001 -0.283012
C23   C     C_R   0.476459 0.299877 0.504702 0.797253
C24   C     C_R   0.826356 0.571689 0.598040 -0.000139
C25   C     C_R   0.859026 0.468971 0.445670 0.574789
C26   C     C_R   0.978025 0.467160 0.457438 -0.078384
C27   C     C_R   0.021067 0.527180 0.537187 -0.006269
C28   C     C_R   0.141094 0.535301 0.545512 0.073774
C29   C     C_R   0.172246 0.412873 0.411694 0.114493
C30   C     C_R   0.057608 0.409084 0.393469 -0.161316
C31   C     C_R   0.562125 0.510890 0.305312 0.849068
C32   C     C_R   0.754646 0.581145 0.051794 0.341492
C33   C     C_R   0.598766 0.534623 0.196888 -0.339837
C34   C     C_R   0.292085 0.484798 0.856551 -0.158353
C35   C     C_R   0.268711 0.527267 0.954631 0.380432
C36   C     C_R   0.362806 0.566366 0.002973 -0.077410
Cu1   Cu    Cu3+1 0.386470 0.492430 0.492410 0.985425
Cu2   Cu    Cu3+1 0.613530 0.507570 0.507590 0.960464
H1    H     H_    0.174497 0.585248 0.604166 0.150300
H2    H     H_    0.975587 0.626800 0.667694 0.163830
H3    H     H_    0.768845 0.610031 0.654530 0.163822
H4    H     H_    0.635092 0.436250 0.761531 0.177477
H5    H     H_    0.642133 0.189272 0.503977 0.191046
N1    N     N_R   0.215880 0.481050 0.481000 -0.219595
N2    N     N_R   0.784100 0.518950 0.519000 -0.222407
O1    O     O_R   0.419710 0.645650 0.494620 -0.535369
O2    O     O_R   0.611450 0.658430 0.507430 -0.586762
O3    O     O_R   0.357340 0.490460 0.641450 -0.580341
O4    O     O_R   0.549080 0.503250 0.654260 -0.601337
O5    O     O_R   0.388550 0.341570 0.492570 -0.569061
O6    O     O_R   0.580290 0.354350 0.505380 -0.632130
O7    O     O_R   0.450920 0.496750 0.345740 -0.561570
O8    O     O_R   0.642660 0.509540 0.358550 -0.510400
O9    O     O_3   0.793074 0.618554 0.219644 -0.522509
C37   C     C_3   0.775059 0.718959 0.256255 0.128261
H6    H     H_    0.687279 0.716549 0.304838 0.118412
H7    H     H_    0.783502 0.772268 0.193524 0.099721
C38   C     C_3   0.866770 0.763175 0.318856 -0.750695
H8    H     H_    0.955578 0.767185 0.272151 0.233353
H9    H     H_    0.854018 0.842598 0.346668 0.168230
H10   H     H_    0.858611 0.713455 0.384138 0.272904
C39   C     C_1   0.247361 0.174606 0.581150 0.263542
N3    N     N_1   0.168748 0.214654 0.616491 -0.279362
O10   O     O_3   0.740535 0.054808 0.551325 -0.566228
C40   C     C_3   0.826403 0.074680 0.463548 0.030574
H11   H     H_    0.791996 0.106018 0.403071 0.126631
H12   H     H_    0.859596 0.002648 0.433941 0.134739
C41   C     C_3   0.927318 0.154226 0.490303 -0.734249
H13   H     H_    0.952848 0.131263 0.559051 0.263862
H14   H     H_    0.003643 0.159124 0.427424 0.203117
H15   H     H_    0.900423 0.231636 0.505621 0.233439
O11   O     O_3   0.226475 0.949822 0.551616 -0.543832
C42   C     C_3   0.139961 0.977240 0.504623 0.080931
H16   H     H_    0.176070 0.026057 0.437359 0.120301
H17   H     H_    0.082340 0.018909 0.561374 0.175915
C43   C     C_3   0.063368 0.879850 0.471907 -0.751787
H18   H     H_    0.050730 0.817128 0.526449 0.282647
H19   H     H_    0.977140 0.898027 0.467817 0.206687
H20   H     H_    0.101912 0.853445 0.395500 0.218675
C44   C     C_1   0.722581 0.842677 0.567433 0.360719
N4    N     N_1   0.794362 0.811527 0.597460 -0.324455
O12   O     O_3   0.330703 0.798796 0.482967 -0.520158
C45   C     C_3   0.330700 0.792604 0.378326 0.143739
H21   H     H_    0.415610 0.776825 0.333112 0.112867
H22   H     H_    0.313446 0.866922 0.353934 0.135534
C46   C     C_3   0.234617 0.704118 0.356453 -0.716369
H23   H     H_    0.198499 0.722003 0.291359 0.198670
H24   H     H_    0.269631 0.630409 0.339835 0.252246
H25   H     H_    0.161208 0.693543 0.421521 0.248189
C47   C     C_1   0.238630 0.334271 0.365101 0.370088
N5    N     N_1   0.288288 0.268349 0.329623 -0.337900
C48   C     C_1   0.027292 0.337231 0.312972 0.202085
N6    N     N_1   0.009679 0.276988 0.248691 -0.335904
C49   C     C_1   0.815874 0.488862 0.845576 0.296322
N7    N     N_1   0.907470 0.469927 0.812382 -0.242290
O13   O     O_3   0.834209 0.450966 0.348785 -0.548083
C50   C     C_3   0.778005 0.347865 0.330300 0.135092
H26   H     H_    0.684276 0.337730 0.356175 0.177886
H27   H     H_    0.809701 0.288026 0.366752 0.099345
C51   C     C_3   0.787358 0.326415 0.216729 -0.752886
H28   H     H_    0.771970 0.241200 0.200272 0.197773
H29   H     H_    0.720793 0.360464 0.188611 0.209711
H30   H     H_    0.873739 0.361571 0.174491 0.270688
O14   O     O_3   0.873246 0.606633 0.014454 -0.544238
C52   C     C_3   0.897149 0.704401 0.969248 0.075713
H31   H     H_    0.871734 0.766326 0.025171 0.125466
H32   H     H_    0.850543 0.703420 0.905217 0.135572
C53   C     C_3   0.027643 0.731594 0.928542 -0.688473
H33   H     H_    0.055845 0.671245 0.871993 0.263149
H34   H     H_    0.047654 0.807954 0.891988 0.188978
H35   H     H_    0.076892 0.736301 0.991076 0.260756
O15   O     O_3   0.412581 0.447452 0.159719 -0.571281
C54   C     C_3   0.424227 0.345629 0.119482 0.084215
H36   H     H_    0.446726 0.300405 0.177075 0.165869
H37   H     H_    0.494176 0.342823 0.051266 0.133473
C55   C     C_3   0.310399 0.291502 0.089248 -0.780844
H38   H     H_    0.295846 0.328705 0.022602 0.227161
H39   H     H_    0.314882 0.208366 0.069447 0.212859
H40   H     H_    0.235649 0.296307 0.151772 0.264574
C56   C     C_1   0.195782 0.437268 0.808786 0.365786
N8    N     N_1   0.119928 0.397624 0.769685 -0.226655
C57   C     C_1   0.354165 0.650060 0.077692 0.295036
N9    N     N_1   0.350176 0.719314 0.135170 -0.351770
O16   O     O_3   0.155649 0.539503 0.997427 -0.569686
C58   C     C_3   0.120176 0.490733 0.091516 0.039407
H41   H     H_    0.192253 0.475308 0.127209 0.166265
H42   H     H_    0.064640 0.414317 0.080727 0.172276
C59   C     C_3   0.050418 0.559151 0.164796 -0.641481
H43   H     H_    0.961486 0.547089 0.148755 0.319843
H44   H     H_    0.045833 0.538284 0.243492 0.216128
H45   H     H_    0.090686 0.642373 0.156351 0.237057

loop_
_geom_bond_atom_site_label_1
_geom_bond_atom_site_label_2
_ccdc_geom_bond_type
C37   H6    S    
C42   H16   S    
C14   C18   A    
C36   C57   S    
C35   C36   A    
C43   H20   S    
C31   O7    A    
C12   O3    A    
C59   H43   S    
C12   O4    A    
Cu2   O4    S    
C53   H33   S    
C52   H32   S    
C11   C19   A    
C26   C27   A    
C29   C30   A    
C24   N2    A    
C35   O16   S    
Cu1   Cu2   S    
C43   H19   S    
C18   C19   A    
C3    C7    A    
C8    O15   S    
C5    C6    A    
C44   N4    T    
C46   H24   S    
C1    O1    A    
C38   H9    S    
C55   H38   S    
C34   C35   A    
C7    H4    S    
C29   C47   S    
Cu2   N2    S    
C9    C32   A    
C41   H13   S    
C15   C44   S    
C53   H34   S    
C16   C17   A    
C40   H12   S    
C58   C59   S    
C31   C33   S    
Cu1   O1    S    
C4    C8    A    
C5    C32   A    
C38   H10   S    
C22   H2    S    
C9    C33   A    
C24   H3    S    
C42   H17   S    
C16   O12   S    
O15   C54   S    
C50   H27   S    
C19   H5    S    
C50   H26   S    
C34   C56   S    
C52   C53   S    
C11   C20   A    
C21   O11   S    
C43   H18   S    
C30   C48   S    
Cu1   O7    S    
C46   H23   S    
C1    O2    A    
C23   O5    A    
Cu2   O6    S    
C28   H1    S    
C6    C49   S    
C25   C26   A    
C28   N1    A    
C51   H30   S    
C17   C21   A    
C2    C4    A    
C39   N3    T    
C23   O6    A    
C45   H21   S    
C40   C41   S    
C14   O10   S    
O13   C50   S    
C32   O14   S    
C17   C18   A    
C10   C34   A    
C31   O8    A    
Cu1   O3    S    
Cu2   O2    S    
C54   H36   S    
C10   C12   S    
C45   H22   S    
C26   C30   A    
C22   C27   A    
C13   C15   A    
C29   N1    A    
C58   H41   S    
C42   C43   S    
C22   C24   A    
C13   C16   A    
C1    C13   S    
C59   H45   S    
C25   N2    A    
C50   C51   S    
C56   N8    T    
C51   H29   S    
C2    C36   A    
O9    C37   S    
O11   C42   S    
C46   H25   S    
C59   H44   S    
O14   C52   S    
C53   H35   S    
C6    C7    A    
C52   H31   S    
C55   H40   S    
O10   C40   S    
C54   C55   S    
Cu1   N1    S    
C37   H7    S    
C2    C3    A    
C38   H8    S    
C3    C10   A    
Cu1   O5    S    
C47   N5    T    
Cu2   O8    S    
C41   H15   S    
C11   C23   S    
C48   N6    T    
C55   H39   S    
C8    C33   A    
C40   H11   S    
C20   C39   S    
C49   N7    T    
C4    C5    A    
C45   C46   S    
C20   C21   A    
C25   O13   S    
C41   H14   S    
O12   C45   S    
C37   C38   S    
C27   C28   A    
C58   H42   S    
C14   C15   A    
C51   H28   S    
C9    O9    S    
C57   N9    T    
O16   C58   S    
C54   H37   S    
