data_mof_unit_59154.cif
_audit_creation_date              2012-12-11T15:39:32-0500
_audit_creation_method            fapswitch 2.2
_symmetry_space_group_name_H-M    P1
_symmetry_Int_Tables_number       1
_space_group_crystal_system       triclinic
_cell_length_a                    17.422904
_cell_length_b                    24.389796
_cell_length_c                    14.816708
_cell_angle_alpha                 90.470821
_cell_angle_beta                  124.726895
_cell_angle_gamma                 89.076565
_cell_volume                      5174.04748135

loop_
_atom_site_label
_atom_site_type_symbol
_atom_type_description
_atom_site_fract_x
_atom_site_fract_y
_atom_site_fract_z
_atom_type_partial_charge
C1    C     C_R   0.312407 0.374792 0.908305 -0.130156
C2    C     C_R   0.556670 0.499893 0.731865 0.128361
C3    C     C_R   0.116761 0.815289 0.002440 -0.077612
C4    C     C_3   0.886425 0.610841 0.621226 -0.194419
C5    C     C_3   0.093286 0.518595 0.808036 -0.268125
C6    C     C_3   0.386423 0.110841 0.621220 -0.194422
C7    C     C_3   0.593284 0.018590 0.808032 -0.268126
C8    C     C_3   0.378639 0.382325 0.229328 -0.276362
C9    C     C_3   0.428308 0.336506 0.727597 -0.310868
C10   C     C_3   0.878640 0.882325 0.229328 -0.276364
C11   C     C_3   0.928313 0.836504 0.727595 -0.310873
C12   C     C_3   0.123598 0.378919 0.441235 -0.176425
C13   C     C_R   0.071484 0.000586 0.371397 0.086976
C14   C     C_3   0.941662 0.463869 0.190562 -0.190237
C15   C     C_3   0.623599 0.878919 0.441235 -0.176426
C16   C     C_3   0.441665 0.963869 0.190560 -0.190236
C17   C     C_R   0.056670 0.999893 0.731865 0.128360
C18   C     C_R   0.206741 0.500417 0.630620 0.074312
C19   C     C_R   0.824163 0.498957 0.307680 0.073277
C20   C     C_R   0.706741 0.000416 0.630620 0.074309
C21   C     C_R   0.324163 0.998958 0.307675 0.073275
C22   C     C_R   0.054209 0.538744 0.542390 -0.160652
C23   C     C_R   0.960720 0.537550 0.467150 0.088455
C24   C     C_R   0.554208 0.038743 0.542389 -0.160651
C25   C     C_R   0.650374 0.348819 0.092390 -0.198678
C26   C     C_R   0.460720 0.037551 0.467147 0.088455
C27   C     C_R   0.113571 0.503161 0.535438 -0.145244
C28   C     C_R   0.922996 0.499539 0.382583 -0.222209
C29   C     C_R   0.613571 0.003160 0.535438 -0.145242
C30   C     C_R   0.422997 0.999540 0.382579 -0.222206
C31   C     C_R   0.078845 0.467428 0.445757 0.454016
C32   C     C_R   0.981527 0.467521 0.364854 0.430827
C33   C     C_R   0.578846 0.967428 0.445756 0.454017
C34   C     C_R   0.481528 0.967522 0.364851 0.430827
C35   C     C_3   0.940760 0.548113 0.552035 0.403622
C36   C     C_R   0.812407 0.874792 0.908305 -0.130155
C37   C     C_3   0.046137 0.549021 0.636449 0.340325
C38   C     C_3   0.440757 0.048113 0.552030 0.403625
C39   C     C_3   0.546134 0.049018 0.636447 0.340323
C40   C     C_R   0.159810 0.684793 0.905537 -0.225637
C41   C     C_R   0.770493 0.725733 0.064657 -0.187864
C42   C     C_R   0.659811 0.184793 0.905537 -0.225635
C43   C     C_R   0.270492 0.225733 0.064657 -0.187864
C44   C     C_R   0.612045 0.230701 0.905105 -0.136204
C45   C     C_R   0.316369 0.270559 0.065109 -0.121061
C46   C     C_R   0.112043 0.730701 0.905105 -0.136206
C47   C     C_R   0.150373 0.848818 0.092390 -0.198680
C48   C     C_R   0.816370 0.770559 0.065109 -0.121060
C49   C     C_R   0.641871 0.257365 0.004099 0.178806
C50   C     C_R   0.265054 0.316087 0.001037 0.166873
C51   C     C_R   0.141870 0.757365 0.004099 0.178804
C52   C     C_R   0.765055 0.816087 0.001038 0.166874
C53   C     C_R   0.402475 0.624254 0.093604 -0.125056
C54   C     C_R   0.562771 0.648862 0.906420 -0.088171
C55   C     C_R   0.902475 0.124254 0.093604 -0.125056
C56   C     C_R   0.062771 0.148863 0.906420 -0.088170
C57   C     C_R   0.709127 0.231646 0.103847 -0.166026
C58   C     C_R   0.313012 0.636850 0.002998 0.008316
C59   C     C_R   0.167619 0.316067 0.932110 -0.187105
C60   C     C_R   0.209126 0.731645 0.103847 -0.166025
C61   C     C_R   0.667620 0.816066 0.932111 -0.187105
C62   C     C_R   0.258250 0.686240 0.104097 -0.166226
C63   C     C_R   0.621108 0.770021 0.929709 -0.181537
C64   C     C_R   0.758250 0.186240 0.104097 -0.166227
C65   C     C_R   0.121108 0.270021 0.929708 -0.181538
C66   C     C_R   0.240020 0.666461 0.004577 0.148040
C67   C     C_R   0.673429 0.725586 0.997233 0.148729
C68   C     C_R   0.740020 0.166461 0.004577 0.148041
C69   C     C_R   0.629936 0.677041 0.996777 0.025540
C70   C     C_R   0.173428 0.225586 0.997233 0.148729
C71   C     C_R   0.628464 0.546475 0.646500 0.340525
C72   C     C_R   0.632198 0.546539 0.553298 0.350565
C73   C     C_R   0.128464 0.046475 0.646500 0.340525
C74   C     C_R   0.132198 0.046539 0.553298 0.350564
C75   C     C_R   0.604661 0.499036 0.487462 0.037021
C76   C     C_R   0.601688 0.498131 0.672786 0.033693
C77   C     C_R   0.104660 0.999037 0.487462 0.037021
C78   C     C_R   0.101688 0.998131 0.672786 0.033693
C79   C     C_R   0.598423 0.449364 0.529352 -0.273891
C80   C     C_R   0.813012 0.136850 0.002998 0.008318
C81   C     C_R   0.598750 0.448770 0.622266 -0.249101
C82   C     C_R   0.098423 0.949364 0.529352 -0.273891
C83   C     C_R   0.098750 0.948770 0.622266 -0.249100
C84   C     C_R   0.556484 0.455278 0.307274 -0.096025
C85   C     C_R   0.528145 0.454541 0.761045 -0.196185
C86   C     C_R   0.056484 0.955278 0.307274 -0.096024
C87   C     C_R   0.028146 0.954541 0.761046 -0.196185
C88   C     C_R   0.252483 0.545478 0.694311 0.479799
C89   C     C_R   0.767555 0.544995 0.271893 0.484812
C90   C     C_R   0.752482 0.045478 0.694311 0.479788
C91   C     C_R   0.129934 0.177042 0.996777 0.025538
C92   C     C_R   0.267555 0.044995 0.271890 0.484811
C93   C     C_R   0.550268 0.545838 0.305057 -0.127983
C94   C     C_R   0.519378 0.545645 0.750814 -0.069106
C95   C     C_R   0.050268 0.045838 0.305057 -0.127983
C96   C     C_R   0.019378 0.045645 0.750814 -0.069106
C97   C     C_R   0.248759 0.454700 0.695000 -0.127973
C98   C     C_R   0.768581 0.453117 0.267055 -0.181876
C99   C     C_R   0.748759 0.954700 0.695001 -0.127970
C100  C     C_R   0.268581 0.953117 0.267052 -0.181878
C101  C     C_R   0.310551 0.623700 0.909884 -0.113364
C102  C     C_R   0.571484 0.500586 0.371397 0.086976
C103  C     C_R   0.654353 0.649059 0.089356 -0.129685
C104  C     C_R   0.810551 0.123700 0.909884 -0.113374
C105  C     C_R   0.154352 0.149060 0.089355 -0.129679
C106  C     C_R   0.401938 0.377008 0.092300 0.598005
C107  C     C_R   0.548953 0.344909 0.910705 0.541570
C108  C     C_R   0.901938 0.877008 0.092300 0.598005
C109  C     C_R   0.048952 0.844909 0.910705 0.541571
C110  C     C_R   0.316107 0.360877 0.000655 -0.182275
C111  C     C_R   0.616762 0.315289 0.002440 -0.077612
C112  C     C_R   0.816106 0.860877 0.000655 -0.182278
H1    H     H_    0.258126 0.365308 0.823837 0.138511
H2    H     H_    0.810748 0.690474 0.114384 0.144948
H3    H     H_    0.639722 0.168213 0.827202 0.114184
H4    H     H_    0.310747 0.190474 0.114385 0.144950
H5    H     H_    0.559005 0.247941 0.826188 0.157893
H6    H     H_    0.391996 0.269187 0.114125 0.157359
H7    H     H_    0.059003 0.747940 0.826188 0.157891
H8    H     H_    0.891997 0.769187 0.114124 0.157359
H9    H     H_    0.730748 0.249216 0.182028 0.115256
H10   H     H_    0.128633 0.351069 0.880593 0.132217
H11   H     H_    0.230747 0.749216 0.182028 0.115255
H12   H     H_    0.691368 0.336543 0.177583 0.121829
H13   H     H_    0.628633 0.851069 0.880594 0.132216
H14   H     H_    0.316087 0.670689 0.182387 0.112855
H15   H     H_    0.545537 0.769017 0.876708 0.123821
H16   H     H_    0.816087 0.170688 0.182387 0.112855
H17   H     H_    0.045537 0.269017 0.876707 0.123821
H18   H     H_    0.583458 0.411177 0.485227 0.154226
H19   H     H_    0.584124 0.410131 0.644219 0.145870
H20   H     H_    0.083458 0.911177 0.485227 0.154226
H21   H     H_    0.084124 0.910131 0.644220 0.145869
H22   H     H_    0.429647 0.629523 0.179104 0.095648
H23   H     H_    0.758126 0.865308 0.823837 0.138512
H24   H     H_    0.521423 0.663082 0.822293 0.100270
H25   H     H_    0.929647 0.129523 0.179104 0.095648
H26   H     H_    0.021423 0.163082 0.822293 0.100270
H27   H     H_    0.582352 0.414236 0.337021 0.146902
H28   H     H_    0.550415 0.412894 0.764509 0.093054
H29   H     H_    0.082352 0.914236 0.337021 0.146902
H30   H     H_    0.050416 0.912894 0.764510 0.093054
H31   H     H_    0.563860 0.588203 0.330037 0.168887
H32   H     H_    0.523165 0.587818 0.733338 0.145632
H33   H     H_    0.063860 0.088203 0.330037 0.168887
H34   H     H_    0.191367 0.836543 0.177583 0.121829
H35   H     H_    0.023166 0.087818 0.733338 0.145632
H36   H     H_    0.233852 0.412401 0.669276 0.120648
H37   H     H_    0.790465 0.410587 0.284449 0.152491
H38   H     H_    0.733852 0.912401 0.669277 0.120651
H39   H     H_    0.290465 0.910587 0.284446 0.152492
H40   H     H_    0.252506 0.627977 0.825277 0.145692
H41   H     H_    0.694590 0.665519 0.171220 0.137874
H42   H     H_    0.752507 0.127977 0.825277 0.145694
H43   H     H_    0.194588 0.165520 0.171220 0.137873
H44   H     H_    0.954425 0.619621 0.699560 0.109166
H45   H     H_    0.903189 0.513517 0.558835 0.042047
H46   H     H_    0.851277 0.576524 0.632502 0.142465
H47   H     H_    0.841657 0.648026 0.599310 0.181936
H48   H     H_    0.026916 0.532633 0.795712 0.130336
H49   H     H_    0.147460 0.550678 0.850212 0.140322
H50   H     H_    0.118957 0.482184 0.862685 0.177079
H51   H     H_    0.454422 0.119623 0.699555 0.109168
H52   H     H_    0.351275 0.076525 0.632497 0.142466
H53   H     H_    0.341655 0.148027 0.599303 0.181937
H54   H     H_    0.526922 0.032641 0.795713 0.130330
H55   H     H_    0.647475 0.050663 0.850216 0.140332
H56   H     H_    0.076138 0.589526 0.675409 0.060413
H57   H     H_    0.618937 0.982176 0.862671 0.177079
H58   H     H_    0.624769 0.625355 0.661086 0.314805
H59   H     H_    0.700884 0.614564 0.590309 0.317921
H60   H     H_    0.124770 0.125355 0.661087 0.314805
H61   H     H_    0.200884 0.114564 0.590309 0.317920
H62   H     H_    0.200834 0.599122 0.577815 0.317566
H63   H     H_    0.740579 0.613506 0.310501 0.316901
H64   H     H_    0.700833 0.099121 0.577815 0.317567
H65   H     H_    0.240581 0.113506 0.310501 0.316901
H66   H     H_    0.319097 0.354181 0.197414 0.162820
H67   H     H_    0.403183 0.013518 0.558825 0.042050
H68   H     H_    0.352886 0.425112 0.201261 0.136901
H69   H     H_    0.417573 0.382120 0.320115 0.174731
H70   H     H_    0.369470 0.309352 0.670442 0.177915
H71   H     H_    0.479857 0.332437 0.706259 0.123110
H72   H     H_    0.398260 0.378390 0.713818 0.170225
H73   H     H_    0.819097 0.854181 0.197414 0.162821
H74   H     H_    0.852886 0.925111 0.201262 0.136901
H75   H     H_    0.917573 0.882120 0.320115 0.174731
H76   H     H_    0.869475 0.809349 0.670439 0.177915
H77   H     H_    0.979866 0.832433 0.706264 0.123106
H78   H     H_    0.576137 0.089523 0.675411 0.060411
H79   H     H_    0.898263 0.878389 0.713811 0.170225
H80   H     H_    0.071257 0.363273 0.357498 0.190680
H81   H     H_    0.101263 0.370272 0.496807 0.103005
H82   H     H_    0.189523 0.355556 0.473391 0.139561
H83   H     H_    0.013399 0.474373 0.216254 0.150538
H84   H     H_    0.897429 0.501633 0.167089 0.134164
H85   H     H_    0.910423 0.437626 0.116452 0.163128
H86   H     H_    0.571258 0.863273 0.357498 0.190680
H87   H     H_    0.601264 0.870272 0.496807 0.103007
H88   H     H_    0.689524 0.855556 0.473392 0.139562
H89   H     H_    0.139721 0.668213 0.827202 0.114182
H90   H     H_    0.513402 0.974374 0.216253 0.150537
H91   H     H_    0.397432 0.001634 0.167087 0.134164
H92   H     H_    0.410427 0.937627 0.116450 0.163128
N1    N     N_R   0.394180 0.396910 0.943210 -0.055901
N2    N     N_R   0.474350 0.471570 0.793850 -0.054494
N3    N     N_R   0.025650 0.971570 0.206150 -0.048914
N4    N     N_R   0.974350 0.971570 0.793850 -0.054492
N5    N     N_R   0.319480 0.528420 0.793810 -0.078205
N6    N     N_R   0.680520 0.528420 0.206190 -0.111595
N7    N     N_R   0.819480 0.028420 0.793810 -0.078207
N8    N     N_R   0.180520 0.028420 0.206190 -0.111594
N9    N     N_R   0.525640 0.528390 0.206120 -0.065393
N10   N     N_R   0.474360 0.528390 0.793880 -0.054431
N11   N     N_R   0.025640 0.028390 0.206120 -0.065393
N12   N     N_R   0.605820 0.396910 0.056790 -0.060192
N13   N     N_R   0.974360 0.028390 0.793880 -0.054431
N14   N     N_R   0.319490 0.471590 0.793840 -0.079409
N15   N     N_R   0.680510 0.471590 0.206160 -0.073716
N16   N     N_R   0.819490 0.971590 0.793840 -0.079410
N17   N     N_R   0.180510 0.971590 0.206160 -0.073715
N18   N     N_R   0.394130 0.603080 0.943110 -0.033392
N19   N     N_R   0.605870 0.603080 0.056890 -0.051133
N20   N     N_R   0.894130 0.103080 0.943110 -0.033391
N21   N     N_R   0.105870 0.103080 0.056890 -0.051134
N22   N     N_R   0.450990 0.396900 0.056840 -0.092367
N23   N     N_R   0.894180 0.896910 0.943210 -0.055899
N24   N     N_R   0.549010 0.396900 0.943160 -0.089395
N25   N     N_R   0.950990 0.896900 0.056840 -0.092367
N26   N     N_R   0.049010 0.896900 0.943160 -0.089394
N27   N     N_R   0.105820 0.896910 0.056790 -0.060192
N28   N     N_R   0.450950 0.603070 0.056740 -0.047004
N29   N     N_R   0.549050 0.603070 0.943260 -0.043231
N30   N     N_R   0.950950 0.103070 0.056740 -0.047003
N31   N     N_R   0.049050 0.103070 0.943260 -0.043231
N32   N     N_R   0.525650 0.471570 0.206150 -0.048913
Ni1   Ni    Ni4+2 0.434860 0.434850 0.869700 0.222548
Ni2   Ni    Ni4+2 0.565140 0.434850 0.130300 0.217804
Ni3   Ni    Ni4+2 0.934860 0.934850 0.869700 0.222552
Ni4   Ni    Ni4+2 0.065140 0.934850 0.130300 0.217804
Ni5   Ni    Ni4+2 0.565130 0.565140 0.130240 0.198589
Ni6   Ni    Ni4+2 0.434870 0.565140 0.869760 0.253388
Ni7   Ni    Ni4+2 0.065130 0.065140 0.130240 0.198588
Ni8   Ni    Ni4+2 0.934870 0.065140 0.869760 0.253387
O1    O     O_3   0.898520 0.600286 0.536351 -0.576110
O2    O     O_3   0.794034 0.596993 0.312797 -0.726997
O3    O     O_3   0.746977 0.098274 0.658539 -0.791978
O4    O     O_3   0.294035 0.096993 0.312793 -0.726998
O5    O     O_3   0.439784 0.364306 0.200933 -0.648049
O6    O     O_3   0.465849 0.318795 0.835147 -0.619863
O7    O     O_3   0.939784 0.864306 0.200933 -0.648049
O8    O     O_3   0.965847 0.818796 0.835146 -0.619859
O9    O     O_3   0.140539 0.435004 0.437208 -0.615121
O10   O     O_3   0.943590 0.434393 0.273239 -0.619325
O11   O     O_3   0.640541 0.935004 0.437208 -0.615120
O12   O     O_3   0.078956 0.503218 0.707751 -0.618619
O13   O     O_3   0.443592 0.934393 0.273236 -0.619324
O14   O     O_3   0.398520 0.100287 0.536347 -0.576114
O15   O     O_3   0.578948 0.003214 0.707743 -0.618620
O16   O     O_3   0.646804 0.592758 0.709567 -0.782268
O17   O     O_3   0.660955 0.591551 0.524652 -0.798149
O18   O     O_3   0.146804 0.092758 0.709567 -0.782268
O19   O     O_3   0.160954 0.091551 0.524652 -0.798150
O20   O     O_3   0.246978 0.598275 0.658540 -0.791981

loop_
_geom_bond_atom_site_label_1
_geom_bond_atom_site_label_2
_ccdc_geom_bond_type
C8    H69   S    
C44   C49   A    
C17   C96   A    
C14   H83   S    
C109  O8    S    
C68   C80   S    
C55   C80   A    
C2    C94   A    
C4    H47   S    
C95   N11   A    
C73   C74   A    
C91   C105  A    
C7    O15   S    
C70   C91   S    
C95   H33   S    
C41   H2    S    
C53   H22   S    
C10   H73   S    
C92   O4    S    
C41   C67   A    
C15   O11   S    
C67   C69   S    
C40   C46   A    
N7    N16   A    
C54   C69   A    
C72   O17   S    
N12   N24   A    
C56   H26   S    
C1    H1    S    
C80   C104  A    
C97   N14   A    
N22   Ni2   S    
N5    N14   A    
C64   C68   A    
N15   Ni2   S    
C84   N32   A    
C24   C26   A    
N10   Ni6   S    
N8    Ni7   S    
C52   C61   A    
C38   C39   S    
C1    C110  A    
C4    H44   S    
C81   H19   S    
H65   O4    S    
C47   N27   A    
C52   C112  S    
C5    O12   S    
C96   N13   A    
C83   H21   S    
C29   C33   A    
C50   C110  S    
C24   C39   S    
C49   C57   A    
C89   O2    S    
C2    C85   A    
C60   C62   A    
C10   O7    S    
C12   H81   S    
H59   O17   S    
N20   N30   A    
C24   C29   A    
C14   H84   S    
C9    H70   S    
N19   N29   A    
C103  N19   A    
C39   H78   S    
C78   C83   A    
C103  H41   S    
H63   O2    S    
C4    H46   S    
C84   H27   S    
C43   C70   A    
C64   H16   S    
C74   C77   A    
C77   C82   A    
C13   C86   A    
C36   C112  A    
C75   C102  S    
C73   C78   A    
C106  N22   A    
N16   Ni3   S    
C38   H67   S    
C18   C97   A    
C105  N21   A    
C37   H56   S    
C16   H91   S    
C1    N1    A    
C93   H31   S    
C101  N18   A    
N30   Ni7   S    
N8    N17   A    
C108  C112  A    
C74   O19   S    
C5    H48   S    
C59   H10   S    
C6    H53   S    
N18   N28   A    
C45   H6    S    
C40   C66   A    
C98   N15   A    
C107  N24   A    
C42   C68   A    
N26   Ni3   S    
C42   C44   A    
C72   C75   A    
C16   H90   S    
C38   O14   S    
N4    Ni3   S    
C99   H38   S    
C19   C98   A    
C58   C66   S    
C85   N2    A    
C10   H75   S    
H64   O3    S    
C13   C77   S    
C20   C29   S    
C69   C103  A    
C100  H39   S    
N18   Ni6   S    
C12   H80   S    
C14   H85   S    
C63   C67   A    
C8    O5    S    
C94   N10   A    
C35   O1    S    
C30   C34   A    
C108  O7    S    
C93   N9    A    
C11   H76   S    
N21   N31   A    
C28   C32   A    
C48   H8    S    
C79   C81   A    
C21   C100  A    
C62   C66   A    
N20   Ni8   S    
N17   Ni4   S    
C71   O16   S    
C79   H18   S    
C27   C31   A    
C108  N25   A    
C18   C88   A    
N6    N15   A    
N28   Ni5   S    
C34   O13   S    
C3    C109  A    
N27   Ni4   S    
C11   H77   S    
C5    H49   S    
C76   C81   A    
C60   H11   S    
C106  O5    S    
C35   H45   S    
C19   C89   A    
C43   H4    S    
C15   H87   S    
C109  N26   A    
C8    H68   S    
C31   C32   A    
C14   O10   S    
C33   O11   S    
C21   C92   A    
C37   O12   S    
N23   Ni3   S    
C90   O3    S    
N3    N11   A    
C33   C34   A    
N1    N22   A    
C56   N31   A    
C58   C101  A    
C16   O13   S    
C23   C28   A    
C99   N16   A    
N25   Ni4   S    
N1    Ni1   S    
C19   C28   S    
C43   C45   A    
C85   H28   S    
C40   H89   S    
C39   O15   S    
N3    Ni4   S    
C9    H71   S    
C105  H43   S    
C7    H54   S    
C13   C95   A    
C26   C30   A    
C36   N23   A    
C23   C35   S    
C88   N5    A    
C7    H57   S    
C47   H34   S    
C97   H36   S    
C92   N8    A    
H58   O16   S    
C50   C59   A    
C55   N30   A    
C82   H20   S    
N9    N32   A    
C36   H23   S    
N14   Ni1   S    
C2    C76   S    
C73   O18   S    
C88   O20   S    
C57   C64   A    
C62   H14   S    
C106  C110  A    
C35   C37   S    
N4    N13   A    
C15   H86   S    
C96   H35   S    
C7    H55   S    
C3    C51   S    
C12   O9    S    
C107  O6    S    
N23   N25   A    
C17   C87   A    
C93   C102  A    
C107  C111  A    
N7    Ni8   S    
C61   C63   A    
C26   C38   S    
C18   C27   S    
N6    Ni5   S    
C6    H52   S    
C57   H9    S    
C84   C102  A    
C86   N3    A    
N5    Ni6   S    
C65   H17   S    
C53   C58   A    
C89   N6    A    
N21   Ni7   S    
C21   C30   S    
C101  H40   S    
N11   Ni7   S    
C11   O8    S    
C55   H25   S    
N31   Ni8   S    
C49   C111  S    
C22   C27   A    
N12   Ni2   S    
C5    H50   S    
N9    Ni5   S    
C9    O6    S    
N13   Ni8   S    
C94   H32   S    
N24   Ni1   S    
C9    H72   S    
C16   H92   S    
C54   H24   S    
C59   C65   A    
C45   C50   A    
C15   H88   S    
C22   C37   S    
N2    N10   A    
C71   C76   A    
C20   C99   A    
C20   C90   A    
C100  N17   A    
N19   Ni5   S    
N29   Ni6   S    
C46   C51   A    
C3    C47   A    
C17   C78   S    
C10   H74   S    
C41   C48   A    
N32   Ni2   S    
C46   H7    S    
N2    Ni1   S    
C11   H79   S    
C87   H30   S    
H60   O18   S    
N26   N27   A    
C25   H12   S    
C63   H15   S    
C87   N4    A    
H61   O19   S    
C25   C111  A    
C53   N28   A    
H62   O20   S    
C25   N12   A    
C8    H66   S    
C42   H3    S    
C71   C72   A    
C44   H5    S    
C6    H51   S    
C82   C83   A    
C32   O10   S    
C90   N7    A    
C22   C23   A    
C31   O9    S    
C61   H13   S    
C51   C60   A    
C54   N29   A    
C104  H42   S    
C48   C52   A    
C75   C79   A    
C6    O14   S    
C104  N20   A    
C56   C91   A    
C65   C70   A    
C86   H29   S    
C12   H82   S    
C4    O1    S    
C98   H37   S    
