data_mof_unit_43774.cif
_audit_creation_date              2012-10-26T20:17:39-0400
_audit_creation_method            fapswitch 2.2
_symmetry_space_group_name_H-M    P1
_symmetry_Int_Tables_number       1
_space_group_crystal_system       triclinic
_cell_length_a                    27.796613
_cell_length_b                    8.605719
_cell_length_c                    7.439696
_cell_angle_alpha                 103.001447
_cell_angle_beta                  94.259762
_cell_angle_gamma                 92.343622
_cell_volume                      1726.19461996

loop_
_atom_site_label
_atom_site_type_symbol
_atom_type_description
_atom_site_fract_x
_atom_site_fract_y
_atom_site_fract_z
_atom_type_partial_charge
C1    C     C_R   0.492064 0.199851 0.454099 0.572073
C2    C     C_R   0.870987 0.364769 0.524254 0.025986
C3    C     C_R   0.354761 0.499122 0.507777 -0.000008
C4    C     C_R   0.645288 0.498893 0.492058 0.005614
C5    C     C_R   0.973301 0.365498 0.537839 0.018618
C6    C     C_R   0.026796 0.630421 0.462463 0.018603
C7    C     C_R   0.975493 0.628429 0.455076 0.018847
C8    C     C_R   0.024606 0.367500 0.545254 0.018827
C9    C     C_R   0.949093 0.496113 0.493137 0.034628
C10   C     C_R   0.051004 0.499802 0.507154 0.034512
C11   C     C_R   0.945020 0.236749 0.573493 -0.146947
C12   C     C_R   0.493893 0.797785 0.546764 0.563138
C13   C     C_R   0.055073 0.759157 0.426766 -0.147076
C14   C     C_R   0.895012 0.236760 0.566711 -0.114135
C15   C     C_R   0.105078 0.759126 0.433474 -0.114567
C16   C     C_R   0.407526 0.499486 0.502378 0.525972
C17   C     C_R   0.592479 0.499944 0.497547 0.567180
C18   C     C_R   0.050761 0.241356 0.589920 -0.146563
C19   C     C_R   0.949342 0.754597 0.410458 -0.146479
C20   C     C_2   0.476143 0.031797 0.428104 -0.007728
C21   C     C_2   0.479390 0.961972 0.573311 -0.017225
C22   C     C_R   0.177549 0.375690 0.559191 0.399271
C23   C     C_R   0.102307 0.501367 0.513454 -0.025855
C24   C     C_R   0.822554 0.620204 0.440953 0.399883
C25   C     C_R   0.179629 0.629547 0.480796 0.400347
C26   C     C_R   0.820454 0.366307 0.519237 0.401346
C27   C     C_R   0.283733 0.511545 0.680556 -0.055662
C28   C     C_R   0.716387 0.485373 0.319406 -0.050084
C29   C     C_R   0.333795 0.510942 0.676265 -0.154104
C30   C     C_R   0.666327 0.486973 0.323684 -0.140481
C31   C     C_R   0.324821 0.487062 0.343870 -0.147786
C32   C     C_R   0.675196 0.509473 0.655775 -0.135999
C33   C     C_R   0.274859 0.487747 0.348584 -0.055282
C34   C     C_R   0.897789 0.494531 0.486775 -0.025744
C35   C     C_R   0.725156 0.507792 0.651078 -0.051455
C36   C     C_R   0.254148 0.500391 0.516786 0.243554
C37   C     C_R   0.745925 0.495515 0.483058 0.242353
C38   C     C_3   0.449298 0.947447 0.243104 -0.274935
C39   C     C_3   0.403369 0.030007 0.201807 -0.451464
C40   C     C_3   0.460929 0.039972 0.758173 -0.277416
C41   C     C_3   0.410580 0.102697 0.733481 -0.442277
C42   C     C_R   0.126975 0.372982 0.556748 0.025632
C43   C     C_R   0.873127 0.622923 0.443488 0.025433
C44   C     C_R   0.100797 0.244297 0.595143 -0.117413
C45   C     C_R   0.899307 0.751644 0.405190 -0.117038
C46   C     C_R   0.129103 0.631112 0.475901 0.026319
Cu1   Cu    Cu3+1 0.505380 0.517380 0.684380 0.937971
Cu2   Cu    Cu3+1 0.494620 0.482620 0.315620 0.921674
H1    H     H_    0.339925 0.477453 0.211982 0.124274
H2    H     H_    0.355992 0.519957 0.804589 0.122750
H3    H     H_    0.732248 0.475626 0.188977 0.131660
H4    H     H_    0.267909 0.521513 0.811095 0.129534
H5    H     H_    0.875205 0.135447 0.595924 0.172670
H6    H     H_    0.124882 0.860425 0.404216 0.172216
H7    H     H_    0.960114 0.132976 0.607713 0.106184
H8    H     H_    0.039980 0.862930 0.392542 0.106185
H9    H     H_    0.033928 0.137400 0.622149 0.105408
H10   H     H_    0.966174 0.858587 0.378305 0.105415
H11   H     H_    0.379018 0.034112 0.314350 0.156900
H12   H     H_    0.660069 0.518812 0.787559 0.131654
H13   H     H_    0.411546 0.153356 0.187354 0.180931
H14   H     H_    0.383915 0.961240 0.070398 0.144013
H15   H     H_    0.474133 0.943094 0.132822 0.154663
H16   H     H_    0.436087 0.823675 0.239716 0.186161
H17   H     H_    0.410913 0.196300 0.652737 0.167391
H18   H     H_    0.384447 0.003112 0.661354 0.162366
H19   H     H_    0.397919 0.156277 0.870176 0.126917
H20   H     H_    0.456861 0.950261 0.842162 0.156952
H21   H     H_    0.487089 0.134328 0.840337 0.179940
H22   H     H_    0.459308 0.388676 0.951174 0.233565
H23   H     H_    0.539669 0.615968 0.050084 0.244452
H24   H     H_    0.252137 0.478424 0.221432 0.133433
H25   H     H_    0.747832 0.516275 0.778156 0.134733
H26   H     H_    0.118924 0.144398 0.629607 0.165380
H27   H     H_    0.881185 0.851561 0.370752 0.165817
H28   H     H_    0.644187 0.478792 0.195437 0.130589
N1    N     N_R   0.202701 0.502465 0.520624 -0.399291
N2    N     N_R   0.797383 0.493385 0.479369 -0.399906
N3    N     N_2   0.486510 0.456430 0.038510 -0.271027
N4    N     N_2   0.513490 0.543570 0.961490 -0.260483
O1    O     O_R   0.503500 0.286120 0.619780 -0.502529
O2    O     O_2   0.798756 0.744189 0.402876 -0.477327
O3    O     O_2   0.794515 0.241661 0.553491 -0.473090
O4    O     O_2   0.205564 0.754164 0.446447 -0.479749
O5    O     O_R   0.496500 0.713880 0.380220 -0.514881
O6    O     O_R   0.494410 0.256780 0.308360 -0.499385
O7    O     O_R   0.505590 0.743220 0.691640 -0.499665
O8    O     O_R   0.434810 0.514700 0.655690 -0.520857
O9    O     O_R   0.565190 0.485300 0.344310 -0.497599
O10   O     O_R   0.425720 0.485350 0.344280 -0.523907
O11   O     O_R   0.574280 0.514650 0.655720 -0.493810
O12   O     O_2   0.201365 0.251763 0.597338 -0.482708

loop_
_geom_bond_atom_site_label_1
_geom_bond_atom_site_label_2
_ccdc_geom_bond_type
C16   O10   A    
C26   O3    S    
C27   C29   A    
C17   O11   A    
C41   H19   S    
C26   N2    A    
C23   C42   A    
C12   O5    A    
C25   N1    A    
Cu2   N3    S    
C35   C37   A    
C5    C11   A    
C36   N1    S    
C38   C39   S    
C28   H3    S    
C1    O1    A    
C33   C36   A    
C30   H28   S    
C3    C29   A    
C24   O2    S    
C33   H24   S    
C25   O4    S    
C31   C33   A    
C13   H8    S    
C2    C34   A    
C23   C46   A    
Cu2   O10   S    
C42   C44   A    
Cu1   N4    S    
C31   H1    S    
H23   N4    S    
C38   H16   S    
C29   H2    S    
C19   H10   S    
C39   H13   S    
C40   H21   S    
C32   C35   A    
C17   O9    A    
C41   H17   S    
C12   C21   S    
C8    C18   A    
Cu1   O7    S    
C44   H26   S    
C15   H6    S    
C5    C9    A    
C18   C44   A    
C20   C38   S    
C18   H9    S    
Cu1   Cu2   S    
C39   H11   S    
C2    C26   A    
C4    C32   A    
C3    C31   A    
C43   C45   A    
C41   H18   S    
C4    C17   S    
C24   N2    A    
C40   C41   S    
C7    C19   A    
Cu2   O9    S    
C13   C15   A    
C9    C34   A    
C10   C23   A    
Cu2   O6    S    
C32   H12   S    
C11   H7    S    
C27   H4    S    
C38   H15   S    
C1    O6    A    
C7    C9    A    
C39   H14   S    
C35   H25   S    
C1    C20   S    
C12   O7    A    
H22   N3    S    
Cu1   O11   S    
C34   C43   A    
C22   N1    A    
C6    C10   A    
C5    C8    A    
C19   C45   A    
C6    C7    A    
C27   C36   A    
C37   N2    S    
C45   H27   S    
Cu1   O8    S    
C28   C30   A    
C6    C13   A    
C22   C42   A    
C21   C40   S    
C28   C37   A    
C11   C14   A    
Cu1   O1    S    
C2    C14   A    
N3    N4    D    
C14   H5    S    
C20   C21   D    
C8    C10   A    
C40   H20   S    
C16   O8    A    
C24   C43   A    
C22   O12   S    
Cu2   O5    S    
C15   C46   A    
C25   C46   A    
C4    C30   A    
C3    C16   S    
