data_mof_unit_11673.cif
_audit_creation_date              2012-12-10T17:07:15-0500
_audit_creation_method            fapswitch 2.2
_symmetry_space_group_name_H-M    P1
_symmetry_Int_Tables_number       1
_space_group_crystal_system       triclinic
_cell_length_a                    10.150255
_cell_length_b                    10.61102
_cell_length_c                    13.57551
_cell_angle_alpha                 90.755944
_cell_angle_beta                  82.34067
_cell_angle_gamma                 95.542092
_cell_volume                      1442.32528126

loop_
_atom_site_label
_atom_site_type_symbol
_atom_type_description
_atom_site_fract_x
_atom_site_fract_y
_atom_site_fract_z
_atom_type_partial_charge
C1    C     C_R   0.507417 0.737290 0.496946 0.925196
C2    C     C_R   0.491975 0.261588 0.505802 0.790683
C3    C     C_R   0.524458 0.499752 0.314443 0.914919
C4    C     C_1   0.542993 0.498206 0.210123 -0.033905
C5    C     C_2   0.549825 0.496494 0.018078 -0.249123
C6    C     C_2   0.446177 0.538437 0.982118 0.520974
C7    C     C_1   0.447681 0.525817 0.877147 -0.189444
C8    C     C_1   0.551987 0.496993 0.121996 0.119289
C9    C     C_3   0.239005 0.622335 0.997797 0.094874
C10   C     C_3   0.139962 0.685414 0.071844 -0.704009
C11   C     C_3   0.273486 0.077967 0.458501 0.124022
C12   C     C_1   0.457779 0.513551 0.789436 -0.140803
C13   C     C_3   0.181879 0.958369 0.445259 -0.685447
C14   C     C_3   0.579576 0.948035 0.739712 0.110656
C15   C     C_3   0.564123 0.869130 0.834013 -0.772231
C16   C     C_3   0.111621 0.364935 0.630649 0.296162
C17   C     C_3   0.013076 0.258707 0.678659 -0.860047
C18   C     C_2   0.567751 0.073195 0.563116 -0.323454
C19   C     C_2   0.468264 0.128587 0.532096 0.335653
C20   C     C_2   0.552076 0.936099 0.571248 0.418492
C21   C     C_2   0.532470 0.870443 0.487919 0.210172
C22   C     C_2   0.091533 0.543441 0.428981 0.148192
C23   C     C_2   0.945403 0.507315 0.421367 0.482865
C24   C     C_R   0.475647 0.501545 0.685544 0.900671
H1    H     H_    0.629774 0.455964 0.970300 0.142933
H2    H     H_    0.342673 0.096470 0.388253 0.188864
H3    H     H_    0.209385 0.157118 0.472306 0.196950
H4    H     H_    0.106797 0.941863 0.512338 0.262046
H5    H     H_    0.128947 0.968628 0.379731 0.222701
H6    H     H_    0.240678 0.875247 0.433804 0.273237
H7    H     H_    0.520359 0.030713 0.755595 0.158067
H8    H     H_    0.687321 0.981014 0.719792 0.140178
H9    H     H_    0.620823 0.784720 0.821253 0.258035
H10   H     H_    0.602629 0.926687 0.894787 0.215572
H11   H     H_    0.457103 0.837499 0.856883 0.254228
H12   H     H_    0.664818 0.123048 0.569902 0.152954
H13   H     H_    0.710067 0.850477 0.238445 0.391290
H14   H     H_    0.108118 0.450401 0.678931 0.188443
H15   H     H_    0.209925 0.328575 0.625730 0.170646
H16   H     H_    0.026804 0.169043 0.637005 0.251261
H17   H     H_    0.030706 0.244827 0.756609 0.213010
H18   H     H_    0.908563 0.280628 0.678235 0.289851
H19   H     H_    0.032797 0.372684 0.176660 0.383479
H20   H     H_    0.151441 0.602665 0.371985 0.096147
H21   H     H_    0.187113 0.534740 0.969429 0.152547
H22   H     H_    0.273509 0.689913 0.935617 0.150118
H23   H     H_    0.187814 0.775960 0.098133 0.254334
H24   H     H_    0.051988 0.705196 0.036001 0.212318
H25   H     H_    0.106170 0.622429 0.136644 0.298571
H26   H     H_    0.799854 0.749114 0.684090 0.362325
N1    N     N_2   0.147970 0.498670 0.498970 0.066860
N2    N     N_2   0.852310 0.498640 0.498940 0.022713
O1    O     O_R   0.386960 0.680940 0.500020 -0.622048
O2    O     O_2   0.861259 0.507050 0.694457 -0.324965
O3    O     O_2   0.018287 0.663063 0.598243 -0.361750
O4    O     O_3   0.774468 0.701605 0.625115 -0.493200
O5    O     O_3   0.340959 0.062439 0.541585 -0.628590
O6    O     O_3   0.532027 0.872980 0.662803 -0.616642
O7    O     O_2   0.469195 0.914771 0.306549 -0.348580
O8    O     O_2   0.651167 0.058798 0.358807 -0.279123
O9    O     O_3   0.698262 0.829332 0.310136 -0.537890
O10   O     O_3   0.079214 0.389437 0.535723 -0.564157
O11   O     O_2   0.810815 0.333598 0.317676 -0.244280
O12   O     O_R   0.613100 0.680900 0.499980 -0.539900
O13   O     O_2   0.865977 0.547281 0.245683 -0.339334
O14   O     O_3   0.055862 0.399949 0.242821 -0.581007
O15   O     O_R   0.370650 0.500000 0.640370 -0.667444
O16   O     O_R   0.596800 0.499960 0.640330 -0.529188
O17   O     O_R   0.386900 0.319100 0.500020 -0.656776
O18   O     O_R   0.613040 0.319060 0.499980 -0.586605
O19   O     O_R   0.403200 0.500040 0.359670 -0.618632
O20   O     O_R   0.629350 0.500000 0.359630 -0.530728
O21   O     O_3   0.346898 0.592289 0.046080 -0.591320
S1    S     S_3+6 0.882445 0.591136 0.604575 0.085992
S2    S     S_3+6 0.586606 0.925086 0.363838 -0.008882
S3    S     S_3+6 0.913628 0.445970 0.304724 0.017202
Zn1   Zn    Zn3+2 0.349000 0.500030 0.500020 1.008484
Zn2   Zn    Zn3+2 0.651000 0.499970 0.499980 1.155331

loop_
_geom_bond_atom_site_label_1
_geom_bond_atom_site_label_2
_ccdc_geom_bond_type
C5    C8    S    
C3    O19   A    
N1    Zn1   S    
C13   H4    S    
C9    H21   S    
C6    C7    S    
O18   Zn2   S    
C2    O17   A    
H26   O4    S    
C9    C10   S    
C12   C24   S    
O8    S2    D    
O1    Zn1   S    
O15   Zn1   S    
C11   H3    S    
C23   S3    S    
C4    C8    T    
O14   S3    S    
C14   C15   S    
C3    O20   A    
C9    H22   S    
O3    S1    D    
C2    O18   A    
C21   S2    S    
O9    S2    S    
C9    O21   S    
C1    C21   S    
C11   C13   S    
O2    S1    D    
C18   H12   S    
C23   N2    D    
C7    C12   T    
O13   S3    D    
C16   O10   S    
C6    O21   S    
H19   O14   S    
C5    H1    S    
C15   H11   S    
O16   Zn2   S    
N2    S1    S    
C14   H8    S    
C10   H24   S    
C5    C6    D    
C14   O6    S    
C22   H20   S    
C17   H17   S    
O4    S1    S    
O11   S3    D    
C24   O16   A    
C16   H15   S    
C20   O6    S    
C3    C4    S    
C1    O12   A    
O7    S2    D    
C13   H6    S    
O19   Zn1   S    
O12   Zn2   S    
C20   C21   D    
N2    Zn2   S    
C18   C20   S    
C18   C19   D    
C11   H2    S    
C17   H18   S    
C13   H5    S    
C10   H23   S    
C14   H7    S    
C1    O1    A    
C22   C23   S    
C22   N1    D    
O20   Zn2   S    
H13   O9    S    
C15   H10   S    
N1    O10   S    
C2    C19   S    
C11   O5    S    
C10   H25   S    
O17   Zn1   S    
C15   H9    S    
C19   O5    S    
C16   H14   S    
C16   C17   S    
C24   O15   A    
C17   H16   S    
