data_mof_unit_50918.cif
_audit_creation_date              2012-12-11T15:15:47-0500
_audit_creation_method            fapswitch 2.2
_symmetry_space_group_name_H-M    P1
_symmetry_Int_Tables_number       1
_space_group_crystal_system       triclinic
_cell_length_a                    18.805935
_cell_length_b                    18.82428
_cell_length_c                    20.388029
_cell_angle_alpha                 107.134177
_cell_angle_beta                  106.481696
_cell_angle_gamma                 110.941369
_cell_volume                      5797.53439874

loop_
_atom_site_label
_atom_site_type_symbol
_atom_type_description
_atom_site_fract_x
_atom_site_fract_y
_atom_site_fract_z
_atom_type_partial_charge
C1    C     C_R   0.086534 0.088170 0.354470 -0.146186
C2    C     C_R   0.245007 0.069378 0.545965 -0.150310
C3    C     C_R   0.153036 0.221723 0.710044 -0.150303
C4    C     C_R   0.760771 0.925722 0.503755 -0.144257
C5    C     C_R   0.997418 0.762721 0.429841 -0.151135
C6    C     C_R   0.229902 0.272170 0.713185 0.052161
C7    C     C_R   0.945288 0.708703 0.449641 0.087336
C8    C     C_R   0.251891 0.996499 0.539523 0.097647
C9    C     C_R   0.018718 0.977656 0.725227 0.036127
C10   C     C_R   0.943740 0.577178 0.373255 -0.262087
C11   C     C_R   0.913461 0.616613 0.419981 0.114181
C12   C     C_R   0.755357 0.994290 0.546495 0.087419
C13   C     C_R   0.858940 0.569138 0.443916 -0.262178
C14   C     C_R   0.844928 0.487390 0.431133 0.142837
C15   C     C_R   0.884475 0.452309 0.392459 0.027345
C16   C     C_R   0.839272 0.819561 0.281884 -0.125822
C17   C     C_R   0.930555 0.495660 0.360163 0.143229
C18   C     C_R   0.799055 0.443710 0.462932 -0.207546
C19   C     C_R   0.800038 0.370220 0.463559 -0.204243
C20   C     C_R   0.847156 0.340276 0.432632 0.140023
C21   C     C_R   0.885683 0.378614 0.393287 0.026559
C22   C     C_R   0.933271 0.348909 0.362110 0.142078
C23   C     C_R   0.757438 0.797799 0.274507 0.037286
C24   C     C_R   0.971173 0.387206 0.322868 -0.206327
C25   C     C_R   0.969811 0.460428 0.321892 -0.208363
C26   C     C_R   0.864394 0.279310 0.447881 -0.256329
C27   C     C_R   0.922666 0.259566 0.427326 0.115927
C28   C     C_R   0.948111 0.195264 0.520062 -0.129257
C29   C     C_R   0.950143 0.288116 0.378184 -0.258054
C30   C     C_R   0.404445 0.063863 0.635792 0.434763
C31   C     C_R   0.327189 0.990716 0.579776 -0.063735
C32   C     C_R   0.326076 0.912417 0.551894 -0.297120
C33   C     C_R   0.401022 0.909517 0.562806 0.147971
C34   C     C_R   0.963240 0.219612 0.465216 0.074145
C35   C     C_R   0.478245 0.985697 0.604517 -0.053376
C36   C     C_R   0.480662 0.062627 0.644157 0.046707
C37   C     C_R   0.399016 0.832897 0.525074 -0.184331
C38   C     C_R   0.472129 0.833005 0.522329 -0.212500
C39   C     C_R   0.547628 0.909686 0.557469 0.142375
C40   C     C_R   0.761101 0.813010 0.346667 -0.127809
C41   C     C_R   0.551891 0.985740 0.601802 0.063601
C42   C     C_R   0.627948 0.062832 0.637977 0.152432
C43   C     C_R   0.631878 0.137771 0.683122 -0.255974
C44   C     C_R   0.558829 0.137594 0.686792 -0.128666
C45   C     C_R   0.230628 0.228070 0.645862 -0.134421
C46   C     C_R   0.616749 0.912420 0.543949 -0.268112
C47   C     C_R   0.689772 0.990297 0.573243 0.112256
C48   C     C_R   0.696803 0.064574 0.623896 -0.264156
C49   C     C_R   0.288373 0.362162 0.767846 0.144063
C50   C     C_R   0.284246 0.395978 0.837014 -0.194199
C51   C     C_R   0.340018 0.480194 0.889628 -0.152547
C52   C     C_R   0.026274 0.201842 0.455355 -0.130778
C53   C     C_R   0.401333 0.532635 0.874170 0.226424
C54   C     C_R   0.404749 0.499444 0.804716 -0.187895
C55   C     C_R   0.348602 0.415158 0.751801 -0.162791
C56   C     C_R   0.920243 0.756267 0.494334 -0.142903
C57   C     C_R   0.621868 0.756598 0.076728 -0.158656
C58   C     C_R   0.692663 0.786239 0.143861 -0.186062
C59   C     C_R   0.601304 0.734041 0.200920 -0.170972
C60   C     C_R   0.530626 0.704644 0.133894 -0.183258
C61   C     C_R   0.540327 0.712166 0.070262 0.230050
C62   C     C_2   0.471286 0.616064 0.934401 -0.218837
C63   C     C_2   0.465521 0.660376 0.995844 -0.232114
C64   C     C_R   0.829620 0.065887 0.567997 -0.147467
C65   C     C_R   0.682965 0.772419 0.205604 0.143915
C66   C     C_R   0.107867 0.028696 0.237437 0.142440
C67   C     C_R   0.174429 0.928411 0.483197 -0.118013
C68   C     C_R   0.125113 0.964394 0.203036 -0.188759
C69   C     C_R   0.161339 0.969790 0.152596 -0.160465
C70   C     C_R   0.179365 0.038954 0.134773 0.228212
C71   C     C_R   0.167718 0.105916 0.173418 -0.182520
C72   C     C_R   0.132149 0.100827 0.224306 -0.179928
C73   C     C_R   0.180201 0.033711 0.917490 -0.159692
C74   C     C_R   0.141793 0.037560 0.850234 -0.187912
C75   C     C_R   0.024442 0.897778 0.802934 -0.173323
C76   C     C_R   0.018044 0.948037 0.290538 -0.142026
C77   C     C_R   0.062540 0.894189 0.870397 -0.181258
C78   C     C_R   0.033037 0.052135 0.717986 -0.127655
C79   C     C_R   0.138644 0.963657 0.929581 0.226469
C80   C     C_2   0.198073 0.038396 0.069081 -0.221389
C81   C     C_2   0.164470 0.965804 0.005893 -0.221373
C82   C     C_R   0.062175 0.970901 0.793632 0.143459
C83   C     C_R   0.066224 0.021783 0.288055 0.045545
C84   C     C_R   0.963161 0.910833 0.653326 -0.129969
H1    H     H_    0.135462 0.152959 0.377401 0.092988
H2    H     H_    0.832676 0.597388 0.477799 0.116689
H3    H     H_    0.767156 0.469295 0.491652 0.129186
H4    H     H_    0.721394 0.859771 0.488020 0.086139
H5    H     H_    0.769038 0.340417 0.492903 0.130943
H6    H     H_    0.838671 0.254099 0.482108 0.119179
H7    H     H_    0.991379 0.269903 0.358321 0.117205
H8    H     H_    0.006763 0.364091 0.297600 0.128247
H9    H     H_    0.004223 0.492506 0.295724 0.127884
H10   H     H_    0.267444 0.854126 0.514553 0.138462
H11   H     H_    0.339974 0.773783 0.493611 0.124463
H12   H     H_    0.869724 0.732402 0.510273 0.085926
H13   H     H_    0.468488 0.773946 0.489140 0.127102
H14   H     H_    0.610550 0.854209 0.506142 0.118055
H15   H     H_    0.860085 0.817139 0.237493 0.095592
H16   H     H_    0.753561 0.124780 0.649081 0.118887
H17   H     H_    0.690451 0.197237 0.712520 0.135054
H18   H     H_    0.562914 0.197238 0.718992 0.178444
H19   H     H_    0.239849 0.356841 0.851984 0.111751
H20   H     H_    0.754718 0.818466 0.146597 0.117268
H21   H     H_    0.591469 0.723011 0.247554 0.110086
H22   H     H_    0.403953 0.643203 0.995931 0.130869
H23   H     H_    0.155786 0.861999 0.462948 0.096047
H24   H     H_    0.452552 0.538231 0.792301 0.116656
H25   H     H_    0.353572 0.391948 0.699014 0.112713
H26   H     H_    0.903046 0.199136 0.541859 0.095781
H27   H     H_    0.532590 0.633284 0.933714 0.133902
H28   H     H_    0.337732 0.502080 0.943959 0.110672
H29   H     H_    0.468230 0.670551 0.130028 0.110519
H30   H     H_    0.110315 0.909670 0.214645 0.113900
H31   H     H_    0.173949 0.093265 0.843147 0.119343
H32   H     H_    0.963566 0.845034 0.759768 0.112253
H33   H     H_    0.135966 0.905489 0.007616 0.129020
H34   H     H_    0.074450 0.116094 0.762478 0.095775
H35   H     H_    0.181512 0.160083 0.160894 0.111870
H36   H     H_    0.240686 0.086855 0.960819 0.115604
H37   H     H_    0.120524 0.151749 0.251031 0.112607
H38   H     H_    0.709947 0.806226 0.362669 0.095365
H39   H     H_    0.221106 0.098402 0.065897 0.129580
H40   H     H_    0.172793 0.918698 0.126174 0.112715
H41   H     H_    0.053620 0.211891 0.416930 0.094513
H42   H     H_    0.853144 0.129096 0.610806 0.087276
H43   H     H_    0.002541 0.884550 0.254201 0.087862
H44   H     H_    0.354935 0.120275 0.687578 0.315665
H45   H     H_    0.941423 0.844201 0.637550 0.098341
H46   H     H_    0.631036 0.765561 0.029101 0.115126
H47   H     H_    0.029581 0.839292 0.878269 0.112508
H48   H     H_    0.273932 0.253017 0.623168 0.092454
H49   H     H_    0.293299 0.134323 0.582085 0.146810
H50   H     H_    0.124647 0.241881 0.745972 0.090616
H51   H     H_    0.018021 0.745049 0.386200 0.087175
H52   H     H_    0.983475 0.611545 0.352007 0.116105
N1    N     N_R   0.052580 0.056040 0.395500 -0.035924
N2    N     N_R   0.890210 0.849400 0.355780 -0.038701
N3    N     N_R   0.997110 0.161140 0.539580 -0.040520
N4    N     N_R   0.841950 0.845400 0.395490 -0.038917
N5    N     N_R   0.045360 0.165140 0.499870 -0.040760
N6    N     N_R   0.877490 0.041510 0.539580 -0.038143
N7    N     N_R   0.009820 0.969030 0.355780 -0.036628
N8    N     N_R   0.158050 0.154600 0.604510 -0.040471
N9    N     N_R   0.954640 0.834860 0.500130 -0.038474
N10   N     N_R   0.122510 0.958490 0.460420 -0.043291
N11   N     N_R   0.990180 0.030970 0.644220 -0.038517
N12   N     N_R   0.947420 0.943960 0.604500 -0.039042
N13   N     N_R   0.165270 0.045500 0.500140 -0.043939
N14   N     N_R   0.109790 0.150600 0.644220 -0.037136
N15   N     N_R   0.002890 0.838860 0.460420 -0.039076
N16   N     N_R   0.834730 0.954500 0.499860 -0.038399
Ni1   Ni    Ni4+2 0.104370 0.104380 0.500010 0.211651
Ni2   Ni    Ni4+2 0.895630 0.895620 0.499990 0.210940
Ni3   Ni    Ni4+2 0.006300 0.904810 0.408930 0.209427
Ni4   Ni    Ni4+2 0.993700 0.095190 0.591070 0.211944
O1    O     O_3   0.407350 0.136991 0.680208 -0.784841

loop_
_geom_bond_atom_site_label_1
_geom_bond_atom_site_label_2
_ccdc_geom_bond_type
N2    Ni3   S    
C30   O1    S    
C32   H10   S    
C25   H9    S    
C51   H28   S    
C6    C45   A    
C72   H37   S    
C27   C29   A    
C11   C13   A    
C41   C42   A    
C14   C18   A    
C66   C68   A    
C35   C36   A    
C3    C6    A    
N5    Ni1   S    
C39   C41   A    
C53   C54   A    
C7    C11   S    
C26   C27   A    
C59   H21   S    
C64   N6    A    
C5    H51   S    
C22   C29   A    
C10   H52   S    
C38   H13   S    
C30   C31   A    
C12   C64   A    
C10   C17   A    
C23   C40   A    
C81   H33   S    
C84   H45   S    
C56   N9    A    
C37   H11   S    
C56   H12   S    
C18   C19   A    
C77   H47   S    
N6    N16   A    
N8    Ni1   S    
C61   C63   S    
N13   Ni1   S    
N8    N14   A    
C66   C83   S    
C46   C47   A    
C66   C72   A    
N10   Ni3   S    
N11   N12   A    
C68   C69   A    
C13   H2    S    
C45   N8    A    
C50   H19   S    
C70   C71   A    
N15   Ni3   S    
C4    C12   A    
C9    C82   S    
C2    N13   A    
C84   N12   A    
N1    N7    A    
C28   C34   A    
C59   C60   A    
C73   H36   S    
N14   Ni4   S    
C21   C22   A    
C55   H25   S    
C60   H29   S    
C28   N3    A    
N12   Ni2   S    
C7    C56   A    
C74   C82   A    
C12   C47   S    
C4    N16   A    
C24   H8    S    
C76   C83   A    
H44   O1    S    
C77   C79   A    
C27   C34   S    
C1    H1    S    
C48   H16   S    
C16   N2    A    
C2    H49   S    
C62   H27   S    
C70   C80   S    
C57   H46   S    
C24   C25   A    
C5    C7    A    
C44   H18   S    
C69   H40   S    
C28   H26   S    
C49   C55   A    
C33   C37   A    
C60   C61   A    
C51   C53   A    
C43   C44   A    
C43   H17   S    
C37   C38   A    
C19   H5    S    
N10   N13   A    
C53   C62   S    
C58   C65   A    
N7    Ni3   S    
C47   C48   A    
C26   H6    S    
C62   C63   D    
C50   C51   A    
C73   C79   A    
N1    Ni1   S    
C75   C82   A    
C42   C48   A    
C63   H22   S    
N11   Ni4   S    
C75   C77   A    
N9    N15   A    
N2    N4    A    
C78   N11   A    
C8    C67   A    
C39   C46   A    
N9    Ni2   S    
N16   Ni2   S    
C16   C23   A    
C64   H42   S    
C22   C24   A    
C36   C44   A    
C58   H20   S    
C42   C43   A    
C73   C74   A    
C29   H7    S    
C1    N1    A    
C79   C81   S    
C15   C17   A    
C54   C55   A    
C3    N14   A    
C78   H34   S    
C8    C31   S    
C31   C32   A    
C2    C8    A    
C18   H3    S    
C80   C81   D    
C54   H24   S    
C67   N10   A    
C52   H41   S    
C16   H15   S    
C57   C61   A    
C4    H4    S    
C71   H35   S    
C1    C83   A    
C40   H38   S    
C34   C52   A    
C52   N5    A    
C5    N15   A    
C30   C36   A    
C3    H50   S    
C17   C25   A    
C32   C33   A    
C23   C65   S    
C19   C20   A    
C71   C72   A    
C59   C65   A    
N3    N5    A    
C67   H23   S    
C57   C58   A    
C38   C39   A    
C20   C26   A    
N3    Ni4   S    
C74   H31   S    
C40   N4    A    
C33   C35   A    
C9    C78   A    
C6    C49   S    
C46   H14   S    
C69   C70   A    
C35   C41   A    
C10   C11   A    
C9    C84   A    
C76   N7    A    
C15   C21   A    
C20   C21   A    
C45   H48   S    
C49   C50   A    
N4    Ni2   S    
C76   H43   S    
C14   C15   A    
C75   H32   S    
N6    Ni4   S    
C13   C14   A    
C68   H30   S    
C80   H39   S    
