data_mof_unit_38505.cif
_audit_creation_date              2012-12-11T15:53:46-0500
_audit_creation_method            fapswitch 2.2
_symmetry_space_group_name_H-M    P1
_symmetry_Int_Tables_number       1
_space_group_crystal_system       triclinic
_cell_length_a                    10.69513
_cell_length_b                    10.684611
_cell_length_c                    16.974059
_cell_angle_alpha                 80.5817
_cell_angle_beta                  99.096844
_cell_angle_gamma                 118.877757
_cell_volume                      1668.55596708

loop_
_atom_site_label
_atom_site_type_symbol
_atom_type_description
_atom_site_fract_x
_atom_site_fract_y
_atom_site_fract_z
_atom_type_partial_charge
C1    C     C_R   0.384543 0.284981 0.631735 0.538339
C2    C     C_R   0.517549 0.704870 0.735890 -0.160911
C3    C     C_R   0.497765 0.721500 0.812604 -0.035178
C4    C     C_3   0.096831 0.493012 0.772591 -0.247275
C5    C     C_3   0.120322 0.473893 0.690471 -0.244396
C6    C     C_R   0.400214 0.615461 0.686348 -0.014238
C7    C     C_1   0.849415 0.669456 0.702574 -0.053601
C8    C     C_1   0.896328 0.703915 0.769215 -0.056840
C9    C     C_1   0.365039 0.235288 0.714359 -0.034559
C10   C     C_1   0.334056 0.188271 0.781775 -0.031325
C11   C     C_1   0.333969 0.666745 0.278571 -0.055426
C12   C     C_R   0.413920 0.619324 0.601698 0.553578
C13   C     C_1   0.320742 0.676076 0.207769 -0.053341
C14   C     C_R   0.944425 0.719597 0.178963 0.009015
C15   C     C_R   0.968414 0.623344 0.237224 0.004649
C16   C     C_R   0.929644 0.603388 0.313633 0.028825
C17   C     C_R   0.870747 0.798057 0.281839 -0.153132
C18   C     C_R   0.909485 0.817535 0.204079 -0.143863
C19   C     C_3   0.928020 0.468705 0.236880 -0.269813
C20   C     C_3   0.885166 0.445982 0.321087 -0.264377
C21   C     C_R   0.865731 0.679826 0.334417 0.018084
C22   C     C_R   0.300999 0.120803 0.170510 0.022975
C23   C     C_R   0.780885 0.621125 0.626175 0.534246
C24   C     C_R   0.192188 0.130020 0.199852 0.007975
C25   C     C_R   0.200340 0.147283 0.278203 0.012100
C26   C     C_R   0.416108 0.120468 0.305076 -0.158848
C27   C     C_R   0.407413 0.103553 0.224331 -0.159492
C28   C     C_3   0.129870 0.229185 0.169609 -0.140403
C29   C     C_3   0.142589 0.253788 0.256391 -0.258737
C30   C     C_R   0.317734 0.153385 0.330621 0.022493
C31   C     C_R   0.947097 0.725022 0.851398 0.551894
C32   C     C_R   0.317224 0.705144 0.899124 0.555487
C33   C     C_R   0.286802 0.119057 0.858610 0.549361
C34   C     C_R   0.350079 0.224077 0.401235 0.562086
C35   C     C_R   0.958952 0.720688 0.095053 0.565872
C36   C     C_R   0.311063 0.702911 0.124616 0.577462
C37   C     C_R   0.280778 0.098403 0.087890 0.551375
C38   C     C_R   0.364442 0.655359 0.361387 0.564168
C39   C     C_R   0.776569 0.624633 0.401084 0.551819
C40   C     C_R   0.357188 0.649431 0.838908 0.006835
C41   C     C_R   0.251879 0.536881 0.796270 0.007974
C42   C     C_R   0.273276 0.519911 0.721413 0.007654
Cr1   Cr    Cr6+3 0.608440 0.389080 0.519680 1.019439
Cr2   Cr    Cr6+3 0.288640 0.400090 0.490760 1.002862
Cr3   Cr    Cr6+3 0.602940 0.710800 0.489510 1.014132
Cr4   Cr    Cr6+3 0.052530 0.947560 0.964210 1.051723
Cr5   Cr    Cr6+3 0.059970 0.626800 0.992920 1.025177
Cr6   Cr    Cr6+3 0.373320 0.938440 0.995370 1.036349
H1    H     H_    0.621619 0.769515 0.712796 0.140371
H2    H     H_    0.835071 0.412350 0.193182 0.164103
H3    H     H_    0.767994 0.376273 0.324701 0.156800
H4    H     H_    0.505754 0.120761 0.345141 0.134037
H5    H     H_    0.486740 0.084084 0.203758 0.143854
H6    H     H_    0.017677 0.173291 0.142230 0.117898
H7    H     H_    0.222687 0.364356 0.270324 0.157870
H8    H     H_    0.071346 0.582309 0.771342 0.143447
H9    H     H_    0.025469 0.390418 0.806258 0.160534
H10   H     H_    0.063321 0.360016 0.676927 0.154546
H11   H     H_    0.107081 0.551621 0.642111 0.158523
H12   H     H_    0.829514 0.864985 0.297027 0.137033
H13   H     H_    0.899079 0.900648 0.162152 0.144364
H14   H     H_    0.022441 0.452714 0.234638 0.137830
O1    O     O_R   0.754020 0.497590 0.609930 -0.510919
O2    O     O_R   0.295080 0.533620 0.397890 -0.506793
O3    O     O_R   0.485280 0.746620 0.388440 -0.504992
O4    O     O_R   0.720550 0.696220 0.420010 -0.501006
O5    O     O_3   0.500010 0.499990 0.499980 -0.288697
O6    O     O_R   0.163320 0.092900 0.874450 -0.504510
O7    O     O_R   0.934650 0.822080 0.882840 -0.460878
O8    O     O_R   0.915520 0.604140 0.893670 -0.500375
O9    O     O_R   0.191760 0.638110 0.923230 -0.505682
O10   O     O_R   0.406180 0.826930 0.920660 -0.498039
O11   O     O_R   0.358620 0.062870 0.901950 -0.489484
O12   O     O_R   0.481420 0.271390 0.600630 -0.480256
O13   O     O_R   0.163910 0.085460 0.050210 -0.520848
O14   O     O_R   0.935200 0.815170 0.045770 -0.484648
O15   O     O_R   0.916120 0.596690 0.069430 -0.506567
O16   O     O_R   0.192310 0.631200 0.086170 -0.507671
O17   O     O_R   0.406770 0.819480 0.096420 -0.506811
O18   O     O_R   0.359170 0.055960 0.064880 -0.512478
O19   O     O_3   0.161940 0.837600 0.984160 -0.308710
O20   O     O_R   0.263810 0.254550 0.589590 -0.510129
O21   O     O_R   0.300820 0.531200 0.560890 -0.509919
O22   O     O_R   0.491480 0.744020 0.564270 -0.502529
O23   O     O_R   0.726290 0.693800 0.583010 -0.518961
O24   O     O_R   0.747830 0.500190 0.434090 -0.519548
O25   O     O_R   0.475680 0.273800 0.437630 -0.497697
O26   O     O_R   0.257620 0.257160 0.413750 -0.518300
H15   H     H_    0.955028 0.416526 0.367419 0.145501
C43   C     C_1   0.226686 0.353142 0.118175 0.216380
N1    N     N_1   0.304550 0.446412 0.076629 -0.274050
H16   H     H_    0.036703 0.213248 0.279574 0.123996
C44   C     C_1   0.620175 0.823687 0.858488 0.249011
N2    N     N_1   0.717644 0.906075 0.895282 -0.253795

loop_
_geom_bond_atom_site_label_1
_geom_bond_atom_site_label_2
_ccdc_geom_bond_type
C5    C42   S    
C44   N2    T    
C41   C42   A    
C14   C18   A    
C19   C20   S    
Cr2   O21   S    
Cr4   O14   S    
Cr1   O1    S    
C7    C8    T    
C32   O10   A    
Cr2   O2    S    
C15   C19   S    
C26   C27   A    
C16   C21   A    
C5    H10   S    
C1    O12   A    
Cr6   O17   S    
C28   C29   S    
C20   H3    S    
Cr2   O20   S    
C6    C12   S    
C4    C41   S    
C19   H14   S    
C15   C16   A    
Cr6   O19   S    
C12   O22   A    
Cr4   O7    S    
C31   O8    A    
C4    H9    S    
Cr3   O5    S    
C9    C10   T    
Cr1   O12   S    
C23   O1    A    
C37   O13   A    
C4    H8    S    
C8    C31   S    
C2    C6    A    
Cr6   O10   S    
Cr4   O13   S    
C32   O9    A    
C38   O2    A    
C25   C29   S    
C37   O18   A    
C35   O14   A    
C5    H11   S    
C1    C9    S    
C24   C25   A    
C13   C36   S    
C14   C35   S    
C30   C34   S    
Cr5   O19   S    
C29   H7    S    
C1    O20   A    
C22   C37   S    
C35   O15   A    
C17   C21   A    
C12   O21   A    
C11   C38   S    
Cr3   O23   S    
Cr5   O8    S    
Cr4   O6    S    
C2    H1    S    
C26   H4    S    
Cr4   O19   S    
C21   C39   S    
C38   O3    A    
C16   C20   S    
C17   C18   A    
C3    C44   S    
C34   O26   A    
Cr5   O9    S    
C33   O11   A    
C40   C41   A    
C3    C40   A    
C26   C30   A    
C22   C27   A    
Cr3   O3    S    
C39   O4    A    
C22   C24   A    
Cr3   O22   S    
Cr5   O15   S    
C25   C30   A    
C28   H6    S    
Cr1   O24   S    
Cr6   O11   S    
C24   C28   S    
C4    C5    S    
C36   O17   A    
C27   H5    S    
C18   H13   S    
C20   H15   S    
C39   O24   A    
Cr1   O25   S    
Cr6   O18   S    
C2    C3    A    
C23   O23   A    
C36   O16   A    
C11   C13   T    
C19   H2    S    
C43   N1    T    
C7    C23   S    
C10   C33   S    
C34   O25   A    
C32   C40   S    
C17   H12   S    
C31   O7    A    
Cr1   O5    S    
C6    C42   A    
Cr3   O4    S    
C14   C15   A    
Cr2   O5    S    
C28   C43   S    
Cr5   O16   S    
Cr2   O26   S    
C29   H16   S    
C33   O6    A    
