data_mof_unit_62955.cif
_audit_creation_date              2012-12-11T14:48:22-0500
_audit_creation_method            fapswitch 2.2
_symmetry_space_group_name_H-M    P1
_symmetry_Int_Tables_number       1
_space_group_crystal_system       triclinic
_cell_length_a                    8.294148
_cell_length_b                    15.184253
_cell_length_c                    22.955609
_cell_angle_alpha                 98.548013
_cell_angle_beta                  90.074478
_cell_angle_gamma                 99.419774
_cell_volume                      2819.40108366

loop_
_atom_site_label
_atom_site_type_symbol
_atom_type_description
_atom_site_fract_x
_atom_site_fract_y
_atom_site_fract_z
_atom_type_partial_charge
Ba1   Ba    Ba6+2 0.857590 0.542650 0.472590 1.713108
Ba2   Ba    Ba6+2 0.332250 0.457420 0.527420 1.714274
Br1   Br    Br    0.674070 0.359162 0.089088 -0.426528
Br2   Br    Br    0.439080 0.058029 0.395218 -0.588920
Br3   Br    Br    0.413279 0.817376 0.679306 -0.560741
Br4   Br    Br    0.217245 0.739403 0.561247 -0.591614
C1    C     C_3   0.739142 0.878242 0.331854 0.014930
C2    C     C_R   0.189106 0.527980 0.928974 -0.007210
C3    C     C_R   0.139990 0.534482 0.870672 0.611745
C4    C     C_3   0.193770 0.774948 0.312638 0.250359
C5    C     C_R   0.883602 0.441530 0.882963 0.600641
C6    C     C_R   0.918842 0.448300 0.944155 -0.066417
C7    C     C_R   0.074344 0.489264 0.966771 -0.045885
C8    C     C_R   0.350183 0.560378 0.950662 -0.046058
C9    C     C_R   0.395581 0.552914 0.008279 -0.036456
C10   C     C_R   0.278522 0.519603 0.047530 0.000090
C11   C     C_R   0.116218 0.490583 0.027222 -0.083877
C12   C     C_3   0.673904 0.782678 0.343613 0.389991
C13   C     C_R   0.803608 0.412017 0.982875 -0.072497
C14   C     C_R   0.839450 0.419604 0.043439 0.324443
C15   C     C_R   0.996772 0.461467 0.066895 -0.062772
C16   C     C_3   0.115267 0.775245 0.252564 -0.009688
C17   C     C_R   0.038807 0.477148 0.128331 0.650213
C18   C     C_R   0.321327 0.512704 0.106150 0.651434
C19   C     C_2   0.780590 0.484322 0.767393 -0.071286
C20   C     C_3   0.731713 0.483021 0.703448 -0.068460
C21   C     C_1   0.015222 0.507238 0.680626 0.077908
C22   C     C_2   0.063265 0.502473 0.735635 -0.125809
C23   C     C_3   0.480519 0.305900 0.335240 0.451445
C24   C     C_2   0.940438 0.491248 0.784288 0.172687
C25   C     C_R   0.398454 0.560225 0.235515 -0.064009
C26   C     C_R   0.448598 0.563348 0.294128 -0.052945
C27   C     C_R   0.187922 0.477413 0.314220 0.038365
C28   C     C_3   0.203236 0.762961 0.643715 0.683780
C29   C     C_R   0.145752 0.463720 0.253343 -0.065344
C30   C     C_R   0.247741 0.507515 0.212144 0.211694
C31   C     C_2   0.868322 0.467642 0.662381 -0.281661
C32   C     C_R   0.744772 0.231811 0.520945 -0.325935
C33   C     C_R   0.838356 0.174088 0.541157 0.010235
C34   C     C_3   0.627732 0.314208 0.295857 -0.274187
C35   C     C_R   0.778763 0.081301 0.534336 -0.149436
C36   C     C_R   0.635517 0.043215 0.499697 -0.006192
C37   C     C_R   0.562874 0.102580 0.468601 0.176985
C38   C     C_R   0.608540 0.197253 0.484055 0.042629
C39   C     C_R   0.410162 0.909095 0.470021 -0.064229
C40   C     C_3   0.094263 0.834835 0.657425 -0.281692
C41   C     C_R   0.359580 0.817452 0.450659 0.004640
C42   C     C_R   0.591948 0.786427 0.503679 0.106535
C43   C     C_R   0.655740 0.879304 0.513545 -0.114345
C44   C     C_R   0.569488 0.942815 0.493188 0.011920
C45   C     C_3   0.067429 0.269596 0.685824 0.327547
C46   C     C_R   0.456926 0.755751 0.464900 -0.231152
C47   C     C_3   0.960093 0.268457 0.403496 0.305759
C48   C     C_3   0.916987 0.166527 0.385458 -0.334603
C49   C     C_3   0.716623 0.668604 0.651247 0.315904
C50   C     C_3   0.735911 0.703158 0.717271 -0.304887
C51   C     C_3   0.028003 0.242847 0.746242 0.014352
C52   C     C_3   0.580550 0.236353 0.659573 0.333068
C53   C     C_3   0.572869 0.145251 0.680488 -0.295654
C54   C     C_R   0.340093 0.526188 0.333556 -0.277346
H1    H     H_    0.713743 0.779295 0.389228 0.011457
H2    H     H_    0.830551 0.645414 0.635368 -0.011990
H3    H     H_    0.613048 0.611632 0.643657 0.052497
H4    H     H_    0.871631 0.896159 0.343045 0.110832
H5    H     H_    0.828708 0.765051 0.725636 0.139038
H6    H     H_    0.775357 0.652764 0.741764 0.047723
H7    H     H_    0.618216 0.718708 0.735210 0.176977
H8    H     H_    0.538574 0.770993 0.339961 -0.114207
H9    H     H_    0.675532 0.926739 0.360214 0.067665
H10   H     H_    0.466030 0.372231 0.360614 -0.052173
H11   H     H_    0.619905 0.254957 0.260568 0.162054
H12   H     H_    0.079601 0.850692 0.705707 0.138714
H13   H     H_    0.638476 0.376735 0.275472 0.120511
H14   H     H_    0.737364 0.312269 0.321590 0.133859
H15   H     H_    0.189947 0.311029 0.687972 0.109039
H16   H     H_    0.975343 0.310794 0.675644 -0.077302
H17   H     H_    0.031106 0.304708 0.779206 0.059038
H18   H     H_    0.903882 0.202082 0.744925 0.089562
H19   H     H_    0.709170 0.261336 0.649511 -0.062104
H20   H     H_    0.502940 0.225552 0.618758 0.056114
H21   H     H_    0.645915 0.102613 0.651450 0.074566
H22   H     H_    0.444392 0.109876 0.678831 0.158458
H23   H     H_    0.148726 0.898093 0.640909 0.126871
H24   H     H_    0.222976 0.706376 0.314450 -0.018543
H25   H     H_    0.621813 0.154203 0.726380 0.159477
H26   H     H_    0.683604 0.378177 0.966264 0.158822
H27   H     H_    0.521857 0.576053 0.022621 0.128855
H28   H     H_    0.479936 0.600252 0.209393 0.165504
H29   H     H_    0.442931 0.589223 0.922609 0.123959
H30   H     H_    0.191293 0.512963 0.745997 0.181416
H31   H     H_    0.684880 0.486824 0.799396 0.134068
H32   H     H_    0.035404 0.417117 0.239206 0.145854
H33   H     H_    0.377305 0.531674 0.379253 0.076858
H34   H     H_    0.972961 0.811616 0.635718 0.125777
H35   H     H_    0.306666 0.826315 0.318471 0.072351
H36   H     H_    0.844464 0.435057 0.617105 0.065252
H37   H     H_    0.321179 0.953219 0.468859 0.131852
H38   H     H_    0.849506 0.040389 0.554890 0.095438
H39   H     H_    0.768456 0.899954 0.538868 0.086311
H40   H     H_    0.412100 0.684084 0.454473 0.078862
H41   H     H_    0.787377 0.303896 0.529184 0.063342
H42   H     H_    0.007367 0.720774 0.244508 0.150641
H43   H     H_    0.075399 0.841313 0.251270 0.149418
H44   H     H_    0.851677 0.295754 0.421334 -0.037072
H45   H     H_    0.058884 0.282967 0.437696 0.086316
H46   H     H_    0.806289 0.149894 0.356010 0.159558
H47   H     H_    0.893891 0.132284 0.424538 0.057876
H48   H     H_    0.020041 0.140015 0.361899 0.182655
I1    I     I_    0.280676 0.251356 0.274433 -0.329881
I2    I     I_    0.703334 0.894497 0.242178 -0.255578
I3    I     I_    0.279347 0.754246 0.182378 -0.372790
I4    I     I_    0.198905 0.166150 0.774714 -0.313383
N1    N     N_R   0.988828 0.489264 0.846553 -0.424275
N2    N     N_R   0.202031 0.498288 0.148381 -0.426627
O1    O     O_2   0.888680 0.450300 0.360330 -0.471658
O2    O     O_2   0.174788 0.177088 0.536429 -0.460260
O3    O     O_3   0.065611 0.192424 0.643485 -0.590864
O4    O     O_3   0.129270 0.451230 0.431380 -0.489136
O5    O     O_3   0.578310 0.608920 0.529980 -0.484864
O6    O     O_2   0.337770 0.279070 0.470480 -0.441962
O7    O     O_3   0.495102 0.240028 0.370822 -0.577823
O8    O     O_2   0.395518 0.442541 0.704936 -0.500530
O9    O     O_3   0.523775 0.297607 0.703693 -0.557535
O10   O     O_2   0.231286 0.582453 0.842429 -0.583936
O11   O     O_2   0.760288 0.391229 0.862272 -0.575844
O12   O     O_3   0.686251 0.739834 0.622914 -0.589480
O13   O     O_2   0.929147 0.476194 0.163582 -0.524026
O14   O     O_2   0.465644 0.517792 0.118692 -0.541452
O15   O     O_3   0.676100 0.614850 0.396630 -0.497866
O16   O     O_2   0.781647 0.550450 0.292966 -0.430626
O17   O     O_3   0.010859 0.305941 0.353342 -0.613806
O18   O     O_3   0.737014 0.718448 0.303503 -0.569574
O19   O     O_2   0.851930 0.720960 0.529560 -0.439103
O20   O     O_3   0.095720 0.661380 0.425720 -0.438418
O21   O     O_2   0.029680 0.821229 0.467521 -0.449432
O22   O     O_3   0.082541 0.798535 0.355817 -0.594750
O23   O     O_2   0.301020 0.549730 0.639710 -0.456857
O24   O     O_3   0.060450 0.548840 0.568630 -0.463124
O25   O     O_3   0.513610 0.385220 0.603380 -0.486547
O26   O     O_3   0.139973 0.687315 0.670206 -0.630208
O27   O     O_3   0.611400 0.391150 0.470030 -0.493613
O28   O     O_3   0.093990 0.338690 0.574280 -0.502530
P1    P     P_3+3 0.054670 0.423610 0.368990 1.010626
P2    P     P_3+3 0.674060 0.707690 0.546600 1.052132
P3    P     P_3+3 0.145775 0.776719 0.424045 1.020961
P4    P     P_3+3 0.135040 0.576460 0.631020 1.065584
P5    P     P_3+3 0.044092 0.221167 0.572894 0.962150
P6    P     P_3+3 0.659840 0.610919 0.320489 1.011316
P7    P     P_3+3 0.516426 0.278210 0.447422 1.014858
P8    P     P_3+3 0.543752 0.402817 0.679379 0.979835

loop_
_geom_bond_atom_site_label_1
_geom_bond_atom_site_label_2
_ccdc_geom_bond_type
C49   C50   S    
C41   P3    S    
C18   N2    Am   
C2    C7    A    
C34   H11   S    
C35   C36   A    
C12   O18   S    
C13   C14   A    
C53   H22   S    
C13   H26   S    
C30   N2    S    
Ba2   O4    S    
O27   P7    S    
C33   C35   A    
C47   C48   S    
C4    C16   S    
C52   O9    S    
C48   H47   S    
C27   P1    S    
Ba2   O25   S    
O8    P8    D    
C23   I1    S    
C5    O11   D    
C4    O22   S    
C32   H41   S    
Ba1   O15   S    
C32   C33   A    
C51   I4    S    
C47   H44   S    
C12   H8    S    
C9    C10   A    
C49   H2    S    
C3    O10   D    
C34   H13   S    
C42   P2    S    
Ba1   Ba2   S    
Ba1   O5    S    
C28   O26   S    
O15   P6    S    
C45   O3    S    
C29   C30   A    
O7    P7    S    
C10   C11   A    
O21   P3    D    
C49   H3    S    
C47   O17   S    
C40   H12   S    
O22   P3    S    
C52   H20   S    
C54   H33   S    
O9    P8    S    
C10   C18   A    
O5    P2    S    
Ba1   O19   S    
O28   P5    S    
O24   P4    S    
C39   C41   A    
O1    P1    D    
C19   H31   S    
C48   H46   S    
O16   P6    D    
Ba2   O24   S    
C51   H17   S    
O23   P4    D    
C20   P8    S    
C45   H16   S    
O4    P1    S    
O26   P4    S    
Ba2   O6    S    
C2    C3    A    
C52   C53   S    
C46   H40   S    
C11   C15   A    
C16   H43   S    
Br4   C28   S    
C31   H36   S    
C23   O7    S    
O18   P6    S    
C37   C38   A    
C53   H25   S    
C8    H29   S    
C32   C38   A    
Ba1   P1    S    
C43   H39   S    
C25   C26   A    
C40   H34   S    
C49   O12   S    
C5    C6    A    
C1    C12   S    
Br3   C28   S    
O6    P7    D    
Br1   C14   S    
C12   H1    S    
C14   C15   A    
C4    H35   S    
C52   H19   S    
C36   C44   S    
C28   C40   S    
C42   C43   A    
C43   C44   A    
C27   C54   A    
C15   C17   A    
Ba2   O28   S    
O12   P2    S    
C36   C37   A    
C26   C54   A    
Ba1   O20   S    
O17   P1    S    
C17   O13   D    
C23   H10   S    
C19   C24   D    
O20   P3    S    
O19   P2    D    
C2    C8    A    
C25   H28   S    
C8    C9    A    
Ba2   O23   S    
C51   H18   S    
C53   H21   S    
C45   H15   S    
C1    H9    S    
O2    P5    D    
Ba2   O5    S    
C20   C31   S    
C41   C46   A    
C26   P6    S    
Br2   C37   S    
C48   H48   S    
Ba2   P4    S    
C50   H7    S    
O25   P8    S    
C38   P7    S    
C16   H42   S    
C1    I2    S    
C7    C11   A    
O3    P5    S    
C3    N1    Am   
C22   C24   S    
C19   C20   S    
Ba1   P2    S    
C39   H37   S    
C29   H32   S    
C17   N2    Am   
C39   C44   A    
C21   C31   D    
C21   P4    S    
C50   H6    S    
C6    C13   A    
C4    H24   S    
C27   C29   A    
C34   H14   S    
Ba1   O4    S    
C5    N1    Am   
C1    H4    S    
Ba1   O27   S    
C40   H23   S    
C47   H45   S    
C45   C51   S    
C42   C46   A    
C6    C7    A    
C16   I3    S    
C9    H27   S    
C33   P5    S    
C21   C22   D    
C18   O14   D    
Ba2   O27   S    
C25   C30   A    
C22   H30   S    
Ba1   O1    S    
C23   C34   S    
C35   H38   S    
Ba1   O24   S    
C50   H5    S    
C24   N1    S    
