data_mof_unit_33624.cif
_audit_creation_date              2013-03-05T15:53:27-0500
_audit_creation_method            fapswitch 2.2
_symmetry_space_group_name_H-M    P1
_symmetry_Int_Tables_number       1
_space_group_crystal_system       triclinic
_cell_length_a                    14.111519
_cell_length_b                    10.746464
_cell_length_c                    9.920246
_cell_angle_alpha                 91.230396
_cell_angle_beta                  91.206523
_cell_angle_gamma                 92.331151
_cell_volume                      1502.44096292

loop_
_atom_site_label
_atom_site_type_symbol
_atom_site_description
_atom_site_fract_x
_atom_site_fract_y
_atom_site_fract_z
_atom_type_partial_charge
O1    O     O_R   0.500000 0.316780 0.614690 -0.643982
O2    O     O_R   0.499990 0.316750 0.385360 -0.558393
C1    C     C_R   0.503937 0.260690 0.498798 0.912642
O3    O     O_R   0.373720 0.500010 0.614690 -0.581037
O4    O     O_R   0.373710 0.499990 0.385360 -0.542230
C2    C     C_R   0.329286 0.499681 0.498820 0.920312
Zn1   Zn    Zn3+2 0.500010 0.500020 0.653130 0.997300
Zn2   Zn    Zn3+2 0.499990 0.499980 0.346870 1.029912
O5    O     O_R   0.500010 0.683250 0.614640 -0.571140
O6    O     O_R   0.500000 0.683220 0.385310 -0.565182
O7    O     O_R   0.626290 0.500010 0.614640 -0.589785
O8    O     O_R   0.626280 0.499990 0.385310 -0.621555
C3    C     C_R   0.507459 0.739781 0.501537 1.019296
C4    C     C_R   0.670388 0.494211 0.500943 0.931341
C5    C     C_1   0.227732 0.497592 0.496612 -0.151564
C6    C     C_1   0.142353 0.495088 0.496842 0.016991
C7    C     C_1   0.042405 0.491925 0.498747 0.017923
C8    C     C_1   0.957055 0.489802 0.500775 0.000146
C9    C     C_1   0.857141 0.488775 0.502590 -0.002633
C10   C     C_1   0.771844 0.489885 0.502835 -0.105635
C11   C     C_R   0.642764 0.147406 0.672281 -0.352478
H1    H     H_    0.644350 0.247371 0.672395 0.190712
C12   C     C_R   0.707529 0.093276 0.759236 0.434215
C13   C     C_R   0.715827 0.964555 0.753744 0.402673
C14   C     C_R   0.658774 0.890343 0.662212 0.186424
C15   C     C_R   0.584829 0.943728 0.584712 -0.154390
C16   C     C_R   0.579916 0.074335 0.586438 -0.058382
C17   C     C_R   0.515854 0.129244 0.495823 -0.233120
C18   C     C_R   0.462630 0.058147 0.399476 0.402277
C19   C     C_R   0.454905 0.931260 0.412748 0.399950
C20   C     C_R   0.516731 0.873302 0.502024 -0.256992
H2    H     H_    0.647290 0.473115 0.128353 0.147916
C21   C     C_R   0.325535 0.465945 0.113064 0.420817
C22   C     C_R   0.245575 0.522515 0.054207 0.232828
C23   C     C_R   0.260602 0.604503 0.945893 0.280884
C24   C     C_R   0.347224 0.603336 0.878210 0.413997
C25   C     C_R   0.421163 0.531379 0.929202 -0.110183
C26   C     C_R   0.416403 0.501127 0.066461 -0.058966
N1    N     N_R   0.499190 0.498800 0.142780 -0.068735
C27   C     C_R   0.581234 0.484039 0.073600 -0.077697
H3    H     H_    0.644471 0.457313 0.878126 0.150551
C28   C     C_R   0.579886 0.475971 0.930094 -0.044600
N2    N     N_R   0.499160 0.498720 0.857170 -0.071564
O9    O     O_3   0.410419 0.113560 0.299500 -0.590731
C29   C     C_3   0.459168 0.102246 0.177049 -0.192398
H4    H     H_    0.458599 0.003704 0.140352 0.167552
H5    H     H_    0.533476 0.141111 0.186729 0.159050
H6    H     H_    0.422705 0.156325 0.098995 0.177617
O10   O     O_3   0.191048 0.681383 0.899534 -0.569965
C30   C     C_3   0.171223 0.770893 0.000533 -0.254431
H7    H     H_    0.235824 0.807662 0.057088 0.147369
H8    H     H_    0.118995 0.732394 0.072254 0.203738
H9    H     H_    0.138747 0.851070 0.951435 0.166637
O11   O     O_3   0.363105 0.690006 0.779858 -0.536892
C31   C     C_3   0.409716 0.796936 0.839958 -0.225770
H10   H     H_    0.483235 0.776859 0.873163 0.173982
H11   H     H_    0.370146 0.834986 0.926177 0.136112
H12   H     H_    0.414532 0.870866 0.763811 0.166765
O12   O     O_3   0.762594 0.163418 0.853095 -0.573826
C32   C     C_3   0.816079 0.258698 0.789686 -0.344897
H13   H     H_    0.773575 0.342447 0.777118 0.175576
H14   H     H_    0.844333 0.227842 0.690866 0.144182
H15   H     H_    0.877958 0.286459 0.856020 0.191731
O13   O     O_3   0.782147 0.910438 0.836374 -0.545436
C33   C     C_3   0.871839 0.919889 0.776075 -0.179488
H16   H     H_    0.900232 0.017800 0.777376 0.150575
H17   H     H_    0.869825 0.880981 0.671084 0.172536
H18   H     H_    0.922097 0.864968 0.835543 0.181715
N3    N     N_R   0.690988 0.770074 0.627895 0.197897
O14   O     O_R   0.718286 0.697171 0.723053 -0.373884
O15   O     O_R   0.721368 0.752612 0.506331 -0.456766
O16   O     O_3   0.389767 0.862966 0.331400 -0.596715
C34   C     C_3   0.302798 0.853907 0.398657 -0.302188
H19   H     H_    0.310487 0.807306 0.497252 0.166927
H20   H     H_    0.251553 0.796049 0.335388 0.189187
H21   H     H_    0.272594 0.947175 0.413335 0.176181
O17   O     O_3   0.317617 0.365255 0.198984 -0.535295
C35   C     C_3   0.245634 0.276816 0.156083 -0.228902
H22   H     H_    0.240821 0.264546 0.044292 0.106218
H23   H     H_    0.176597 0.300414 0.199239 0.202300
H24   H     H_    0.261611 0.185026 0.197140 0.210112
O18   O     O_3   0.157444 0.507049 0.112467 -0.591222
C36   C     C_3   0.088983 0.460158 0.015989 -0.274505
H25   H     H_    0.118099 0.393370 0.941560 0.130586
H26   H     H_    0.055518 0.537240 0.962618 0.217711
H27   H     H_    0.031899 0.409093 0.069883 0.172187

loop_
_geom_bond_atom_site_label_1
_geom_bond_atom_site_label_2
_geom_bond_distance
_ccdc_geom_bond_type
C31   H10   1.112774 S    
C34   H19   1.113645 S    
C9    C10   1.204277 T    
O17   C35   1.414953 S    
Zn1   O7    1.830300 S    
C15   C16   1.407846 A    
C25   C26   1.409031 A    
C32   H15   1.109377 S    
C24   C25   1.415184 A    
C8    C9    1.410031 S    
O4    C2    1.299835 A    
O7    C4    1.301151 A    
C35   H23   1.108915 S    
C5    C6    1.204079 T    
C32   H14   1.114992 S    
C22   C23   1.418058 A    
H3    C28   1.080196 S    
N3    O15   1.300724 A    
O5    C3    1.291534 A    
C2    C5    1.432037 S    
C23   C24   1.407342 A    
C6    C7    1.409978 S    
C33   H17   1.113335 S    
C23   O10   1.385895 S    
C30   H8    1.109280 S    
C12   C13   1.392983 A    
Zn2   N1    2.024181 S    
Zn1   N2    2.024760 S    
C27   C28   1.424080 A    
C11   C16   1.418166 A    
O12   C32   1.413702 S    
C13   O13   1.385077 S    
C11   H1    1.073569 S    
C34   H20   1.109516 S    
O3    Zn1   1.814613 S    
C21   C22   1.423714 A    
C29   H5    1.114281 S    
C26   N1    1.380064 A    
C30   H9    1.109241 S    
C4    C10   1.434072 S    
C13   C14   1.412307 A    
O3    C2    1.297591 A    
N1    C27   1.371242 A    
C35   H22   1.114308 S    
C30   H7    1.114258 S    
C14   C15   1.429307 A    
C29   H4    1.112045 S    
C32   H13   1.109450 S    
O1    C1    1.289890 A    
C25   N2    1.378040 A    
C12   O12   1.389490 S    
C18   C19   1.372886 A    
C36   H25   1.114960 S    
Zn2   O8    1.814611 S    
C33   H18   1.109392 S    
C7    C8    1.204309 T    
C36   H26   1.108891 S    
O8    C4    1.297409 A    
O18   C36   1.415633 S    
C31   H11   1.110966 S    
C18   O9    1.382526 S    
C34   H21   1.112910 S    
C1    C17   1.429085 S    
C28   N2    1.369795 A    
O9    C29   1.413952 S    
C29   H6    1.108584 S    
Zn1   O5    2.013786 S    
O11   C31   1.414623 S    
C17   C18   1.397537 A    
O1    Zn1   1.997704 S    
C3    C20   1.435424 S    
O2    Zn2   2.013787 S    
O16   C34   1.410097 S    
O6    C3    1.292107 A    
O4    Zn2   1.830299 S    
C19   O16   1.386807 S    
C21   C26   1.412084 A    
O13   C33   1.412139 S    
C11   C12   1.396193 A    
O2    C1    1.289038 A    
C33   H16   1.110288 S    
C35   H24   1.105093 S    
C21   O17   1.394137 S    
C19   C20   1.403141 A    
H2    C27   1.080748 S    
N3    O14   1.301658 A    
C24   O11   1.378736 S    
C15   C20   1.431813 A    
C36   H27   1.109344 S    
C14   N3    1.424232 S    
Zn2   O6    1.997704 S    
O10   C30   1.414123 S    
C31   H12   1.109046 S    
C16   C17   1.416139 A    
C22   O18   1.387786 S    
