data_mof_unit_20405.cif
_audit_creation_date              2012-10-26T21:24:49-0400
_audit_creation_method            fapswitch 2.2
_symmetry_space_group_name_H-M    P1
_symmetry_Int_Tables_number       1
_space_group_crystal_system       triclinic
_cell_length_a                    9.564556
_cell_length_b                    10.856416
_cell_length_c                    15.513561
_cell_angle_alpha                 89.453915
_cell_angle_beta                  74.269215
_cell_angle_gamma                 90.863079
_cell_volume                      1550.2139678

loop_
_atom_site_label
_atom_site_type_symbol
_atom_type_description
_atom_site_fract_x
_atom_site_fract_y
_atom_site_fract_z
_atom_type_partial_charge
C1    C     C_R   0.997707 0.262551 0.502768 0.551569
C2    C     C_R   0.231473 0.560141 0.046147 0.052784
C3    C     C_R   0.328413 0.514939 0.093548 -0.007301
C4    C     C_R   0.918183 0.499106 0.672032 0.562861
C5    C     C_R   0.084370 0.577272 0.090727 -0.110813
C6    C     C_R   0.032763 0.553049 0.182151 -0.154244
C7    C     C_R   0.271458 0.486185 0.185056 -0.121722
C8    C     C_R   0.104662 0.066483 0.531713 0.037112
C9    C     C_R   0.989875 0.129837 0.513879 -0.047868
C10   C     C_R   0.865112 0.062721 0.510010 -0.128797
C11   C     C_R   0.866978 0.934213 0.509390 -0.143169
C12   C     C_R   0.675764 0.506384 0.908376 0.038768
C13   C     C_R   0.993765 0.871378 0.512062 -0.046451
C14   C     C_R   0.106977 0.939476 0.530899 0.051414
C15   C     C_3   0.267132 0.940570 0.488924 0.299526
C16   C     C_R   0.999658 0.737940 0.502094 0.543060
C17   C     C_3   0.263887 0.080054 0.490392 0.321097
C18   C     C_R   0.606896 0.543427 0.427411 0.078442
C19   C     C_R   0.543563 0.442056 0.566206 0.505000
C20   C     C_R   0.394898 0.443281 0.566566 0.089830
C21   C     C_R   0.459538 0.542998 0.426824 0.116280
C22   C     C_3   0.476770 0.671370 0.389094 -0.115650
C23   C     C_R   0.775387 0.471937 0.956939 0.048647
C24   C     C_3   0.636154 0.669369 0.388206 -0.218505
C25   C     C_R   0.081746 0.500457 0.328011 0.523538
C26   C     C_R   0.872952 0.495073 0.770289 0.003748
C27   C     C_R   0.127171 0.510107 0.229997 -0.008448
C28   C     C_R   0.922048 0.453596 0.912465 -0.079778
C29   C     C_R   0.970928 0.466257 0.819709 -0.067978
C30   C     C_R   0.727275 0.515227 0.814627 -0.103645
C31   C     C_2   0.446866 0.683072 0.298879 0.203699
C32   C     C_R   0.527567 0.526736 0.954643 -0.019672
C33   C     C_R   0.478598 0.501688 0.048393 0.033050
C34   C     C_R   0.582148 0.467230 0.094083 -0.073427
C35   C     C_R   0.727591 0.454347 0.049195 -0.114673
C36   C     C_R   0.427574 0.573414 0.910480 -0.080123
C37   C     C_R   0.282812 0.589869 0.955334 0.366536
Cu1   Cu    Cu3+1 0.140670 0.499980 0.500000 0.996317
Cu2   Cu    Cu3+1 0.859330 0.500020 0.500000 1.038680
F1    F     F_    0.340594 0.892656 0.546948 -0.570158
F2    F     F_    0.333666 0.130502 0.549539 -0.555872
F3    F     F_    0.580612 0.381762 0.633359 -0.604703
F4    F     F_    0.192939 0.636854 0.909366 -0.636711
H1    H     H_    0.802939 0.428404 0.087042 0.106921
H2    H     H_    0.715678 0.668720 0.321170 0.168866
H3    H     H_    0.662574 0.736182 0.435256 0.148028
H4    H     H_    0.920352 0.571307 0.215679 0.136165
H5    H     H_    0.998544 0.427377 0.949354 0.136965
H6    H     H_    0.084097 0.449862 0.786595 0.162250
H7    H     H_    0.655129 0.533668 0.773864 0.158870
H8    H     H_    0.555959 0.451921 0.165324 0.128291
H9    H     H_    0.458276 0.602306 0.841243 0.153891
H10   H     H_    0.335454 0.683885 0.295257 0.135483
H11   H     H_    0.009547 0.612471 0.055489 0.183907
H12   H     H_    0.769524 0.108769 0.502184 0.192290
H13   H     H_    0.771768 0.885264 0.502093 0.165180
H14   H     H_    0.297923 0.903213 0.420086 0.020214
H15   H     H_    0.293236 0.124972 0.423002 0.060626
H16   H     H_    0.314253 0.398979 0.621131 0.166203
H17   H     H_    0.337134 0.446412 0.224018 0.125059
H18   H     H_    0.414208 0.735654 0.438294 0.182216
N1    N     N_R   0.648210 0.500930 0.499430 -0.236747
N2    N     N_R   0.352300 0.500890 0.499430 -0.281429
O1    O     O_R   0.118810 0.319640 0.500000 -0.486554
O2    O     O_R   0.881230 0.319680 0.499990 -0.466594
O3    O     O_R   0.055580 0.499970 0.629840 -0.507684
O4    O     O_R   0.818000 0.500010 0.629830 -0.437926
O5    O     O_R   0.118770 0.680320 0.500010 -0.488565
O6    O     O_R   0.881190 0.680360 0.500000 -0.519669
O7    O     O_R   0.182000 0.499990 0.370170 -0.529120
O8    O     O_R   0.944420 0.500030 0.370160 -0.511202
O9    O     O_2   0.544747 0.696882 0.230025 -0.518184

loop_
_geom_bond_atom_site_label_1
_geom_bond_atom_site_label_2
_ccdc_geom_bond_type
Cu1   O7    S    
C18   C21   A    
Cu2   O2    S    
C19   C20   A    
C29   H6    S    
C12   C23   A    
C28   C29   A    
C34   H8    S    
C18   C24   S    
C24   H2    S    
C32   C36   A    
C36   C37   A    
C3    C7    A    
Cu1   Cu2   S    
C3    C33   A    
C19   N1    A    
C7    C27   A    
C34   C35   A    
Cu1   O3    S    
C8    C9    A    
C1    O2    A    
C16   O5    A    
C9    C10   A    
C36   H9    S    
C19   F3    S    
C17   H15   S    
C30   H7    S    
C13   C14   A    
C12   C32   A    
C15   H14   S    
Cu1   O1    S    
C22   C31   S    
C5    H11   S    
C1    C9    S    
C6    H4    S    
C18   N1    A    
C37   F4    S    
C10   H12   S    
C6    C27   A    
C33   C34   A    
Cu2   O6    S    
C23   C28   A    
C31   H10   S    
C20   H16   S    
C35   H1    S    
C25   O8    A    
C31   O9    D    
Cu1   O5    S    
C26   C30   A    
C23   C35   A    
C22   C24   S    
C2    C5    A    
C1    O1    A    
C7    H17   S    
Cu1   N2    S    
C15   C17   S    
Cu2   N1    S    
C28   H5    S    
C8    C14   A    
C12   C30   A    
Cu2   O4    S    
C16   O6    A    
C4    O4    A    
C4    C26   S    
C25   C27   S    
C8    C17   S    
C24   H3    S    
C32   C33   A    
C20   N2    A    
C2    C3    A    
C22   H18   S    
C4    O3    A    
C11   C13   A    
C2    C37   A    
C5    C6    A    
C17   F2    S    
C15   F1    S    
C21   N2    A    
C10   C11   A    
C26   C29   A    
C13   C16   S    
Cu2   O8    S    
C14   C15   S    
C25   O7    A    
C21   C22   S    
C11   H13   S    
