data_mof_unit_7518.cif
_audit_creation_date              2012-12-11T15:56:01-0500
_audit_creation_method            fapswitch 2.2
_symmetry_space_group_name_H-M    P1
_symmetry_Int_Tables_number       1
_space_group_crystal_system       triclinic
_cell_length_a                    11.051666
_cell_length_b                    11.159864
_cell_length_c                    18.680897
_cell_angle_alpha                 91.036704
_cell_angle_beta                  90.188823
_cell_angle_gamma                 58.939125
_cell_volume                      1973.28809555

loop_
_atom_site_label
_atom_site_type_symbol
_atom_type_description
_atom_site_fract_x
_atom_site_fract_y
_atom_site_fract_z
_atom_type_partial_charge
C1    C     C_R   0.389502 0.705125 0.389271 0.556998
C2    C     C_R   0.199377 0.376278 0.220196 0.206784
C3    C     C_R   0.204686 0.393955 0.295344 -0.023876
C4    C     C_R   0.374862 0.343100 0.396237 0.583417
C5    C     C_R   0.947137 0.731009 0.441279 0.201380
C6    C     C_R   0.955514 0.600949 0.449462 0.292618
C7    C     C_R   0.028796 0.492644 0.398230 0.288387
C8    C     C_R   0.092035 0.514487 0.337551 -0.048395
C9    C     C_R   0.325483 0.299271 0.331712 -0.001626
C10   C     C_R   0.833450 0.355827 0.177179 0.029285
C11   C     C_R   0.869995 0.243072 0.219879 -0.028600
C12   C     C_R   0.580924 0.020656 0.199454 0.003942
C13   C     C_R   0.851638 0.255205 0.292300 0.001092
C14   C     C_R   0.757654 0.502676 0.283859 -0.092302
C15   C     C_R   0.776269 0.489988 0.209858 0.223958
C16   C     C_R   0.727468 0.408723 0.395098 0.579484
C17   C     C_3   0.831344 0.135295 0.212600 -0.260485
C18   C     C_3   0.815722 0.144776 0.293606 -0.249725
C19   C     C_R   0.784736 0.385792 0.324293 0.007762
C20   C     C_R   0.360102 0.842585 0.174437 0.021449
C21   C     C_R   0.333112 0.931665 0.233368 0.003408
C22   C     C_R   0.351399 0.883000 0.302938 0.026461
C23   C     C_R   0.317148 0.261295 0.182255 0.040663
C24   C     C_R   0.421424 0.654548 0.255050 0.009305
C25   C     C_R   0.408603 0.702939 0.185555 -0.089164
C26   C     C_3   0.193569 0.055191 0.253258 -0.292317
C27   C     C_3   0.219601 0.008406 0.329571 -0.260624
C28   C     C_R   0.341244 0.772607 0.603152 0.546032
C29   C     C_R   0.388183 0.745887 0.315155 0.019385
C30   C     C_R   0.275195 0.269654 0.802802 -0.020347
C31   C     C_R   0.396991 0.173959 0.765232 -0.004048
C32   C     C_R   0.416445 0.193676 0.695239 -0.008454
C33   C     C_R   0.180446 0.396116 0.691034 0.219601
C34   C     C_R   0.417595 0.170096 0.299144 -0.151276
C35   C     C_R   0.162000 0.374975 0.763688 -0.064309
C36   C     C_3   0.549780 0.114208 0.782992 -0.241179
C37   C     C_3   0.571726 0.134558 0.705701 -0.241784
C38   C     C_R   0.316348 0.312328 0.658626 -0.001143
C39   C     C_R   0.834218 0.321468 0.831826 0.003912
C40   C     C_R   0.367647 0.349260 0.595008 0.528294
C41   C     C_R   0.812677 0.439945 0.797467 -0.010347
C42   C     C_R   0.810274 0.449111 0.724982 0.112244
C43   C     C_R   0.851713 0.215095 0.714043 -0.175701
C44   C     C_R   0.862054 0.204149 0.789109 -0.158957
C45   C     C_R   0.434192 0.150339 0.223802 -0.034442
C46   C     C_3   0.703876 0.589355 0.810605 -0.199780
C47   C     C_3   0.699732 0.601928 0.730028 0.109167
C48   C     C_R   0.818245 0.341886 0.681859 -0.007369
C49   C     C_R   0.292243 0.867191 0.820987 0.015260
C50   C     C_R   0.192178 0.850166 0.785301 -0.009832
C51   C     C_R   0.194568 0.839504 0.711948 0.031861
C52   C     C_R   0.763579 0.377238 0.609844 0.574978
C53   C     C_R   0.386078 0.884157 0.706398 -0.166378
C54   C     C_R   0.384567 0.892293 0.780831 -0.158618
C55   C     C_3   0.154994 0.740963 0.795797 -0.009073
C56   C     C_R   0.081477 0.643687 0.330494 -0.163753
C57   C     C_3   0.153511 0.730398 0.714886 0.142446
C58   C     C_R   0.300703 0.842895 0.672109 -0.007494
C59   C     C_R   0.902846 0.321119 0.108597 0.537879
C60   C     C_R   0.302293 0.254681 0.102419 0.597975
C61   C     C_R   0.307760 0.900992 0.105091 0.540836
C62   C     C_R   0.883489 0.308381 0.904900 0.541260
C63   C     C_R   0.269229 0.252715 0.879977 0.566707
C64   C     C_R   0.866389 0.809360 0.159748 -0.065554
C65   C     C_R   0.274043 0.898546 0.896660 0.569728
C66   C     C_R   0.833177 0.866120 0.227880 -0.154414
C67   C     C_R   0.009430 0.750156 0.381648 -0.073989
C68   C     C_R   0.694922 0.963472 0.248611 -0.108443
C69   C     C_R   0.620346 0.949348 0.131626 0.000232
C70   C     C_R   0.758228 0.847547 0.111330 0.269417
Cr1   Cr    Cr6+3 0.601740 0.606840 0.505840 1.023410
Cr2   Cr    Cr6+3 0.291500 0.601560 0.495070 1.033591
Cr3   Cr    Cr6+3 0.606780 0.291630 0.499130 1.055147
Cr4   Cr    Cr6+3 0.062440 0.063060 0.008240 1.022508
Cr5   Cr    Cr6+3 0.062950 0.375000 0.998920 1.069819
Cr6   Cr    Cr6+3 0.374550 0.061770 0.992470 1.023039
H1    H     H_    0.483180 0.087758 0.335303 0.139904
H2    H     H_    0.243360 0.073561 0.365714 0.159461
H3    H     H_    0.140053 0.985307 0.350594 0.161631
H4    H     H_    0.062576 0.445568 0.790241 0.181642
H5    H     H_    0.604850 0.002229 0.797578 0.160414
H6    H     H_    0.568003 0.182436 0.820059 0.185025
H7    H     H_    0.602741 0.213878 0.699135 0.164167
H8    H     H_    0.007780 0.847115 0.376643 0.145538
H9    H     H_    0.637337 0.034448 0.675468 0.173537
H10   H     H_    0.863453 0.127874 0.681944 0.164019
H11   H     H_    0.891575 0.105326 0.813291 0.156427
H12   H     H_    0.707798 0.606390 0.308264 0.157616
H13   H     H_    0.747441 0.647373 0.838840 0.191935
H14   H     H_    0.604848 0.603305 0.833880 0.125771
H15   H     H_    0.597602 0.626586 0.705970 0.125649
H16   H     H_    0.464872 0.893557 0.676887 0.146734
H17   H     H_    0.459431 0.912687 0.807005 0.156090
H18   H     H_    0.049607 0.784158 0.821577 0.188189
H19   H     H_    0.975599 0.738183 0.144674 0.144948
H20   H     H_    0.233322 0.626236 0.692067 0.169115
H21   H     H_    0.916944 0.849250 0.262023 0.102350
H22   H     H_    0.686044 0.000370 0.302799 0.125421
H23   H     H_    0.921170 0.035129 0.191704 0.150255
H24   H     H_    0.137738 0.659112 0.287685 0.156973
H25   H     H_    0.553651 0.962845 0.090436 0.219706
H26   H     H_    0.879067 0.803023 0.537795 0.320696
H27   H     H_    0.808642 0.662174 0.521180 0.315177
H28   H     H_    0.069098 0.309539 0.365863 0.302858
H29   H     H_    0.706828 0.595056 0.122723 0.348835
H30   H     H_    0.884830 0.718190 0.037750 0.336346
H31   H     H_    0.085059 0.485546 0.603835 0.365631
H32   H     H_    0.726186 0.706717 0.656825 0.345747
H33   H     H_    0.025142 0.771463 0.636576 0.358259
H34   H     H_    0.730292 0.173854 0.183539 0.183000
H35   H     H_    0.003665 0.532720 0.215202 0.343700
H36   H     H_    0.706647 0.185432 0.313070 0.196672
H37   H     H_    0.898250 0.051196 0.321106 0.120397
H38   H     H_    0.426981 0.633879 0.139977 0.151085
H39   H     H_    0.111689 0.041540 0.227884 0.159957
H40   H     H_    0.182333 0.157623 0.245686 0.132715
I1    I     I_    0.476953 0.448168 0.257097 -0.486679
I2    I     I_    0.324388 0.555747 0.843564 -0.429779
O1    O     O_R   0.748670 0.497520 0.427970 -0.463578
O2    O     O_R   0.417470 0.174910 0.067830 -0.549231
O3    O     O_R   0.375160 0.946380 0.070880 -0.546513
O4    O     O_R   0.476470 0.723930 0.429450 -0.513275
O5    O     O_R   0.160500 0.919670 0.926690 -0.495525
O6    O     O_R   0.933140 0.190380 0.936050 -0.505100
O7    O     O_R   0.909010 0.403210 0.925030 -0.527429
O8    O     O_R   0.179590 0.361290 0.918480 -0.474254
O9    O     O_R   0.391360 0.170840 0.907510 -0.500341
O10   O     O_R   0.350950 0.942600 0.922260 -0.524822
O11   O     O_3   0.166650 0.166610 0.999880 -0.316617
O12   O     O_R   0.300170 0.471020 0.567120 -0.515517
O13   O     O_R   0.264730 0.744140 0.416740 -0.511930
O14   O     O_R   0.309440 0.472410 0.418220 -0.494702
O15   O     O_R   0.501630 0.260530 0.414310 -0.523291
O16   O     O_R   0.727920 0.305730 0.428950 -0.475707
O17   O     O_R   0.738670 0.496020 0.588600 -0.483912
O18   O     O_R   0.467190 0.722540 0.578350 -0.523946
O19   O     O_R   0.254720 0.742640 0.577370 -0.514557
O20   O     O_3   0.885205 0.839493 0.491020 -0.719301
O21   O     O_3   0.896838 0.574629 0.507466 -0.628392
O22   O     O_3   0.042400 0.364892 0.411101 -0.650003
O23   O     O_R   0.491630 0.259030 0.574940 -0.513500
O24   O     O_3   0.730833 0.610414 0.171846 -0.686096
O25   O     O_3   0.782936 0.789504 0.043090 -0.709846
O26   O     O_3   0.066854 0.501886 0.655875 -0.630814
O27   O     O_3   0.752095 0.686199 0.707874 -0.647092
O28   O     O_3   0.016280 0.781986 0.689379 -0.657307
O29   O     O_3   0.081979 0.470959 0.182281 -0.671428
O30   O     O_R   0.718640 0.304340 0.577850 -0.498811
O31   O     O_3   0.500010 0.500010 0.500020 -0.297423
O32   O     O_R   0.186620 0.923750 0.087000 -0.511573
O33   O     O_R   0.957350 0.194160 0.084660 -0.508588
O34   O     O_R   0.935120 0.407280 0.085350 -0.466864
O35   O     O_R   0.203800 0.365060 0.067090 -0.407174

loop_
_geom_bond_atom_site_label_1
_geom_bond_atom_site_label_2
_ccdc_geom_bond_type
C66   C68   A    
C12   C69   A    
C47   O27   S    
C23   C45   A    
C22   C29   A    
C11   C13   A    
C41   C42   A    
Cr1   O4    S    
Cr4   O6    S    
H33   O28   S    
C5    C67   A    
C27   H2    S    
C16   O16   A    
C17   H34   S    
C8    C56   A    
C62   O6    A    
C5    O20   S    
C39   C41   A    
C46   H13   S    
Cr3   O23   S    
C59   O34   A    
C12   C68   A    
C24   I1    S    
Cr6   O2    S    
C49   C65   S    
C13   C18   S    
Cr6   O3    S    
C66   H21   S    
C37   H9    S    
C36   C37   S    
C18   H36   S    
C27   H3    S    
C10   C15   A    
C31   C36   S    
C34   H1    S    
Cr1   O17   S    
C5    C6    A    
C20   C25   A    
C49   C54   A    
C35   H4    S    
C6    O21   S    
C69   H25   S    
C61   O3    A    
H26   O20   S    
C20   C61   S    
C60   O35   A    
C54   H17   S    
C26   H39   S    
C36   H6    S    
C57   H20   S    
C41   C46   S    
C51   C57   S    
C64   C70   A    
C44   H11   S    
C61   O32   A    
Cr5   O34   S    
Cr4   O5    S    
C67   H8    S    
C52   O30   A    
C21   C22   A    
C55   H18   S    
C18   H37   S    
C21   C26   S    
Cr2   O14   S    
C26   H40   S    
C33   O26   S    
C23   C60   S    
C13   C19   A    
Cr3   O30   S    
C65   O10   A    
C7    C8    A    
C24   C25   A    
H30   O25   S    
C3    C8    S    
C16   O1    A    
Cr1   O31   S    
H29   O24   S    
C51   C58   A    
C50   C51   A    
C2    O29   S    
C53   C54   A    
H35   O29   S    
H28   O22   S    
Cr5   O7    S    
C64   C66   A    
C43   C44   A    
C3    C9    A    
H27   O21   S    
C15   O24   S    
Cr6   O11   S    
Cr5   O35   S    
C31   C32   A    
C48   C52   S    
C36   H5    S    
C50   C55   S    
C53   H16   S    
C1    C29   S    
C17   C18   S    
C70   O25   S    
C34   C45   A    
C42   C48   A    
C32   C37   S    
C20   C21   A    
C17   H23   S    
C6    C7    A    
C30   C35   A    
Cr2   O19   S    
Cr3   O15   S    
Cr2   O31   S    
C59   O33   A    
C22   C27   S    
C55   C57   S    
C26   C27   S    
C9    C34   A    
Cr6   O10   S    
Cr4   O33   S    
C56   H24   S    
Cr1   O18   S    
Cr2   O13   S    
H32   O27   S    
C43   C48   A    
C52   O17   A    
C39   C62   S    
C40   O12   A    
C46   C47   S    
C11   C17   S    
Cr3   O31   S    
C28   O18   A    
C43   H10   S    
C47   H15   S    
C14   C19   A    
C37   H7    S    
C28   O19   A    
C33   C38   A    
C64   H19   S    
C12   C45   S    
C1    O13   A    
C62   O7    A    
C53   C58   A    
Cr2   O12   S    
C39   C44   A    
C46   H14   S    
C28   C58   S    
C56   C67   A    
C32   C38   A    
Cr1   O1    S    
Cr5   O8    S    
C2    C3    A    
C4    C9    S    
C14   H12   S    
C25   H38   S    
C38   C40   S    
C4    O14   A    
C30   C31   A    
C7    O22   S    
C16   C19   S    
C30   C63   S    
C33   C35   A    
C60   O2    A    
C40   O23   A    
C42   C47   S    
C65   O5    A    
C69   C70   A    
C68   H22   S    
C63   O8    A    
C10   C11   A    
Cr5   O11   S    
C24   C29   A    
Cr3   O16   S    
C49   C50   A    
Cr4   O11   S    
C2    C23   A    
Cr6   O9    S    
C14   C15   A    
Cr4   O32   S    
H31   O26   S    
C57   O28   S    
C10   C59   S    
C63   O9    A    
C1    O4    A    
C4    O15   A    
C55   I2    S    
