data_mof_unit_43033.cif
_audit_creation_date              2012-12-10T17:35:34-0500
_audit_creation_method            fapswitch 2.2
_symmetry_space_group_name_H-M    P1
_symmetry_Int_Tables_number       1
_space_group_crystal_system       triclinic
_cell_length_a                    10.752304
_cell_length_b                    12.332412
_cell_length_c                    13.137754
_cell_angle_alpha                 116.238045
_cell_angle_beta                  77.83613
_cell_angle_gamma                 101.561335
_cell_volume                      1516.03983797

loop_
_atom_site_label
_atom_site_type_symbol
_atom_type_description
_atom_site_fract_x
_atom_site_fract_y
_atom_site_fract_z
_atom_type_partial_charge
C1    C     C_R   0.505166 0.855094 0.286507 0.863324
C2    C     C_3   0.121358 0.003844 0.502757 0.039917
C3    C     C_3   0.079968 0.136440 0.578762 0.413969
C4    C     C_3   0.037771 0.915082 0.553911 -0.492756
C5    C     C_R   0.387348 0.265190 0.032209 -0.149164
C6    C     C_R   0.472682 0.226259 0.835728 -0.048891
C7    C     C_R   0.544687 0.819325 0.078763 0.189013
C8    C     C_R   0.572149 0.738734 0.964456 -0.173083
C9    C     C_R   0.555384 0.614291 0.932321 -0.195589
C10   C     C_R   0.499016 0.564279 0.012124 0.044566
C11   C     C_R   0.458184 0.645186 0.126786 -0.029787
C12   C     C_R   0.739297 0.001229 0.502584 0.797076
C13   C     C_R   0.476211 0.436162 0.980268 0.084117
C14   C     C_R   0.412651 0.390978 0.062409 0.091451
C15   C     C_R   0.363305 0.470712 0.170517 -0.231789
C16   C     C_R   0.375767 0.594506 0.198929 0.273982
C17   C     C_R   0.509612 0.350918 0.867925 -0.228805
C18   C     C_R   0.415727 0.183068 0.918942 -0.189994
C19   C     C_R   0.497869 0.773121 0.163145 -0.099576
C20   C     C_R   0.701619 0.351321 0.329103 -0.297193
C21   C     C_R   0.326902 0.758592 0.645740 0.092785
C22   C     C_R   0.291022 0.662640 0.679007 -0.236749
C23   C     C_R   0.485382 0.144720 0.713541 0.792346
C24   C     C_R   0.356516 0.560291 0.625226 -0.149085
C25   C     C_R   0.458904 0.552226 0.536428 0.007985
C26   C     C_R   0.493000 0.653805 0.506070 0.300789
C27   C     C_R   0.529187 0.448164 0.476876 -0.031669
C28   C     C_R   0.630942 0.449465 0.389267 0.117367
C29   C     C_R   0.663315 0.549139 0.362013 -0.263301
C30   C     C_R   0.596555 0.648958 0.419390 -0.188895
C31   C     C_R   0.503994 0.342256 0.499447 0.015243
C32   C     C_R   0.672883 0.250554 0.354359 0.468107
C33   C     C_R   0.259770 0.001269 0.501194 0.871835
C34   C     C_3   0.950409 0.973003 0.382687 -0.363038
C35   C     C_3   0.088460 0.952758 0.377694 0.092084
C36   C     C_3   0.931770 0.129306 0.588971 -0.423724
C37   C     C_3   0.895470 0.907210 0.546172 -0.405478
C38   C     C_3   0.876383 0.002254 0.504957 0.034218
Cu1   Cu    Cu3+1 0.529690 0.098270 0.475420 1.022690
Cu2   Cu    Cu3+1 0.470310 0.901730 0.524580 0.950759
H1    H     H_    0.952276 0.050134 0.360135 0.267057
H2    H     H_    0.051466 0.943320 0.643972 0.185674
H3    H     H_    0.884784 0.145935 0.677753 0.140995
H4    H     H_    0.388318 0.086564 0.895867 0.156521
H5    H     H_    0.302883 0.435194 0.228977 0.195783
H6    H     H_    0.338947 0.230476 0.094949 0.171780
H7    H     H_    0.560291 0.378736 0.802032 0.146077
H8    H     H_    0.583580 0.560430 0.842801 0.136025
H9    H     H_    0.609899 0.772673 0.899333 0.137583
H10   H     H_    0.901589 0.890286 0.318357 0.153585
H11   H     H_    0.742080 0.550424 0.295442 0.161278
H12   H     H_    0.779912 0.352937 0.262314 0.176508
H13   H     H_    0.428999 0.334613 0.565486 0.165450
H14   H     H_    0.275676 0.837646 0.688391 0.125793
H15   H     H_    0.325520 0.489155 0.654861 0.165861
H16   H     H_    0.212302 0.667790 0.747038 0.158102
H17   H     H_    0.630704 0.720542 0.392571 0.202860
H18   H     H_    0.091444 0.852815 0.336816 0.176850
H19   H     H_    0.906655 0.202052 0.571452 0.213047
H20   H     H_    0.838349 0.923454 0.631708 0.189861
H21   H     H_    0.861791 0.813783 0.485064 0.196596
H22   H     H_    0.066196 0.821683 0.506226 0.238241
N1    N     N_R   0.574690 0.246280 0.438200 -0.205286
N2    N     N_R   0.426100 0.754320 0.561190 -0.196665
O1    O     O_R   0.537340 0.972510 0.318130 -0.509399
O2    O     O_R   0.487200 0.806530 0.359650 -0.585782
O3    O     O_R   0.707380 0.082980 0.479220 -0.552770
O4    O     O_R   0.657240 0.917000 0.520740 -0.620859
O5    O     O_R   0.512800 0.193470 0.640350 -0.597217
O6    O     O_R   0.462660 0.027490 0.681870 -0.600807
O7    O     O_R   0.342760 0.083000 0.479260 -0.518127
O8    O     O_R   0.292620 0.917020 0.520780 -0.578759
N3    N     N_3   0.120345 0.186859 0.692960 -0.608306
H23   H     H_    0.101110 0.277332 0.737452 0.241578
H24   H     H_    0.066376 0.141203 0.741449 0.199241
N4    N     N_3   0.563846 0.947946 0.108636 -0.512799
H25   H     H_    0.609449 0.966323 0.038362 0.216445
H26   H     H_    0.473379 0.977258 0.130221 0.258052
Br1   Br    Br    0.240456 0.674650 0.311817 -0.563491
Br2   Br    Br    0.778290 0.122763 0.267259 -0.494239
Br3   Br    Br    0.206786 0.006016 0.268783 -0.489627
Br4   Br    Br    0.157456 0.253477 0.512173 -0.507767

loop_
_geom_bond_atom_site_label_1
_geom_bond_atom_site_label_2
_ccdc_geom_bond_type
C2    C35   S    
Cu1   O1    S    
N3    H23   S    
C23   O5    A    
C36   H19   S    
C35   Br3   S    
C7    C8    A    
C24   H15   S    
C12   O4    A    
C11   C19   A    
C29   C30   A    
Cu2   O6    S    
C35   H18   S    
C28   C29   A    
N4    H26   S    
C29   H11   S    
C21   H14   S    
C15   C16   A    
C30   H17   S    
C4    H22   S    
C34   C35   S    
C26   N2    A    
C21   N2    A    
C33   O8    A    
C8    C9    A    
C1    O1    A    
C9    C10   A    
Cu2   O2    S    
C13   C14   A    
N3    H24   S    
C23   O6    A    
C34   H1    S    
C6    C18   A    
C12   O3    A    
C34   H10   S    
C1    C19   S    
C27   C31   A    
C31   N1    A    
C24   C25   A    
Cu1   Cu2   S    
C22   H16   S    
C5    C18   A    
C20   C28   A    
C25   C26   A    
C31   H13   S    
C2    C4    S    
C37   C38   S    
C18   H4    S    
C32   Br2   S    
C11   C16   A    
C3    Br4   S    
C1    O2    A    
Cu1   O5    S    
N4    H25   S    
C5    C14   A    
C2    C33   S    
C26   C30   A    
C7    C19   A    
C22   C24   A    
C15   H5    S    
C20   C32   A    
C6    C17   A    
Cu2   O8    S    
C34   C38   S    
Cu1   O3    S    
C17   H7    S    
C32   N1    A    
C10   C13   A    
C37   H21   S    
C7    N4    S    
C25   C27   A    
Cu1   N1    S    
C5    H6    S    
Cu2   N2    S    
C13   C17   A    
C16   Br1   S    
C36   C38   S    
C2    C3    S    
C20   H12   S    
C4    H2    S    
C3    C36   S    
C6    C23   S    
C12   C38   S    
C3    N3    S    
C37   H20   S    
C10   C11   A    
C33   O7    A    
C4    C37   S    
C9    H8    S    
Cu2   O4    S    
C27   C28   A    
Cu1   O7    S    
C14   C15   A    
C36   H3    S    
C21   C22   A    
C8    H9    S    
