data_mof_unit_31788.cif
_audit_creation_date              2013-03-05T15:53:46-0500
_audit_creation_method            fapswitch 2.2
_symmetry_space_group_name_H-M    P1
_symmetry_Int_Tables_number       1
_space_group_crystal_system       triclinic
_cell_length_a                    10.757228
_cell_length_b                    10.613165
_cell_length_c                    9.920395
_cell_angle_alpha                 88.609955
_cell_angle_beta                  89.479115
_cell_angle_gamma                 90.564221
_cell_volume                      1132.15648276

loop_
_atom_site_label
_atom_site_type_symbol
_atom_site_description
_atom_site_fract_x
_atom_site_fract_y
_atom_site_fract_z
_atom_type_partial_charge
O1    O     O_R   0.500000 0.316780 0.614690 -0.675830
O2    O     O_R   0.499990 0.316750 0.385360 -0.600453
C1    C     C_R   0.521071 0.261969 0.502449 0.887423
O3    O     O_R   0.314800 0.499990 0.614670 -0.613379
O4    O     O_R   0.314790 0.499970 0.385330 -0.634135
C2    C     C_R   0.258165 0.502617 0.498937 0.927644
Zn1   Zn    Zn3+2 0.500010 0.500020 0.653130 1.057978
Zn2   Zn    Zn3+2 0.499990 0.499980 0.346870 1.055891
O5    O     O_R   0.500010 0.683250 0.614640 -0.559484
O6    O     O_R   0.500000 0.683220 0.385310 -0.621690
O7    O     O_R   0.685210 0.500030 0.614670 -0.563936
O8    O     O_R   0.685200 0.500010 0.385330 -0.557145
C3    C     C_R   0.490791 0.740914 0.499966 0.975263
C4    C     C_R   0.742272 0.500238 0.498821 0.946897
C5    C     C_3   0.073396 0.394526 0.584704 -0.604713
H1    H     H_    0.108969 0.403274 0.689094 0.260371
H2    H     H_    0.109526 0.303286 0.548167 0.189330
C6    C     C_3   0.930164 0.390691 0.584962 0.050834
H3    H     H_    0.901203 0.301185 0.536930 0.160232
H4    H     H_    0.099729 0.630726 0.661066 0.194523
H5    H     H_    0.897206 0.635281 0.656818 0.204076
C7    C     C_3   0.072702 0.630834 0.552925 0.210470
C8    C     C_3   0.072441 0.480707 0.346219 0.114767
C9    C     C_3   0.122285 0.505651 0.493394 -0.202255
H6    H     H_    0.100684 0.382373 0.323622 0.073757
C10   C     C_3   0.878887 0.503352 0.494731 -0.326052
C11   C     C_3   0.928218 0.631419 0.550166 0.099934
C12   C     C_3   0.929565 0.480111 0.346949 0.203242
H7    H     H_    0.900014 0.383203 0.320611 0.160865
C13   C     C_R   0.556061 0.111451 0.761156 -0.157048
H8    H     H_    0.610508 0.196629 0.768608 0.241976
C14   C     C_R   0.514173 0.051888 0.879969 0.302975
C15   C     C_R   0.441163 0.943586 0.871239 -0.238872
H9    H     H_    0.396973 0.902984 0.960977 0.219120
C16   C     C_R   0.417339 0.890259 0.746602 0.325665
C17   C     C_R   0.476254 0.941226 0.626869 -0.003339
C18   C     C_R   0.529007 0.061732 0.634078 -0.023786
C19   C     C_R   0.554415 0.129191 0.512728 -0.200825
C20   C     C_R   0.589026 0.063282 0.398211 0.344865
H10   H     H_    0.579661 0.884954 0.304861 0.215091
C21   C     C_R   0.553339 0.937637 0.392671 -0.150142
C22   C     C_R   0.493701 0.876933 0.503112 -0.126751
H11   H     H_    0.628886 0.648041 0.121356 0.211485
C23   C     C_R   0.342124 0.331742 0.144708 -0.021115
H12   H     H_    0.333553 0.327506 0.251474 0.171519
C24   C     C_R   0.262929 0.251029 0.076794 -0.054783
H13   H     H_    0.201211 0.187523 0.133016 0.177114
C25   C     C_R   0.262104 0.252606 0.937332 -0.138693
H14   H     H_    0.200478 0.189697 0.884686 0.190052
C26   C     C_R   0.340526 0.334762 0.864974 -0.146004
H15   H     H_    0.334764 0.330249 0.758315 0.199095
C27   C     C_R   0.421858 0.417929 0.930210 0.143950
C28   C     C_R   0.422536 0.417083 0.074781 0.206760
N1    N     N_R   0.498810 0.498800 0.142780 -0.146859
C29   C     C_R   0.571804 0.580816 0.069297 -0.072142
C30   C     C_R   0.573656 0.579718 0.926687 0.471913
N2    N     N_R   0.498760 0.498720 0.857170 -0.144707
Cl1   Cl    Cl    0.865910 0.571985 0.208007 -0.366701
Cl2   Cl    Cl    0.147684 0.771376 0.486316 -0.433715
N3    N     N_R   0.873940 0.743886 0.484251 0.252449
O9    O     O_R   0.796585 0.812207 0.551896 -0.350121
O10   O     O_R   0.908086 0.783319 0.364414 -0.203814
N4    N     N_R   0.675597 0.115819 0.299463 0.269520
O11   O     O_R   0.729176 0.042470 0.213597 -0.262542
O12   O     O_R   0.721345 0.228602 0.312485 -0.389883
N5    N     N_R   0.536131 0.107429 0.008064 0.229012
O13   O     O_R   0.611793 0.203171 0.017889 -0.319668
O14   O     O_R   0.475668 0.066545 0.114798 -0.428358
N6    N     N_R   0.311701 0.808090 0.742817 0.208892
O15   O     O_R   0.203629 0.862025 0.744913 -0.321179
O16   O     O_R   0.319741 0.697214 0.800536 -0.366198
Cl3   Cl    Cl    0.674590 0.685635 0.841474 -0.466219
N7    N     N_R   0.882414 0.385248 0.724722 0.256290
O17   O     O_R   0.917245 0.467271 0.812638 -0.305084
O18   O     O_R   0.822650 0.284852 0.767702 -0.345921
N8    N     N_R   0.125211 0.560270 0.234813 0.283517
O19   O     O_R   0.118569 0.682235 0.234749 -0.205531
O20   O     O_R   0.146274 0.508307 0.119584 -0.345684

loop_
_geom_bond_atom_site_label_1
_geom_bond_atom_site_label_2
_geom_bond_distance
_ccdc_geom_bond_type
C5    C6    1.540895 S    
N5    O14   1.300801 A    
C29   C30   1.415043 A    
N4    O12   1.299496 A    
C21   C22   1.404224 A    
C17   C22   1.430775 A    
C16   C17   1.433000 A    
C6    C10   1.582789 S    
C8    N8    1.480070 S    
C20   C21   1.386520 A    
C28   N1    1.380169 A    
C23   H12   1.062158 S    
Zn1   O7    2.025034 S    
C12   H7    1.111412 S    
C10   C11   1.568061 S    
N3    O10   1.299344 A    
C17   C18   1.397761 A    
N8    O20   1.300205 A    
C11   N3    1.475152 S    
C19   C20   1.398044 A    
O7    C4    1.297934 A    
C5    H1    1.112967 S    
C30   N2    1.374376 A    
Zn1   O5    1.972672 S    
C6    H3    1.115939 S    
N7    O17   1.302004 A    
N6    O16   1.300112 A    
O5    C3    1.283743 A    
C24   H13   1.082756 S    
C23   C28   1.411734 A    
C1    C19   1.458959 S    
C30   Cl3   1.752235 S    
C26   C27   1.409324 A    
C8    C9    1.587285 S    
C25   C26   1.389725 A    
N5    O13   1.301699 A    
H5    C11   1.108307 S    
N7    O18   1.299974 A    
O3    Zn1   2.031951 S    
C3    C22   1.444722 S    
C23   C24   1.391959 A    
C15   H9    1.083436 S    
C24   C25   1.383327 A    
N8    O19   1.297093 A    
O3    C2    1.304462 A    
Zn2   N1    2.025150 S    
C7    Cl2   1.797470 S    
C13   C18   1.410079 A    
N3    O9    1.301478 A    
O1    C1    1.288028 A    
C18   C19   1.408854 A    
C13   H8    1.076720 S    
Zn2   O8    2.031953 S    
C2    C9    1.463871 S    
C26   H15   1.062691 S    
C8    C12   1.536851 S    
C4    C10   1.469814 S    
H11   C29   1.080656 S    
H10   C21   1.083473 S    
H4    C7    1.114025 S    
C6    N7    1.473797 S    
C7    C11   1.554804 S    
C7    C9    1.563555 S    
C27   C28   1.434102 A    
C14   N5    1.434274 S    
C5    H2    1.114445 S    
N1    C29   1.360514 A    
C5    C9    1.554143 S    
O1    Zn1   1.990848 S    
O2    Zn2   1.972672 S    
O8    C4    1.287318 A    
O6    C3    1.308224 A    
O4    Zn2   2.025033 S    
C12   Cl1   1.812356 S    
C20   N4    1.443781 S    
C10   C12   1.585255 S    
C14   C15   1.390611 A    
O2    C1    1.308940 A    
C13   C14   1.393019 A    
O4    C2    1.277257 A    
C25   H14   1.082823 S    
C15   C16   1.397024 A    
C8    H6    1.117171 S    
N6    O15   1.301102 A    
C27   N2    1.374613 A    
N4    O11   1.302266 A    
C16   N6    1.426920 S    
Zn2   O6    1.990848 S    
Zn1   N2    2.023792 S    
