data_mof_unit_9914.cif
_audit_creation_date              2013-03-05T16:50:10-0500
_audit_creation_method            fapswitch 2.2
_symmetry_space_group_name_H-M    P1
_symmetry_Int_Tables_number       1
_space_group_crystal_system       triclinic
_cell_length_a                    27.752916
_cell_length_b                    10.943228
_cell_length_c                    26.501936
_cell_angle_alpha                 91.662391
_cell_angle_beta                  89.834331
_cell_angle_gamma                 90.006555
_cell_volume                      8045.38865589

loop_
_atom_site_label
_atom_site_type_symbol
_atom_site_description
_atom_site_fract_x
_atom_site_fract_y
_atom_site_fract_z
_atom_type_partial_charge
O1    O     O_R   0.500000 0.319660 0.542350 -0.508055
O2    O     O_R   0.500000 0.680340 0.457650 -0.493027
O3    O     O_R   0.500000 0.319630 0.457650 -0.607310
O4    O     O_R   0.500000 0.680370 0.542350 -0.577620
C1    C     C_R   0.499456 0.262003 0.499321 0.891830
C2    C     C_R   0.498809 0.738237 0.500744 0.938631
O5    O     O_R   0.430260 0.500030 0.542340 -0.492420
O6    O     O_R   0.569740 0.499970 0.457660 -0.494351
O7    O     O_R   0.430270 0.500010 0.457650 -0.564363
O8    O     O_R   0.569730 0.499990 0.542350 -0.581814
C3    C     C_R   0.407238 0.496101 0.499899 0.919979
C4    C     C_R   0.592602 0.498610 0.499859 0.975204
Cu1   Cu    Cu3+1 0.500000 0.500020 0.550150 1.112791
Cu2   Cu    Cu3+1 0.500000 0.499980 0.449850 1.113600
O9    O     O_2   0.477410 0.687261 0.791614 -0.372644
O10   O     O_2   0.551257 0.322412 0.215750 -0.376256
C5    C     C_R   0.432468 0.627010 0.056424 -0.239480
C6    C     C_R   0.537257 0.278803 0.943135 -0.222175
C7    C     C_R   0.177837 0.369517 0.487180 0.697926
C8    C     C_R   0.821022 0.561818 0.466948 0.700985
O11   O     O_2   0.204393 0.267942 0.478657 -0.420797
O12   O     O_2   0.794534 0.640341 0.440316 -0.396855
N1    N     N_R   0.200764 0.480225 0.490187 -0.449597
N2    N     N_R   0.797984 0.469194 0.490784 -0.449443
C9    C     C_R   0.175468 0.587260 0.493069 0.724828
C10   C     C_R   0.822850 0.378244 0.513368 0.717793
C11   C     C_R   0.279880 0.535448 0.452597 0.334387
C12   C     C_R   0.717637 0.393131 0.463002 0.349029
C13   C     C_R   0.330002 0.543904 0.457781 0.470585
C14   C     C_R   0.667267 0.401827 0.466695 0.486657
C15   C     C_R   0.326431 0.427230 0.534750 0.340100
C16   C     C_R   0.674579 0.570543 0.528286 0.369401
C17   C     C_R   0.276198 0.430409 0.531973 -0.183504
C18   C     C_R   0.724573 0.558419 0.526007 -0.192217
C19   C     C_R   0.252613 0.483364 0.491484 0.036856
C20   C     C_R   0.746311 0.471355 0.493691 0.038263
C21   C     C_R   0.100796 0.472777 0.487151 -0.176826
C22   C     C_R   0.897880 0.471475 0.487175 -0.166258
C23   C     C_R   0.126987 0.362503 0.490396 -0.129796
C24   C     C_R   0.871827 0.571131 0.468057 -0.158175
C25   C     C_R   0.101395 0.250232 0.493831 0.301277
C26   C     C_R   0.897529 0.672249 0.448584 0.309203
C27   C     C_R   0.125141 0.586134 0.488144 -0.218933
C28   C     C_R   0.873356 0.374593 0.510387 -0.231105
C29   C     C_R   0.353970 0.490126 0.498541 -0.355636
C30   C     C_R   0.645504 0.490401 0.498901 -0.330388
H1    H     H_    0.254755 0.387500 0.560716 0.237199
H2    H     H_    0.747312 0.619352 0.548334 0.234216
C31   C     C_R   0.974628 0.366475 0.500040 -0.092341
C32   C     C_R   0.024115 0.578956 0.475542 -0.077204
C33   C     C_R   0.973761 0.571992 0.466664 -0.005832
C34   C     C_R   0.024981 0.360365 0.490791 0.008570
C35   C     C_R   0.948703 0.470152 0.484658 -0.025818
C36   C     C_R   0.050003 0.470589 0.484562 -0.023178
C37   C     C_R   0.950063 0.277093 0.527308 0.568085
C38   C     C_R   0.048686 0.691125 0.479463 0.559074
C39   C     C_R   0.900069 0.279792 0.531729 0.606873
C40   C     C_R   0.098444 0.694927 0.485649 0.616195
H3    H     H_    0.406093 0.680900 0.037327 0.182100
H4    H     H_    0.552059 0.200354 0.961096 0.206463
O13   O     O_2   0.798547 0.291730 0.538256 -0.396406
O14   O     O_2   0.199174 0.693953 0.500265 -0.394886
C41   C     C_R   0.050920 0.249265 0.487154 0.316750
C42   C     C_R   0.947737 0.662780 0.441278 0.377845
C43   C     C_R   0.379686 0.202789 0.383654 -0.249508
C44   C     C_R   0.554437 0.881446 0.675773 -0.278580
H5    H     H_    0.344814 0.244169 0.390860 0.220182
H6    H     H_    0.588036 0.878755 0.696354 0.217394
C45   C     C_R   0.408634 0.169851 0.424103 -0.233788
C46   C     C_R   0.555128 0.890768 0.623367 -0.067444
H7    H     H_    0.395334 0.183653 0.462288 0.199491
H8    H     H_    0.589224 0.902017 0.604353 0.220588
C47   C     C_R   0.453484 0.113978 0.415141 0.150242
C48   C     C_R   0.511861 0.896840 0.596440 0.113193
C49   C     C_R   0.469516 0.094469 0.365312 -0.202283
C50   C     C_R   0.467950 0.894811 0.622678 -0.234211
H9    H     H_    0.503669 0.049031 0.358306 0.218122
H10   H     H_    0.434562 0.905876 0.602188 0.220050
C51   C     C_R   0.440690 0.127663 0.324622 0.222538
C52   C     C_R   0.467095 0.893877 0.675435 0.343932
C53   C     C_R   0.395279 0.180576 0.333980 0.624717
C54   C     C_R   0.510691 0.885925 0.701996 0.625917
C55   C     C_R   0.481430 0.931475 0.458462 0.602013
C56   C     C_R   0.515437 0.069053 0.541200 0.603165
C57   C     C_R   0.497277 0.872283 0.501796 -0.276527
C58   C     C_R   0.498868 0.128390 0.498407 -0.256618
C59   C     C_R   0.511287 0.943001 0.544705 -0.116706
C60   C     C_R   0.479936 0.058949 0.457302 -0.134425
H11   H     H_    0.436258 0.740613 0.970050 0.190803
H12   H     H_    0.576975 0.246925 0.032935 0.198068
C61   C     C_R   0.467961 0.562425 0.189302 0.655721
C62   C     C_R   0.510435 0.375305 0.810423 0.640457
O15   O     O_2   0.444856 0.650376 0.216432 -0.426320
O16   O     O_2   0.517818 0.272977 0.782113 -0.410460
N3    N     N_R   0.497250 0.484337 0.214162 -0.436775
N4    N     N_R   0.497022 0.479761 0.786728 -0.442087
C63   C     C_R   0.524988 0.399807 0.188576 0.700330
C64   C     C_R   0.482955 0.580771 0.814840 0.701990
C65   C     C_R   0.536769 0.546374 0.294860 0.527269
C66   C     C_R   0.458841 0.533615 0.704806 0.546281
C67   C     C_R   0.536685 0.551561 0.347901 0.737051
C68   C     C_R   0.461898 0.546999 0.652387 0.685377
C69   C     C_R   0.462036 0.447317 0.349669 -0.050567
C70   C     C_R   0.537555 0.448128 0.650234 0.022010
C71   C     C_R   0.460301 0.442526 0.296855 -0.259261
C72   C     C_R   0.537811 0.442879 0.703176 -0.276090
C73   C     C_R   0.498336 0.490454 0.268868 0.123096
C74   C     C_R   0.497762 0.484443 0.731521 0.088289
C75   C     C_R   0.494292 0.472269 0.108466 -0.116347
C76   C     C_R   0.495079 0.473238 0.892871 -0.136982
C77   C     C_R   0.463415 0.554148 0.136014 -0.129793
C78   C     C_R   0.514775 0.373620 0.864053 -0.147083
C79   C     C_R   0.429468 0.624332 0.108947 0.388180
C80   C     C_R   0.536798 0.276194 0.890215 0.430474
C81   C     C_R   0.525623 0.393207 0.134747 -0.141966
C82   C     C_R   0.476150 0.575448 0.867794 -0.144725
N5    N     N_R   0.500000 0.499970 0.374520 -0.266764
N6    N     N_R   0.500000 0.500030 0.625480 -0.274550
H13   H     H_    0.432733 0.409236 0.370799 0.191578
H14   H     H_    0.567758 0.410773 0.629090 0.211605
H15   H     H_    0.429642 0.401448 0.277818 0.249017
H16   H     H_    0.568949 0.405526 0.721794 0.229442
C83   C     C_R   0.470240 0.563915 0.975118 0.018173
C84   C     C_R   0.521273 0.382789 0.026420 0.022184
C85   C     C_R   0.517807 0.376467 0.972387 0.006579
C86   C     C_R   0.465802 0.555580 0.028525 0.027140
C87   C     C_R   0.494367 0.471075 0.946820 0.098586
C88   C     C_R   0.493776 0.469953 0.054449 0.098817
C89   C     C_R   0.451314 0.663399 0.949377 -0.236025
C90   C     C_R   0.552573 0.307119 0.053106 -0.225929
C91   C     C_R   0.452697 0.669604 0.896884 0.419048
C92   C     C_R   0.556001 0.311823 0.105905 0.335363
F1    F     F_    0.426445 0.608011 0.628783 -0.583274
F2    F     F_    0.573150 0.610018 0.372402 -0.565029
F3    F     F_    0.974640 0.194800 0.554577 -0.555824
F4    F     F_    0.024072 0.797541 0.482859 -0.564562
S1    S     S_3+6 0.024175 0.121711 0.454637 0.166860
O17   O     O_2   0.005712 0.031226 0.491538 -0.083244
O18   O     O_2   0.982761 0.163007 0.422912 -0.234841
O19   O     O_3   0.065222 0.054051 0.416163 -0.420820
H17   H     H_    0.069810 0.970830 0.429011 0.435817
S2    S     S_3+6 0.972915 0.725216 0.385566 0.129972
O20   O     O_2   0.988090 0.855681 0.394483 -0.133790
O21   O     O_2   0.015870 0.651387 0.368213 -0.254668
O22   O     O_3   0.931212 0.719923 0.339651 -0.450132
H18   H     H_    0.946859 0.758088 0.310392 0.405836
F5    F     F_    0.365953 0.210012 0.295316 -0.560071
F6    F     F_    0.511421 0.890380 0.753085 -0.527477
S3    S     S_3+6 0.460557 0.093441 0.262571 0.128715
O23   O     O_2   0.440633 0.183793 0.226446 -0.191700
O24   O     O_2   0.514660 0.096003 0.260250 -0.203343
O25   O     O_3   0.441244 0.952781 0.245509 -0.379894
H19   H     H_    0.456606 0.897592 0.269697 0.374333
S4    S     S_3+6 0.411671 0.917593 0.706851 0.131702
O26   O     O_2   0.386523 0.797131 0.711894 -0.158598
O27   O     O_2   0.419467 0.975627 0.758241 -0.152968
O28   O     O_3   0.376915 0.009792 0.672690 -0.520932
H20   H     H_    0.345986 0.015336 0.691365 0.382805
F7    F     F_    0.462996 0.865336 0.418722 -0.610403
F8    F     F_    0.532906 0.134408 0.581682 -0.633124
S5    S     S_3+6 0.419941 0.791990 0.870559 0.119247
O29   O     O_2   0.387275 0.851137 0.909522 -0.280728
O30   O     O_2   0.454750 0.886177 0.852309 -0.125064
O31   O     O_3   0.386074 0.738704 0.822204 -0.400027
H21   H     H_    0.362846 0.805041 0.815635 0.408431
S6    S     S_3+6 0.600770 0.216041 0.132424 0.131670
O32   O     O_2   0.576577 0.118853 0.162398 -0.117175
O33   O     O_2   0.631100 0.154374 0.092057 -0.243779
O34   O     O_3   0.637280 0.299322 0.170544 -0.392491
H22   H     H_    0.649043 0.366454 0.149461 0.358139
S7    S     S_3+6 0.351797 0.334484 0.581537 0.070723
O35   O     O_2   0.395980 0.269470 0.561854 -0.310277
O36   O     O_2   0.364659 0.413210 0.626836 -0.183749
O37   O     O_3   0.311161 0.229532 0.598909 -0.490897
H23   H     H_    0.324665 0.193903 0.629740 0.401568
S8    S     S_3+6 0.650062 0.694294 0.564034 0.022005
O38   O     O_2   0.614614 0.760287 0.531833 -0.314915
O39   O     O_2   0.624796 0.646750 0.609706 -0.309152
O40   O     O_3   0.693808 0.791824 0.582716 -0.471853
H24   H     H_    0.677544 0.852920 0.605186 0.378683
S9    S     S_3+6 0.379406 0.701960 0.137241 0.129375
O41   O     O_2   0.356590 0.623807 0.176454 -0.150744
O42   O     O_2   0.396091 0.819960 0.161820 -0.167821
O43   O     O_3   0.337286 0.733078 0.093841 -0.465708
H25   H     H_    0.345783 0.814805 0.081358 0.370566
S10   S     S_3+6 0.568516 0.153104 0.859883 0.093303
O44   O     O_2   0.533058 0.067710 0.834618 -0.129436
O45   O     O_2   0.602612 0.201854 0.821128 -0.234277
O46   O     O_3   0.600530 0.074618 0.901960 -0.518487
H26   H     H_    0.615146 0.005940 0.882138 0.396906
S11   S     S_3+6 0.129605 0.116055 0.516378 0.151202
O47   O     O_2   0.093113 0.032916 0.539468 -0.151348
O48   O     O_2   0.154645 0.049410 0.473397 -0.135230
O49   O     O_3   0.170215 0.155159 0.561041 -0.487254
H27   H     H_    0.187553 0.078413 0.568063 0.407467
S12   S     S_3+6 0.870265 0.818752 0.442307 0.168374
O50   O     O_2   0.846893 0.825560 0.391377 -0.145650
O51   O     O_2   0.832904 0.839504 0.482875 -0.199279
O52   O     O_3   0.911548 0.930450 0.448495 -0.400166
H28   H     H_    0.893268 0.007527 0.445144 0.403291
F9    F     F_    0.417596 0.566228 0.729221 -0.530147
F10   F     F_    0.573616 0.596949 0.268969 -0.559178
F11   F     F_    0.639048 0.323348 0.439265 -0.607486
F12   F     F_    0.355578 0.605071 0.422710 -0.590025
S13   S     S_3+6 0.743894 0.285521 0.419727 0.152448
O53   O     O_2   0.790065 0.334385 0.398482 -0.214317
O54   O     O_2   0.754745 0.170056 0.446920 -0.208505
O55   O     O_3   0.706124 0.253774 0.371488 -0.384571
H29   H     H_    0.692555 0.172068 0.378165 0.404324
S14   S     S_3+6 0.252951 0.585755 0.396172 0.149058
O56   O     O_2   0.206544 0.519206 0.385545 -0.219013
O57   O     O_2   0.242773 0.720472 0.401509 -0.182854
O58   O     O_3   0.290606 0.559764 0.347066 -0.416687
H30   H     H_    0.302420 0.641269 0.337412 0.411865
F13   F     F_    0.878259 0.189956 0.557738 -0.521152
F14   F     F_    0.120192 0.805805 0.488941 -0.531193

loop_
_geom_bond_atom_site_label_1
_geom_bond_atom_site_label_2
_geom_bond_distance
_ccdc_geom_bond_type
C44   H6    1.082469 S    
S7    O35   1.502284 D    
O28   H20   0.990561 S    
C76   C82   1.419154 A    
C11   C13   1.400988 A    
C25   C41   1.412467 A    
C47   C49   1.402753 A    
O34   H22   0.990536 S    
C7    N1    1.368748 A    
C56   C59   1.389965 A    
C6    C80   1.402037 A    
C70   C72   1.405922 A    
Cu1   N6    1.996388 S    
C56   F8    1.362341 S    
C10   C28   1.404204 A    
C23   C25   1.424119 A    
O2    C2    1.290211 A    
S13   O53   1.502673 D    
O5    C3    1.294802 A    
C14   F11   1.358777 S    
S1    O18   1.503280 D    
N2    C20   1.436086 S    
C2    C57   1.466966 S    
C48   C50   1.401836 A    
O1    C1    1.287280 A    
C42   S2    1.785373 S    
O31   H21   0.990435 S    
C7    O11   1.346998 S    
C10   O13   1.349000 S    
C56   C58   1.401812 A    
S3    O24   1.502875 D    
C6    C85   1.408655 A    
C8    C24   1.413996 A    
C31   C35   1.414144 A    
C5    C86   1.405775 A    
S13   O55   1.683973 S    
C61   O15   1.346026 S    
C91   S5    1.779057 S    
C62   N4    1.372099 A    
H11   C89   1.077332 S    
O43   H25   0.990740 S    
O10   C63   1.343890 S    
C61   C77   1.418505 A    
O4    Cu1   1.990362 S    
C45   H7    1.082645 S    
O37   H23   0.990142 S    
C55   F7    1.361471 S    
C27   C40   1.405636 A    
S5    O30   1.501842 D    
C64   C82   1.418378 A    
S8    O40   1.682480 S    
C79   S9    1.780880 S    
C77   C79   1.424110 A    
C39   F13   1.358203 S    
O55   H29   0.990606 S    
C43   H5    1.082692 S    
N4    C64   1.371121 A    
C46   C48   1.401177 A    
C86   C88   1.411879 A    
C15   C17   1.396768 A    
C45   C47   1.403423 A    
C48   C59   1.474988 S    
C63   C81   1.426374 A    
S4    O27   1.502171 D    
C68   N6    1.365786 A    
C76   C87   1.430699 A    
C84   C88   1.414133 A    
C71   C73   1.399056 A    
S8    O39   1.502992 D    
C55   C60   1.396829 A    
N4    C74   1.465553 S    
O52   H28   0.990660 S    
C13   F12   1.359388 S    
Cu1   Cu2   2.658134 S    
C83   C89   1.404183 A    
S6    O33   1.503803 D    
C12   S13   1.774845 S    
C41   S1    1.782051 S    
S2    O22   1.681562 S    
C9    C27   1.403193 A    
C69   N5    1.362974 A    
S12   O52   1.680124 S    
O8    C4    1.290784 A    
C66   C68   1.403442 A    
C38   F4    1.350779 S    
C34   C36   1.405394 A    
O22   H18   0.990511 S    
C70   N6    1.365660 A    
C81   C92   1.430088 A    
S13   O54   1.503591 D    
S7    O37   1.682341 S    
C66   C74   1.408626 A    
C1    C58   1.461750 S    
C25   S11   1.783222 S    
C57   C59   1.412312 A    
C5    C79   1.395373 A    
S11   O47   1.502122 D    
C8    N2    1.367424 A    
C12   C20   1.410942 A    
O19   H17   0.989844 S    
S4    O28   1.681163 S    
C4    C30   1.471030 S    
S9    O42   1.502983 D    
C51   C53   1.405391 A    
C62   C78   1.427405 A    
C83   C86   1.425933 A    
C11   C19   1.410363 A    
S9    O41   1.503323 D    
O8    Cu1   1.945625 S    
C11   S14   1.775392 S    
C32   C38   1.405479 A    
C13   C29   1.413092 A    
C33   C35   1.407767 A    
C16   C18   1.394795 A    
C21   C27   1.412096 A    
C90   C92   1.402240 A    
O7    Cu2   1.945627 S    
S11   O48   1.503226 D    
C47   C60   1.481186 S    
C22   C28   1.414552 A    
C44   C54   1.397322 A    
C16   S8    1.765367 S    
C66   F9    1.356001 S    
C75   C88   1.431160 A    
C83   C87   1.412814 A    
O58   H30   0.990556 S    
C28   C39   1.408005 A    
O6    C4    1.287861 A    
Cu2   N5    1.996388 S    
C31   C37   1.407739 A    
C72   H16   1.082385 S    
C62   O16   1.345085 S    
C32   C33   1.419465 A    
C71   H15   1.081586 S    
C69   C71   1.400112 A    
C32   C36   1.413267 A    
C26   S12   1.785211 S    
O7    C3    1.289489 A    
C22   C35   1.411912 A    
S4    O26   1.500743 D    
O3    Cu2   1.990364 S    
C7    C23   1.415777 A    
C5    H3    1.076706 S    
C78   C80   1.427045 A    
S12   O51   1.503992 D    
S8    O38   1.502826 D    
C65   C67   1.405192 A    
C8    O12   1.347332 S    
S14   O57   1.503641 D    
C37   C39   1.392323 A    
C65   F10   1.356737 S    
S6    O32   1.502901 D    
C17   H1    1.083050 S    
S2    O21   1.503636 D    
S3    O25   1.679868 S    
O4    C2    1.287889 A    
O1    Cu1   1.978543 S    
C21   C36   1.411684 A    
O9    C64   1.342678 S    
S10   O45   1.503633 D    
C26   C42   1.409664 A    
S5    O31   1.682027 S    
C72   C74   1.407856 A    
S9    O43   1.684030 S    
C6    H4    1.075754 S    
C43   C45   1.397138 A    
O6    Cu2   1.947119 S    
C55   C57   1.406435 A    
S2    O20   1.500805 D    
C16   C30   1.410880 A    
C14   C30   1.407852 A    
C69   H13   1.076752 S    
C33   C42   1.415312 A    
C50   C52   1.398637 A    
C31   C34   1.419335 A    
C50   H10   1.083934 S    
S12   O50   1.503010 D    
O3    C1    1.287568 A    
C34   C41   1.413745 A    
C54   F6    1.353628 S    
N3    C63   1.367053 A    
C52   S4    1.762561 S    
N3    C73   1.449819 S    
C67   F2    1.354453 S    
S7    O36   1.501081 D    
S14   O58   1.684453 S    
C65   C73   1.402254 A    
S1    O17   1.500861 D    
N1    C19   1.439870 S    
C80   S10   1.780126 S    
C51   S3    1.762843 S    
C67   N5    1.368120 A    
S10   O46   1.682877 S    
C75   C77   1.424347 A    
S11   O49   1.683021 S    
C21   C23   1.413704 A    
S5    O29   1.504325 D    
S3    O23   1.502688 D    
C84   C90   1.406477 A    
C22   C24   1.415339 A    
N2    C10   1.364613 A    
C53   F5    1.356524 S    
C44   C46   1.395635 A    
C82   C91   1.425072 A    
C15   S7    1.772384 S    
C37   F3    1.356178 S    
S1    O19   1.683807 S    
C12   C14   1.404092 A    
C17   C19   1.398514 A    
C52   C54   1.405525 A    
C38   C40   1.391577 A    
O49   H27   0.990568 S    
C92   S6    1.784501 S    
C58   C60   1.412590 A    
C9    O14   1.349092 S    
N1    C9    1.365770 A    
O46   H26   0.990595 S    
O2    Cu2   1.978543 S    
C76   C78   1.421233 A    
C68   F1    1.353926 S    
C3    C29   1.480253 S    
C75   C81   1.424206 A    
C61   N3    1.364159 A    
O40   H24   0.990332 S    
H12   C90   1.075126 S    
O5    Cu1   1.947119 S    
C18   H2    1.082667 S    
O25   H19   0.990731 S    
C18   C20   1.398186 A    
S6    O34   1.682313 S    
S14   O56   1.502792 D    
C15   C29   1.418680 A    
C49   H9    1.083447 S    
C85   C87   1.413363 A    
C24   C26   1.424926 A    
C43   C53   1.399130 A    
C46   H8    1.079473 S    
C70   H14   1.080640 S    
S10   O44   1.502414 D    
C49   C51   1.400954 A    
C84   C85   1.435129 A    
C89   C91   1.395214 A    
C40   F14   1.355776 S    
