data_mof_unit_23784.cif
_audit_creation_date              2012-12-11T19:09:51-0500
_audit_creation_method            fapswitch 2.2
_symmetry_space_group_name_H-M    P1
_symmetry_Int_Tables_number       1
_space_group_crystal_system       triclinic
_cell_length_a                    8.518137
_cell_length_b                    14.989636
_cell_length_c                    26.885707
_cell_angle_alpha                 98.191106
_cell_angle_beta                  93.156767
_cell_angle_gamma                 81.580248
_cell_volume                      3359.17354169

loop_
_atom_site_label
_atom_site_type_symbol
_atom_type_description
_atom_site_fract_x
_atom_site_fract_y
_atom_site_fract_z
_atom_type_partial_charge
Ba1   Ba    Ba6+2 0.860050 0.456430 0.522540 1.743033
Ba2   Ba    Ba6+2 0.329780 0.543490 0.477450 1.754317
C1    C     C_3   0.758265 0.143620 0.688065 0.029757
C2    C     C_R   0.950605 0.600782 0.187331 0.644292
C3    C     C_2   0.746489 0.547538 0.272240 -0.101384
C4    C     C_3   0.203564 0.237006 0.650966 0.586795
C5    C     C_3   0.706579 0.534368 0.324406 -0.037210
C6    C     C_1   0.986854 0.486975 0.342797 0.055987
C7    C     C_2   0.021893 0.486320 0.294445 0.044592
C8    C     C_2   0.896268 0.520575 0.257026 0.214443
C9    C     C_R   0.019656 0.517297 0.104685 -0.189412
C10   C     C_R   0.003716 0.435165 0.123256 -0.084990
C11   C     C_R   0.036399 0.351651 0.090956 0.423264
C12   C     C_3   0.732735 0.211735 0.649547 0.816632
C13   C     C_R   0.990456 0.601169 0.136531 -0.052227
C14   C     C_2   0.851141 0.533382 0.359893 -0.119524
C15   C     C_2   0.339731 0.467229 0.640569 -0.207303
C16   C     C_3   0.278773 0.179360 0.691971 0.778079
C17   C     C_R   0.098700 0.432995 0.968602 -0.017490
C18   C     C_R   0.156311 0.589564 0.987297 0.048572
C19   C     C_R   0.146566 0.510415 0.952323 -0.021160
C20   C     C_R   0.078552 0.357454 0.932507 -0.082715
C21   C     C_R   0.114843 0.354476 0.882487 0.420740
C22   C     C_R   0.165869 0.430835 0.865702 -0.082327
C23   C     C_3   0.479829 0.662489 0.633585 0.278337
C24   C     C_R   0.186812 0.507932 0.901181 -0.168447
C25   C     C_R   0.248145 0.582057 0.885655 -0.043573
C26   C     C_R   0.282379 0.578384 0.833780 0.632379
C27   C     C_R   0.192595 0.432968 0.814431 0.603151
C28   C     C_3   0.258469 0.246103 0.357169 0.844178
C29   C     C_2   0.437534 0.451199 0.730679 0.091783
C30   C     C_3   0.457479 0.418952 0.675072 0.016107
C31   C     C_1   0.209146 0.519685 0.658656 -0.000772
C32   C     C_2   0.173924 0.532191 0.707518 0.241757
C33   C     C_2   0.295982 0.498439 0.746539 0.147135
C34   C     C_3   0.514557 0.669751 0.690631 -0.096703
C35   C     C_R   0.074444 0.432689 0.020600 -0.016776
C36   C     C_R   0.062792 0.515330 0.053894 -0.002820
C37   C     C_R   0.090030 0.596024 0.036031 0.050363
C38   C     C_R   0.064492 0.351736 0.040462 -0.076304
C39   C     C_R   0.996109 0.683269 0.116543 0.391698
C40   C     C_3   0.202447 0.169601 0.316676 0.687911
C41   C     C_R   0.241883 0.656454 0.973875 0.381438
C42   C     C_R   0.281331 0.654986 0.922797 0.093421
C43   C     C_R   0.038752 0.680494 0.065742 0.116614
C44   C     C_R   0.346000 0.172682 0.525264 -0.000598
C45   C     C_3   0.095982 0.798121 0.354301 0.811927
C46   C     C_R   0.576621 0.207986 0.487878 0.041567
C47   C     C_R   0.784343 0.776438 0.512204 0.146626
C48   C     C_R   0.864103 0.833635 0.489448 -0.029613
C49   C     C_R   0.795330 0.924060 0.487319 -0.168752
C50   C     C_R   0.645085 0.959552 0.507814 -0.040877
C51   C     C_R   0.561803 0.899364 0.529776 -0.103623
C52   C     C_3   0.941585 0.737676 0.656166 0.396846
C53   C     C_R   0.573910 0.052435 0.506567 0.037442
C54   C     C_R   0.418678 0.081490 0.525201 -0.071011
C55   C     C_R   0.340939 0.020569 0.545678 -0.083682
C56   C     C_3   0.092090 0.874355 0.320728 0.405259
C57   C     C_R   0.414330 0.934013 0.552220 0.432507
C58   C     C_R   0.650725 0.117955 0.487626 -0.109571
C59   C     C_R   0.424571 0.233869 0.505704 -0.258468
C60   C     C_R   0.629182 0.806327 0.528383 0.076688
C61   C     C_3   0.042902 0.777089 0.700420 0.187520
C62   C     C_3   0.719323 0.330497 0.370147 0.680422
C63   C     C_3   0.761587 0.292215 0.315742 -0.347796
C64   C     C_3   0.622722 0.767053 0.364908 0.417878
C65   C     C_3   0.614377 0.866565 0.354529 0.393233
C66   C     C_R   0.952342 0.439210 0.172945 0.579900
H1    H     H_    0.869963 0.690983 0.669773 0.114517
H2    H     H_    0.544982 0.597026 0.616021 -0.001200
H3    H     H_    0.444477 0.625561 0.706877 0.051430
H4    H     H_    0.641203 0.644922 0.698147 0.141403
H5    H     H_    0.664838 0.161820 0.716250 0.091672
H6    H     H_    0.126228 0.935554 0.345096 0.067180
H7    H     H_    0.745022 0.733030 0.356535 -0.032454
H8    H     H_    0.600532 0.767574 0.405432 -0.109674
H9    H     H_    0.720502 0.892344 0.373226 0.079026
H10   H     H_    0.033262 0.298755 0.942103 0.102192
H11   H     H_    0.088815 0.285861 0.018072 0.101325
H12   H     H_    0.140393 0.723749 0.709497 0.096667
H13   H     H_    0.652843 0.569432 0.245732 0.101825
H14   H     H_    0.297018 0.270169 0.637154 -0.082855
H15   H     H_    0.364373 0.301719 0.502755 0.081983
H16   H     H_    0.222105 0.039977 0.558755 0.121718
H17   H     H_    0.766915 0.101432 0.472161 0.097548
H18   H     H_    0.859948 0.964060 0.467706 0.108408
H19   H     H_    0.822065 0.226440 0.587029 0.322351
H20   H     H_    0.190724 0.213254 0.250319 0.281413
H21   H     H_    0.417102 0.137116 0.280666 0.158479
H22   H     H_    0.299087 0.055178 0.270084 0.210577
H23   H     H_    0.097722 0.834527 0.690053 0.019713
H24   H     H_    0.052906 0.081962 0.312570 0.313737
H25   H     H_    0.760875 0.845815 0.665887 0.160298
H26   H     H_    0.895943 0.856275 0.624417 0.160123
H27   H     H_    0.910435 0.870270 0.743023 0.300616
H28   H     H_    0.540299 0.406309 0.341201 0.319952
H29   H     H_    0.553857 0.147940 0.613947 0.212600
H30   H     H_    0.559060 0.247562 0.597466 0.080857
H31   H     H_    0.754788 0.009403 0.692603 0.153179
H32   H     H_    0.861477 0.027845 0.645562 0.213822
H33   H     H_    0.567151 0.799064 0.710618 0.214141
H34   H     H_    0.829035 0.349205 0.390237 0.015730
H35   H     H_    0.372712 0.793850 0.700719 0.193235
H36   H     H_    0.409318 0.198342 0.753676 0.282456
H37   H     H_    0.265250 0.721293 0.385518 0.336778
H38   H     H_    0.036210 0.668532 0.347223 0.149431
H39   H     H_    0.137977 0.687207 0.299257 0.208477
H40   H     H_    0.155408 0.807798 0.255143 0.347418
H41   H     H_    0.873857 0.952334 0.324248 0.174848
H42   H     H_    0.943795 0.930941 0.266876 0.214365
H43   H     H_    0.450688 0.909873 0.411254 0.169914
H44   H     H_    0.380185 0.925299 0.352056 0.249813
H45   H     H_    0.871837 0.148373 0.709112 0.104918
H46   H     H_    0.138532 0.358152 0.693815 0.185887
H47   H     H_    0.020454 0.340483 0.643850 0.215402
H48   H     H_    0.521750 0.850828 0.285656 0.370591
H49   H     H_    0.166667 0.391974 0.251707 0.174597
H50   H     H_    0.213750 0.497300 0.256217 0.196041
H51   H     H_    0.109015 0.270224 0.139147 0.327034
H52   H     H_    0.510125 0.368120 0.783304 0.206627
H53   H     H_    0.580061 0.469517 0.793196 0.191523
H54   H     H_    0.205744 0.255658 0.834803 0.315594
H55   H     H_    0.982560 0.816220 0.132072 0.305010
H56   H     H_    0.844878 0.228162 0.315491 0.184415
H57   H     H_    0.354685 0.760587 0.999245 0.305125
H58   H     H_    0.470764 0.724642 0.926437 0.180869
H59   H     H_    0.289303 0.788981 0.919299 0.191727
H60   H     H_    0.014767 0.574877 0.757911 0.333773
H61   H     H_    0.074488 0.809886 0.058533 0.215870
H62   H     H_    0.885133 0.787633 0.045848 0.183111
H63   H     H_    0.792219 0.639368 0.415504 0.138742
H64   H     H_    0.764196 0.534942 0.428744 0.234954
H65   H     H_    0.390508 0.366529 0.582901 0.137754
H66   H     H_    0.431167 0.470263 0.573148 0.194056
H67   H     H_    0.818122 0.341530 0.298212 0.085937
H68   H     H_    0.971510 0.689998 0.522626 0.334221
H69   H     H_    0.205422 0.103787 0.742725 0.149800
H70   H     H_    0.102861 0.207795 0.743869 0.234327
H71   H     H_    0.245621 0.920654 0.596654 0.298574
H72   H     H_    0.427292 0.067527 0.695154 0.298830
H73   H     H_    0.321045 0.308598 0.303938 0.265012
H74   H     H_    0.438677 0.157593 0.385886 0.177414
H75   H     H_    0.265161 0.168627 0.415458 0.167972
H76   H     H_    0.654046 0.276228 0.292867 0.121870
H77   H     H_    0.350920 0.663624 0.625939 -0.011034
N1    N     N_R   0.933998 0.520437 0.204785 -0.442993
N2    N     N_3   0.478184 0.928381 0.376748 -0.493447
N3    N     N_3   0.081323 0.308345 0.672514 -0.432118
N4    N     N_3   0.177331 0.450636 0.277019 -0.473619
N5    N     N_3   0.555926 0.416067 0.765722 -0.442037
N6    N     N_3   0.358342 0.726196 0.908634 -0.425952
N7    N     N_3   0.004984 0.761213 0.041628 -0.473449
N8    N     N_3   0.838213 0.570737 0.411916 -0.417130
N9    N     N_3   0.350607 0.435821 0.587942 -0.433862
N10   N     N_3   0.154409 0.151661 0.719682 -0.485797
N11   N     N_3   0.341011 0.204375 0.399008 -0.478182
N12   N     N_R   0.255003 0.504264 0.799233 -0.443650
N13   N     N_3   0.339339 0.103928 0.297747 -0.497628
N14   N     N_3   0.831649 0.810243 0.637086 -0.480260
N15   N     N_3   0.570197 0.214150 0.628993 -0.495178
N16   N     N_3   0.755083 0.050064 0.664062 -0.496576
N17   N     N_3   0.476826 0.762201 0.716388 -0.434806
N18   N     N_3   0.047935 0.716628 0.323777 -0.461120
N19   N     N_3   0.932751 0.900106 0.298872 -0.422149
O1    O     O_2   0.906490 0.548660 0.619040 -0.429032
O2    O     O_2   0.185527 0.829225 0.471230 -0.460242
O3    O     O_3   0.988007 0.829280 0.393151 -0.683956
O4    O     O_3   0.138490 0.548590 0.558860 -0.435615
O5    O     O_3   0.572560 0.389970 0.472910 -0.452926
O6    O     O_2   0.345680 0.723560 0.528460 -0.437008
O7    O     O_3   0.528036 0.736484 0.615362 -0.590135
O8    O     O_2   0.374632 0.575718 0.324663 -0.491489
O9    O     O_3   0.514202 0.720626 0.333669 -0.556993
O10   O     O_2   0.920199 0.370900 0.187749 -0.557192
O11   O     O_2   0.157929 0.371659 0.782896 -0.563686
O12   O     O_3   0.661254 0.263183 0.391769 -0.595687
O13   O     O_2   0.930445 0.671861 0.216126 -0.510059
O14   O     O_2   0.335863 0.640980 0.819221 -0.531877
O15   O     O_3   0.686290 0.382320 0.585720 -0.533245
O16   O     O_2   0.761146 0.470969 0.675668 -0.434565
O17   O     O_3   0.041201 0.695440 0.616915 -0.645650
O18   O     O_3   0.766707 0.297098 0.675524 -0.578020
O19   O     O_2   0.844020 0.276410 0.471510 -0.465825
O20   O     O_3   0.101490 0.335510 0.560360 -0.490744
O21   O     O_2   0.021364 0.173623 0.520363 -0.467556
O22   O     O_3   0.838460 0.180963 0.610789 -0.702167
O23   O     O_3   0.136376 0.179925 0.611919 -0.570432
O24   O     O_3   0.116434 0.209126 0.276851 -0.744097
O25   O     O_3   0.100675 0.122995 0.339558 -0.738819
O26   O     O_3   0.951893 0.804888 0.743124 -0.703749
O27   O     O_3   0.604812 0.408061 0.373038 -0.716622
O28   O     O_3   0.374366 0.232145 0.724949 -0.764260
O29   O     O_3   0.251806 0.781451 0.373708 -0.708627
O30   O     O_3   0.203970 0.847974 0.282605 -0.734672
O31   O     O_3   0.619700 0.871229 0.302465 -0.664735
O32   O     O_3   0.044631 0.267975 0.107257 -0.678693
O33   O     O_3   0.102784 0.274186 0.851457 -0.698465
O34   O     O_2   0.283210 0.451320 0.380930 -0.396451
O35   O     O_3   0.950391 0.765055 0.146556 -0.666200
O36   O     O_3   0.300132 0.715672 0.012422 -0.729111
O37   O     O_3   0.021317 0.568970 0.720966 -0.707786
O38   O     O_3   0.855475 0.690033 0.518756 -0.700833
O39   O     O_3   0.345075 0.885328 0.582841 -0.703887
O40   O     O_3   0.372161 0.101064 0.668454 -0.735392
O41   O     O_3   0.365069 0.292366 0.336591 -0.748415
O42   O     O_3   0.051220 0.451340 0.441130 -0.451744
O43   O     O_3   0.503420 0.617610 0.414270 -0.466925
O44   O     O_3   0.121095 0.303902 0.376404 -0.643473
O45   O     O_3   0.617160 0.609950 0.527080 -0.438163
O46   O     O_3   0.088220 0.664410 0.439630 -0.485773
P1    P     P_3+3 0.071960 0.575810 0.612130 1.070946
P2    P     P_3+3 0.664360 0.290070 0.457280 1.056596
P3    P     P_3+3 0.151935 0.216961 0.553384 0.965388
P4    P     P_3+3 0.117760 0.424110 0.387870 1.082135
P5    P     P_3+3 0.037099 0.785307 0.450586 0.943228
P6    P     P_3+3 0.666327 0.394429 0.651725 0.978610
P7    P     P_3+3 0.525368 0.719766 0.549545 1.110267
P8    P     P_3+3 0.526667 0.610024 0.349305 0.992738

loop_
_geom_bond_atom_site_label_1
_geom_bond_atom_site_label_2
_ccdc_geom_bond_type
H70   N10   S    
C34   N17   S    
C53   C54   A    
O23   P3    S    
H26   N14   S    
C4    H14   S    
Ba1   P1    S    
Ba1   O15   S    
C8    N1    S    
C65   H9    S    
O3    P5    S    
C2    O13   D    
C39   O35   S    
C56   N19   S    
C18   C41   A    
H68   O38   S    
C51   C57   A    
C66   N1    Am   
H21   N13   S    
C57   O39   S    
C54   C55   A    
C62   H34   S    
C10   C66   A    
C7    N4    S    
C24   C25   A    
H51   O32   S    
H28   O27   S    
H55   O35   S    
H33   N17   S    
C17   C19   A    
C22   C24   A    
C32   C33   S    
C35   C38   A    
C6    P4    S    
H72   O40   S    
C36   C37   A    
C12   O22   S    
C55   C57   A    
C52   C61   S    
C32   O37   S    
O46   P5    S    
H36   O28   S    
C55   H16   S    
C4    N3    S    
H53   N5    S    
H69   N10   S    
Ba1   Ba2   S    
H58   N6    S    
C63   H56   S    
O20   P3    S    
H25   N14   S    
C22   C27   A    
C11   C38   A    
C17   C35   A    
H27   O26   S    
H59   N6    S    
C52   N14   S    
H31   N16   S    
H48   O31   S    
C9    C13   A    
C25   C42   A    
Ba1   O20   S    
C46   P2    S    
H57   O36   S    
C6    C7    D    
Ba2   O45   S    
C11   O32   S    
O15   P6    S    
O44   P4    S    
C21   C22   A    
C64   O9    S    
H32   N16   S    
Ba2   O42   S    
Ba1   O1    S    
C62   O12   S    
C7    C8    S    
C34   H3    S    
O2    P5    D    
C37   C43   A    
O6    P7    D    
C45   N18   S    
C23   O7    S    
C28   N11   S    
C64   C65   S    
C64   H8    S    
C6    C14   D    
C53   C58   A    
Ba1   P2    S    
O18   P6    S    
C5    P8    S    
O4    P1    S    
C61   H23   S    
C40   N13   S    
C15   C31   D    
C27   O11   D    
C65   O31   S    
C15   N9    S    
C49   H18   S    
C12   O18   S    
C19   C24   A    
C46   C58   A    
H19   O22   S    
C61   H12   S    
Ba1   O19   S    
C4    C16   S    
Ba2   O46   S    
C42   N6    S    
C44   C59   A    
Ba1   O45   S    
C49   C50   A    
H29   N15   S    
H63   N8    S    
C17   C20   A    
C38   H11   S    
C20   H10   S    
H61   N7    S    
C1    H45   S    
C33   N12   S    
C3    C5    S    
C63   H76   S    
C66   O10   D    
O1    P1    D    
C27   N12   Am   
C23   C34   S    
Ba1   O4    S    
C48   C49   A    
O19   P2    D    
C28   O41   S    
H35   N17   S    
C4    O23   S    
C56   O30   S    
H65   N9    S    
C12   N15   S    
H22   N13   S    
H50   N4    S    
H37   O29   S    
C16   O28   S    
C60   P7    S    
C35   C36   A    
O9    P8    S    
H43   N2    S    
C45   O3    S    
C51   C60   A    
C29   C30   S    
O16   P6    D    
C23   H2    S    
C58   H17   S    
C44   P3    S    
C28   O44   S    
C31   C32   D    
C52   O17   S    
C63   H67   S    
H38   N18   S    
C18   C19   A    
Ba1   O42   S    
C13   C39   A    
O7    P7    S    
C1    C12   S    
Ba2   O6    S    
C5    C14   S    
H64   N8    S    
Ba2   P4    S    
C41   C42   A    
H62   N7    S    
C29   C33   D    
C48   P5    S    
C23   H77   S    
H39   N18   S    
H40   O30   S    
O34   P4    D    
C3    H13   S    
Ba2   O4    S    
C25   C26   A    
C62   O27   S    
O8    P8    D    
H24   O25   S    
C56   H6    S    
C40   O24   S    
C29   N5    S    
C47   O38   S    
O43   P8    S    
H42   N19   S    
C47   C60   A    
Ba2   O34   S    
C45   O29   S    
H30   N15   S    
H41   N19   S    
C44   C54   A    
H49   N4    S    
C9    C10   A    
C50   C53   A    
O5    P2    S    
C59   H15   S    
C61   O26   S    
C21   O33   S    
H52   N5    S    
H44   N2    S    
O17   P1    S    
C43   N7    S    
O45   P7    S    
C62   C63   S    
C2    C13   A    
C18   C37   A    
H46   N3    S    
C3    C8    D    
H71   O39   S    
C45   C56   S    
C65   N2    S    
C31   P1    S    
C40   O25   S    
O42   P4    S    
H75   N11   S    
H66   N9    S    
C52   H1    S    
C41   O36   S    
C64   H7    S    
H47   N3    S    
Ba1   O5    S    
C26   N12   Am   
O21   P3    D    
H60   O37   S    
H54   O33   S    
C1    H5    S    
H73   O41   S    
C1    N16   S    
Ba2   O5    S    
C30   P6    S    
O12   P2    S    
H20   O24   S    
C10   C11   A    
C2    N1    Am   
C47   C48   A    
C46   C59   A    
C14   N8    S    
C15   C30   S    
C39   C43   A    
C20   C21   A    
C28   C40   S    
C9    C36   A    
C16   O40   S    
Ba2   O43   S    
H74   N11   S    
C26   O14   D    
C16   N10   S    
C34   H4    S    
C50   C51   A    
