data_mof_unit_40850.cif
_audit_creation_date              2012-12-11T14:33:04-0500
_audit_creation_method            fapswitch 2.2
_symmetry_space_group_name_H-M    P1
_symmetry_Int_Tables_number       1
_space_group_crystal_system       triclinic
_cell_length_a                    6.949249
_cell_length_b                    13.737245
_cell_length_c                    17.944748
_cell_angle_alpha                 112.366059
_cell_angle_beta                  95.509114
_cell_angle_gamma                 90.263254
_cell_volume                      1575.30553445

loop_
_atom_site_label
_atom_site_type_symbol
_atom_type_description
_atom_site_fract_x
_atom_site_fract_y
_atom_site_fract_z
_atom_type_partial_charge
O1    O     O_R   0.484560 0.544530 0.414330 -0.535243
O2    O     O_R   0.197040 0.638810 0.585080 -0.540424
O3    O     O_R   0.026800 0.455470 0.585670 -0.542891
C1    C     C_R   0.373946 0.678923 0.610382 0.678230
O4    O     O_R   0.155000 0.556150 0.414940 -0.543339
O5    O     O_R   0.984450 0.372220 0.414320 -0.537781
C2    C     C_R   0.317631 0.564971 0.386534 0.768451
O6    O     O_R   0.526900 0.627780 0.585680 -0.540910
O7    O     O_3   0.339170 0.439750 0.499990 -0.372240
V1    V     V_3+5 0.064350 0.511180 0.500000 1.379855
O8    O     O_R   0.654880 0.361190 0.414920 -0.531352
C3    C     C_R   0.817378 0.324021 0.387068 0.770053
O9    O     O_R   0.696930 0.443850 0.585060 -0.543101
C4    C     C_R   0.873207 0.433893 0.612492 0.686249
V2    V     V_3+5 0.564340 0.488820 0.500000 1.394294
O10   O     O_3   0.839390 0.560250 0.500010 -0.377451
C5    C     C_R   0.041525 0.860761 0.822623 -0.053575
C6    C     C_R   0.906323 0.397784 0.679923 -0.049870
C7    C     C_R   0.921221 0.821271 0.682891 -0.126896
C8    C     C_R   0.973523 0.787895 0.745769 -0.147214
C9    C     C_R   0.052447 0.968605 0.836793 -0.211684
C10   C     C_R   0.997441 0.005113 0.773680 0.093932
C11   C     C_R   0.933014 0.928482 0.695927 0.122487
C12   C     C_R   0.002442 0.114319 0.784873 0.062041
C13   C     C_R   0.945087 0.144290 0.717781 0.068156
C14   C     C_R   0.885068 0.064098 0.641796 -0.178678
C15   C     C_R   0.879038 0.958801 0.631424 -0.219512
C16   C     C_R   0.062396 0.194526 0.860870 -0.177149
C17   C     C_R   0.068639 0.299814 0.871206 -0.215580
C18   C     C_R   0.014764 0.330118 0.806677 0.117500
C19   C     C_R   0.950181 0.253485 0.728950 0.096902
C20   C     C_R   0.026800 0.437307 0.819655 -0.127439
C21   C     C_R   0.974558 0.470653 0.756750 -0.145288
C22   C     C_R   0.895183 0.289964 0.665817 -0.211557
H1    H     H_    0.830152 0.900204 0.571981 0.117191
H2    H     H_    0.846610 0.237246 0.604861 0.091935
H3    H     H_    0.989359 0.553611 0.767968 0.090257
H4    H     H_    0.117560 0.358419 0.930645 0.124947
H5    H     H_    0.869246 0.762983 0.623830 0.137483
H6    H     H_    0.958940 0.704915 0.734509 0.091008
H7    H     H_    0.100908 0.021307 0.897771 0.107195
H8    H     H_    0.840179 0.079846 0.588562 0.122925
H9    H     H_    0.107063 0.178797 0.914145 0.137369
H10   H     H_    0.078927 0.495599 0.878691 0.137992
H11   H     H_    0.097984 0.238819 0.295535 0.184458
H12   H     H_    0.864265 0.020934 0.214468 0.142978
C23   C     C_2   0.133335 0.043681 0.176143 -0.025316
C24   C     C_2   0.983418 0.076378 0.221499 -0.145765
H13   H     H_    0.690479 0.164992 0.309856 0.162662
C25   C     C_2   0.816905 0.217647 0.322627 -0.328753
C26   C     C_2   0.973625 0.184751 0.282285 -0.086100
C27   C     C_R   0.409182 0.785097 0.677303 -0.055284
C28   C     C_R   0.539275 0.473072 0.825514 -0.056088
C29   C     C_R   0.530793 0.886682 0.817179 -0.122695
C30   C     C_R   0.478726 0.790212 0.754384 -0.143724
C31   C     C_R   0.397460 0.880144 0.663544 -0.209928
C32   C     C_R   0.451950 0.980735 0.727289 0.098028
C33   C     C_R   0.517318 0.981269 0.804733 0.110932
C34   C     C_R   0.445545 0.080460 0.717554 0.066961
C35   C     C_R   0.502229 0.177755 0.785419 0.061274
C36   C     C_R   0.562850 0.171971 0.860702 -0.176542
C37   C     C_R   0.570445 0.076017 0.869838 -0.207187
C38   C     C_R   0.384693 0.086248 0.642297 -0.178856
C39   C     C_R   0.377117 0.182184 0.633148 -0.217280
C40   C     C_R   0.430574 0.276916 0.698202 0.118757
C41   C     C_R   0.495988 0.277469 0.775650 0.097544
C42   C     C_R   0.417361 0.371468 0.685691 -0.125856
C43   C     C_R   0.469719 0.467928 0.748427 -0.142445
C44   C     C_R   0.550733 0.378062 0.839347 -0.210785
H14   H     H_    0.619879 0.075996 0.929008 0.138709
H15   H     H_    0.599926 0.385465 0.900123 0.095841
H16   H     H_    0.454001 0.539185 0.736659 0.090825
H17   H     H_    0.327458 0.182205 0.574002 0.119329
H18   H     H_    0.583600 0.887323 0.876118 0.146082
H19   H     H_    0.494629 0.718934 0.766107 0.090179
H20   H     H_    0.348322 0.872765 0.602769 0.091386
H21   H     H_    0.606866 0.240816 0.914186 0.132427
H22   H     H_    0.340372 0.017425 0.588848 0.123214
H23   H     H_    0.364529 0.370815 0.626748 0.142790
H24   H     H_    0.334242 0.667192 0.194406 0.152537
H25   H     H_    0.614802 0.590538 0.308006 0.155091
C45   C     C_2   0.314151 0.602152 0.318792 -0.341123
C46   C     C_2   0.476445 0.610731 0.285255 -0.116928
H26   H     H_    0.773025 0.635993 0.206932 0.127597
C47   C     C_2   0.634936 0.655846 0.183698 -0.345725
C48   C     C_2   0.472647 0.647068 0.217172 -0.125838
H27   H     H_    0.176127 0.622075 0.295558 0.124382
O11   O     O_R   0.421600 0.630430 0.917010 -0.541929
O12   O     O_R   0.793840 0.702190 0.087630 -0.544627
O13   O     O_R   0.964010 0.886170 0.088190 -0.542623
C49   C     C_R   0.631292 0.693205 0.116040 0.755377
O14   O     O_R   0.751460 0.619510 0.917500 -0.540788
O15   O     O_R   0.921330 0.802900 0.916840 -0.542695
C50   C     C_R   0.574572 0.579285 0.892359 0.678549
O16   O     O_R   0.464290 0.713700 0.088350 -0.537838
O17   O     O_3   0.609200 0.818520 0.002630 -0.365304
V3    V     V_3+5 0.884140 0.747190 0.002530 1.383407
O18   O     O_R   0.251150 0.814630 0.917340 -0.540509
C51   C     C_R   0.074811 0.824588 0.889998 0.696407
O19   O     O_R   0.293530 0.897310 0.087470 -0.520841
C52   C     C_R   0.131069 0.935029 0.114700 0.735141
V4    V     V_3+5 0.384070 0.769710 0.002370 1.413484
O20   O     O_3   0.109180 0.698190 0.002460 -0.378771
I1    I     I_    0.365753 0.147441 0.179586 -0.485479

loop_
_geom_bond_atom_site_label_1
_geom_bond_atom_site_label_2
_ccdc_geom_bond_type
C33   C37   A    
C13   C19   A    
C31   H20   S    
O17   V4    S    
C4    C6    S    
O2    C1    A    
C7    C8    A    
C1    O6    A    
C28   C44   A    
C47   C49   S    
C47   C48   D    
C14   C15   A    
C1    C27   S    
C23   C52   S    
C16   C17   A    
O5    C3    A    
C18   C19   A    
C8    H6    S    
C32   C34   A    
C41   C44   A    
H11   C26   S    
C45   H27   S    
C5    C8    A    
C31   C32   A    
C37   H14   S    
C44   H15   S    
C28   C43   A    
H24   C48   S    
C29   H18   S    
O8    V2    S    
C24   C26   S    
C36   H21   S    
C40   C42   A    
C17   H4    S    
C39   H17   S    
O1    V2    S    
C11   C15   A    
O12   C49   A    
O7    V1    S    
O15   C51   A    
O13   V3    S    
C27   C30   A    
C30   H19   S    
C35   C41   A    
C34   C35   A    
O9    C4    A    
V4    O20   S    
O19   V4    S    
H25   C46   S    
O14   V3    S    
H12   C24   S    
O11   C50   A    
C42   C43   A    
C42   H23   S    
C12   C13   A    
O4    C2    A    
C15   H1    S    
C13   C14   A    
O18   V4    S    
C45   C46   D    
C21   H3    S    
O12   V3    S    
C35   C36   A    
C7    C11   A    
O13   C52   A    
C17   C18   A    
C6    C22   A    
C3    C25   S    
C23   C24   D    
C43   H16   S    
O17   V3    S    
C46   C48   S    
O14   C50   A    
C25   C26   D    
C20   H10   S    
C19   C22   A    
H26   C47   S    
C5    C51   S    
V3    O20   S    
O3    C4    A    
C7    H5    S    
C9    H7    S    
H13   C25   S    
O6    V2    S    
O9    V2    S    
C10   C12   A    
O2    V1    S    
O15   V3    S    
C14   H8    S    
C29   C33   A    
C29   C30   A    
C23   I1    S    
C28   C50   S    
O1    C2    A    
C12   C16   A    
O5    V1    S    
O11   V4    S    
O8    C3    A    
O16   V4    S    
C16   H9    S    
C34   C38   A    
C20   C21   A    
O7    V2    S    
O4    V1    S    
O3    V1    S    
V1    O10   S    
C39   C40   A    
C18   C20   A    
C32   C33   A    
O19   C52   A    
C22   H2    S    
C40   C41   A    
C36   C37   A    
C6    C21   A    
C5    C9    A    
C49   O16   A    
C38   C39   A    
C27   C31   A    
C2    C45   S    
O18   C51   A    
C10   C11   A    
C9    C10   A    
V2    O10   S    
C38   H22   S    
