data_mof_unit_38622.cif
_audit_creation_date              2012-12-11T15:44:58-0500
_audit_creation_method            fapswitch 2.2
_symmetry_space_group_name_H-M    P1
_symmetry_Int_Tables_number       1
_space_group_crystal_system       triclinic
_cell_length_a                    19.033188
_cell_length_b                    10.944989
_cell_length_c                    18.738108
_cell_angle_alpha                 90.230152
_cell_angle_beta                  90.217862
_cell_angle_gamma                 89.702701
_cell_volume                      3903.3738544

loop_
_atom_site_label
_atom_site_type_symbol
_atom_type_description
_atom_site_fract_x
_atom_site_fract_y
_atom_site_fract_z
_atom_type_partial_charge
C1    C     C_R   0.759990 0.535415 0.646575 0.529839
C2    C     C_R   0.173861 0.088400 0.552022 -0.161912
C3    C     C_R   0.473271 0.946556 0.970115 -0.008658
C4    C     C_R   0.981265 0.226594 0.970333 0.265348
C5    C     C_R   0.978319 0.228602 0.045281 0.259196
C6    C     C_R   0.481265 0.726594 0.970333 0.265348
C7    C     C_R   0.478319 0.728602 0.045281 0.259195
C8    C     C_3   0.014555 0.568088 0.042263 -0.256866
C9    C     C_3   0.011382 0.563946 0.961935 -0.267919
C10   C     C_3   0.514555 0.068088 0.042263 -0.256866
C11   C     C_3   0.511382 0.063946 0.961935 -0.267919
C12   C     C_R   0.760915 0.531693 0.852576 0.549460
C13   C     C_R   0.218566 0.509629 0.479745 -0.125913
C14   C     C_R   0.239860 0.532862 0.147879 0.541817
C15   C     C_R   0.260915 0.031693 0.852576 0.549460
C16   C     C_R   0.739860 0.032862 0.147879 0.541817
C17   C     C_R   0.772833 0.126838 0.853635 0.551201
C18   C     C_R   0.227140 0.126513 0.146614 0.549019
C19   C     C_R   0.272833 0.626838 0.853635 0.551200
C20   C     C_R   0.727140 0.626513 0.146614 0.549019
C21   C     C_R   0.967492 0.346392 0.855727 0.537463
C22   C     C_R   0.027347 0.347018 0.147951 0.540474
C23   C     C_R   0.467492 0.846392 0.855727 0.537461
C24   C     C_R   0.673859 0.588382 0.552018 -0.161906
C25   C     C_R   0.527347 0.847018 0.147951 0.540477
C26   C     C_R   0.747766 0.079071 0.424549 0.034108
C27   C     C_R   0.240523 0.106936 0.583406 0.003723
C28   C     C_R   0.247757 0.579069 0.424549 0.034128
C29   C     C_R   0.740517 0.606940 0.583408 0.003712
C30   C     C_R   0.797206 0.168277 0.440431 0.009960
C31   C     C_R   0.289068 0.176330 0.545399 0.012129
C32   C     C_R   0.297162 0.668334 0.440431 0.009942
C33   C     C_R   0.789067 0.676347 0.545402 0.012128
C34   C     C_R   0.810640 0.198859 0.510860 0.013987
C35   C     C_3   0.797805 0.298821 0.417620 -0.279955
C36   C     C_R   0.277537 0.202384 0.473904 0.025422
C37   C     C_R   0.310599 0.698903 0.510857 0.013930
C38   C     C_R   0.777537 0.702404 0.473905 0.025446
C39   C     C_3   0.366048 0.159111 0.534605 -0.255945
C40   C     C_3   0.297722 0.798872 0.417638 -0.279931
C41   C     C_3   0.866054 0.659077 0.534597 -0.255878
C42   C     C_3   0.812224 0.331972 0.494856 -0.280846
C43   C     C_3   0.353105 0.184418 0.455995 -0.262465
C44   C     C_3   0.312176 0.831988 0.494874 -0.280894
C45   C     C_R   0.239232 0.534944 0.353158 0.534967
C46   C     C_3   0.853113 0.684409 0.455990 -0.262404
C47   C     C_R   0.776444 0.138714 0.566068 0.033325
C48   C     C_R   0.217068 0.161582 0.438410 -0.000084
C49   C     C_R   0.276440 0.638718 0.566069 0.033353
C50   C     C_R   0.717062 0.661606 0.438411 -0.000103
C51   C     C_R   0.003601 0.347082 0.428960 -0.044760
C52   C     C_R   0.010091 0.329444 0.579040 -0.041945
C53   C     C_R   0.503618 0.847081 0.428967 -0.044734
C54   C     C_R   0.510106 0.829443 0.579047 -0.041937
C55   C     C_R   0.968105 0.131075 0.422155 -0.086233
C56   C     C_R   0.259991 0.035413 0.646575 0.529832
C57   C     C_R   0.992878 0.105469 0.567736 -0.083622
C58   C     C_R   0.468115 0.631077 0.422164 -0.086242
C59   C     C_R   0.492891 0.605467 0.567744 -0.083624
C60   C     C_R   0.960953 0.017433 0.454192 -0.120231
C61   C     C_R   0.974748 0.004055 0.526569 -0.131191
C62   C     C_R   0.460957 0.517436 0.454201 -0.120247
C63   C     C_R   0.474751 0.504056 0.526578 -0.131189
C64   C     C_R   0.997586 0.223134 0.537052 0.007819
C65   C     C_R   0.990060 0.233968 0.462134 -0.007961
C66   C     C_R   0.497607 0.723131 0.537060 0.007816
C67   C     C_R   0.739234 0.034946 0.353158 0.534959
C68   C     C_R   0.490081 0.733965 0.462142 -0.007957
C69   C     C_R   0.030973 0.437608 0.545513 -0.000298
C70   C     C_R   0.016475 0.452976 0.472560 0.004727
C71   C     C_R   0.530988 0.937609 0.545521 -0.000304
C72   C     C_R   0.516491 0.952977 0.472567 0.004721
C73   C     C_R   0.791459 0.170867 0.638774 0.561832
C74   C     C_R   0.208208 0.172641 0.361033 0.563370
C75   C     C_R   0.291457 0.670865 0.638774 0.561833
C76   C     C_R   0.708205 0.672649 0.361032 0.563376
C77   C     C_R   0.060672 0.534963 0.585152 -0.083683
C78   C     C_R   0.733509 0.038580 0.550542 -0.128068
C79   C     C_R   0.015908 0.574876 0.446384 -0.075468
C80   C     C_R   0.560683 0.034966 0.585161 -0.083699
C81   C     C_R   0.515919 0.074878 0.446392 -0.075481
C82   C     C_R   0.067203 0.650623 0.555462 -0.117997
C83   C     C_R   0.042387 0.671515 0.486888 -0.131668
C84   C     C_R   0.567210 0.150627 0.555471 -0.117989
C85   C     C_R   0.542393 0.171520 0.486897 -0.131664
C86   C     C_R   0.753665 0.084230 0.077726 0.003436
C87   C     C_R   0.250516 0.082648 0.923308 0.008509
C88   C     C_R   0.253665 0.584230 0.077726 0.003436
C89   C     C_R   0.162550 0.114452 0.479958 -0.166524
C90   C     C_R   0.750516 0.582648 0.923308 0.008509
C91   C     C_R   0.813287 0.044668 0.040320 0.060822
C92   C     C_R   0.185758 0.068693 0.956816 0.008699
C93   C     C_R   0.313287 0.544668 0.040320 0.060822
C94   C     C_R   0.685758 0.568694 0.956816 0.008699
C95   C     C_R   0.815830 0.051920 0.967145 0.094629
C96   C     C_R   0.180589 0.078203 0.029849 0.048100
C97   C     C_R   0.315830 0.551920 0.967145 0.094629
C98   C     C_R   0.680589 0.578204 0.029849 0.048100
C99   C     C_R   0.702075 0.147680 0.964923 -0.179761
C100  C     C_R   0.233524 0.538571 0.550540 -0.128073
C101  C     C_R   0.304285 0.121231 0.039349 -0.176006
C102  C     C_R   0.202075 0.647680 0.964923 -0.179762
C103  C     C_R   0.804285 0.621231 0.039349 -0.176006
C104  C     C_R   0.700600 0.145529 0.039732 -0.174950
C105  C     C_R   0.309251 0.115555 0.964995 -0.162668
C106  C     C_R   0.200600 0.645529 0.039732 -0.174950
C107  C     C_R   0.809251 0.615555 0.964995 -0.162668
C108  C     C_3   0.847560 0.921167 0.039216 -0.255328
C109  C     C_3   0.138371 0.960181 0.955537 -0.266187
C110  C     C_3   0.347560 0.421167 0.039216 -0.255328
C111  C     C_R   0.662547 0.614446 0.479956 -0.166515
C112  C     C_3   0.638370 0.460181 0.955537 -0.266187
C113  C     C_3   0.849661 0.929628 0.959031 -0.262717
C114  C     C_3   0.131570 0.972975 0.035081 -0.254625
C115  C     C_3   0.349660 0.429628 0.959031 -0.262718
C116  C     C_3   0.631570 0.472976 0.035081 -0.254625
C117  C     C_R   0.759452 0.097992 0.927928 0.002351
C118  C     C_R   0.239810 0.098702 0.072280 0.014671
C119  C     C_R   0.259452 0.597992 0.927928 0.002351
C120  C     C_R   0.739810 0.598702 0.072280 0.014671
C121  C     C_R   0.973692 0.343992 0.648350 0.520718
C122  C     C_R   0.718547 0.009646 0.479747 -0.125913
C123  C     C_R   0.029137 0.347879 0.354109 0.517795
C124  C     C_R   0.473696 0.843991 0.648353 0.520722
C125  C     C_R   0.529142 0.847879 0.354112 0.517798
C126  C     C_R   0.987563 0.340913 0.081430 -0.044280
C127  C     C_R   0.982389 0.338637 0.931856 -0.038600
C128  C     C_R   0.487563 0.840913 0.081430 -0.044281
C129  C     C_R   0.482389 0.838637 0.931856 -0.038600
C130  C     C_R   0.975944 0.448846 0.043090 -0.025693
C131  C     C_R   0.973272 0.446556 0.970115 -0.008658
C132  C     C_R   0.475943 0.948846 0.043090 -0.025693
Cr1   Cr    Cr6+3 0.885860 0.491680 0.749630 1.004631
Cr2   Cr    Cr6+3 0.112430 0.179310 0.249850 1.011219
Cr3   Cr    Cr6+3 0.387570 0.679310 0.750150 1.014056
Cr4   Cr    Cr6+3 0.612430 0.679310 0.249850 1.011219
Cr5   Cr    Cr6+3 0.114140 0.491680 0.250370 1.000357
Cr6   Cr    Cr6+3 0.385860 0.991680 0.749630 1.004629
Cr7   Cr    Cr6+3 0.614140 0.991680 0.250370 1.000356
Cr8   Cr    Cr6+3 0.730490 0.332970 0.748720 0.994342
Cr9   Cr    Cr6+3 0.269510 0.332970 0.251280 0.999132
Cr10  Cr    Cr6+3 0.230490 0.832970 0.748720 0.994345
Cr11  Cr    Cr6+3 0.769510 0.832970 0.251280 0.999133
Cr12  Cr    Cr6+3 0.887570 0.179310 0.750150 1.014058
H1    H     H_    0.710578 0.985111 0.592946 0.128603
H2    H     H_    0.350373 0.142952 0.070883 0.124155
H3    H     H_    0.157917 0.684667 0.935802 0.116999
H4    H     H_    0.850373 0.642952 0.070883 0.124155
H5    H     H_    0.655864 0.183281 0.067418 0.118619
H6    H     H_    0.359936 0.128074 0.940671 0.141681
H7    H     H_    0.155864 0.683281 0.067418 0.118619
H8    H     H_    0.859936 0.628074 0.940671 0.141682
H9    H     H_    0.811264 0.850175 0.058204 0.160422
H10   H     H_    0.167340 0.877412 0.939899 0.164651
H11   H     H_    0.311263 0.350175 0.058204 0.160422
H12   H     H_    0.113405 0.087955 0.455526 0.157988
H13   H     H_    0.667340 0.377412 0.939899 0.164651
H14   H     H_    0.900402 0.920286 0.064525 0.185989
H15   H     H_    0.088980 0.974915 0.925691 0.165347
H16   H     H_    0.400402 0.420286 0.064525 0.185989
H17   H     H_    0.588980 0.474915 0.925691 0.165346
H18   H     H_    0.903745 0.934027 0.937453 0.202452
H19   H     H_    0.078313 0.000827 0.052173 0.227103
H20   H     H_    0.403745 0.434027 0.937453 0.202452
H21   H     H_    0.578313 0.500828 0.052173 0.227103
H22   H     H_    0.814814 0.863121 0.931522 0.121214
H23   H     H_    0.210605 0.485095 0.592942 0.128604
H24   H     H_    0.154563 0.895567 0.065418 0.128306
H25   H     H_    0.314814 0.363121 0.931521 0.121214
H26   H     H_    0.654562 0.395567 0.065418 0.128306
H27   H     H_    0.068852 0.558569 0.062111 0.174018
H28   H     H_    0.978718 0.637932 0.938528 0.139105
H29   H     H_    0.568852 0.058569 0.062111 0.174018
H30   H     H_    0.478718 0.137932 0.938528 0.139105
H31   H     H_    0.983517 0.644354 0.065879 0.130755
H32   H     H_    0.063323 0.550426 0.936267 0.135502
H33   H     H_    0.483517 0.144354 0.065879 0.130756
H34   H     H_    0.613405 0.587930 0.455521 0.157992
H35   H     H_    0.563323 0.050426 0.936267 0.135501
H36   H     H_    0.684393 0.933177 0.467949 0.122987
H37   H     H_    0.133165 0.040163 0.580313 0.140655
H38   H     H_    0.184430 0.433140 0.467947 0.122977
H39   H     H_    0.633165 0.540121 0.580304 0.140657
H40   H     H_    0.245601 0.831361 0.398217 0.154918
H41   H     H_    0.884402 0.564691 0.545537 0.159773
H42   H     H_    0.745703 0.331333 0.398153 0.154895
H43   H     H_    0.384432 0.064765 0.545554 0.159823
H44   H     H_    0.842630 0.319005 0.381767 0.133874
H45   H     H_    0.088952 0.724949 0.586622 0.123232
H46   H     H_    0.397010 0.231637 0.561637 0.142658
H47   H     H_    0.342514 0.819112 0.381749 0.133877
H48   H     H_    0.897046 0.731578 0.561638 0.142660
H49   H     H_    0.865148 0.371082 0.503558 0.135084
H50   H     H_    0.377740 0.269875 0.437266 0.138779
H51   H     H_    0.365095 0.871048 0.503562 0.135120
H52   H     H_    0.877770 0.769871 0.437270 0.138742
H53   H     H_    0.768196 0.382432 0.520219 0.148548
H54   H     H_    0.361895 0.103100 0.421314 0.140261
H55   H     H_    0.268190 0.882469 0.520265 0.148564
H56   H     H_    0.043285 0.762849 0.465007 0.107020
H57   H     H_    0.861895 0.603082 0.421301 0.140250
H58   H     H_    0.945823 0.939482 0.422264 0.106708
H59   H     H_    0.971494 0.914910 0.550995 0.103974
H60   H     H_    0.445822 0.439491 0.422272 0.106716
H61   H     H_    0.471487 0.414910 0.551004 0.103976
H62   H     H_    0.954802 0.138026 0.366145 0.128995
H63   H     H_    0.006369 0.089349 0.622990 0.130377
H64   H     H_    0.454809 0.638030 0.366155 0.129010
H65   H     H_    0.506378 0.589346 0.622999 0.130376
H66   H     H_    0.992466 0.598850 0.395756 0.138311
H67   H     H_    0.588956 0.224956 0.586631 0.123233
H68   H     H_    0.077822 0.521800 0.639799 0.126118
H69   H     H_    0.492475 0.098852 0.395764 0.138318
H70   H     H_    0.577830 0.021803 0.639809 0.126113
H71   H     H_    0.013899 0.122743 0.894073 0.314684
H72   H     H_    0.953935 0.136615 0.129438 0.319212
H73   H     H_    0.513899 0.622743 0.894073 0.314684
H74   H     H_    0.453935 0.636615 0.129438 0.319213
H75   H     H_    0.543283 0.262857 0.465017 0.107024
H76   H     H_    0.657917 0.184667 0.935802 0.116999
O1    O     O_R   0.957020 0.451640 0.669920 -0.518469
O2    O     O_R   0.168040 0.093290 0.169870 -0.505082
O3    O     O_R   0.331960 0.593290 0.830130 -0.496712
O4    O     O_R   0.668040 0.593290 0.169870 -0.505082
O5    O     O_R   0.945600 0.250580 0.824860 -0.493358
O6    O     O_R   0.054400 0.250580 0.175140 -0.485196
O7    O     O_R   0.445600 0.750580 0.824860 -0.493360
O8    O     O_R   0.554400 0.750580 0.175140 -0.485194
O9    O     O_3   0.834640 0.334650 0.749500 -0.261073
O10   O     O_3   0.165360 0.334650 0.250500 -0.262832
O11   O     O_3   0.334640 0.834650 0.749500 -0.261072
O12   O     O_R   0.042980 0.451640 0.330080 -0.526961
O13   O     O_3   0.665360 0.834650 0.250500 -0.262838
O14   O     O_R   0.821450 0.543440 0.674610 -0.497573
O15   O     O_R   0.178550 0.543440 0.325390 -0.499947
O16   O     O_R   0.321450 0.043440 0.674610 -0.497575
O17   O     O_R   0.678550 0.043440 0.325390 -0.499948
O18   O     O_R   0.715320 0.458650 0.668100 -0.537072
O19   O     O_R   0.284680 0.458650 0.331900 -0.527252
O20   O     O_R   0.215320 0.958650 0.668100 -0.537071
O21   O     O_R   0.784680 0.958650 0.331900 -0.527246
O22   O     O_R   0.737170 0.209590 0.674530 -0.510465
O23   O     O_R   0.457020 0.951640 0.669920 -0.518469
O24   O     O_R   0.262830 0.209590 0.325470 -0.501319
O25   O     O_R   0.237170 0.709590 0.674530 -0.510464
O26   O     O_R   0.762830 0.709590 0.325470 -0.501315
O27   O     O_R   0.832710 0.092740 0.669580 -0.514001
O28   O     O_R   0.167290 0.092740 0.330420 -0.521774
O29   O     O_R   0.332710 0.592740 0.669580 -0.514006
O30   O     O_R   0.667290 0.592740 0.330420 -0.521771
O31   O     O_R   0.946290 0.250060 0.676040 -0.523713
O32   O     O_R   0.053710 0.250060 0.323960 -0.522594
O33   O     O_R   0.446290 0.750060 0.676040 -0.523709
O34   O     O_R   0.542980 0.951640 0.330080 -0.526965
O35   O     O_R   0.553710 0.750060 0.323960 -0.522601
O36   O     O_R   0.956270 0.452200 0.830470 -0.516517
O37   O     O_R   0.043730 0.452200 0.169530 -0.524049
O38   O     O_R   0.456270 0.952200 0.830470 -0.516518
O39   O     O_R   0.543730 0.952200 0.169530 -0.524047
O40   O     O_R   0.820760 0.543950 0.823440 -0.504837
O41   O     O_R   0.179240 0.543950 0.176560 -0.506500
O42   O     O_R   0.320760 0.043950 0.823440 -0.504837
O43   O     O_R   0.679240 0.043950 0.176560 -0.506499
O44   O     O_R   0.714570 0.459210 0.828640 -0.525472
O45   O     O_R   0.736470 0.210100 0.823360 -0.505916
O46   O     O_R   0.285430 0.459210 0.171360 -0.525006
O47   O     O_R   0.214570 0.959210 0.828640 -0.525471
O48   O     O_R   0.785430 0.959210 0.171360 -0.525007
O49   O     O_3   0.984586 0.114385 0.937252 -0.690455
O50   O     O_3   0.972520 0.119424 0.081056 -0.698815
O51   O     O_3   0.484586 0.614384 0.937252 -0.690454
O52   O     O_3   0.472519 0.619424 0.081056 -0.698815
O53   O     O_R   0.263530 0.210100 0.176640 -0.507808
O54   O     O_R   0.236470 0.710100 0.823360 -0.505916
O55   O     O_R   0.763530 0.710100 0.176640 -0.507809
O56   O     O_R   0.831960 0.093290 0.830130 -0.496711

loop_
_geom_bond_atom_site_label_1
_geom_bond_atom_site_label_2
_ccdc_geom_bond_type
C58   C62   A    
C79   H66   S    
C66   C68   A    
Cr6   O38   S    
Cr7   O43   S    
Cr7   O17   S    
C51   C123  S    
Cr4   O35   S    
C69   C77   A    
C103  C120  A    
C34   C42   S    
C3    C11   S    
Cr9   O53   S    
C80   C84   A    
C86   C104  A    
C67   O21   A    
C8    H31   S    
C73   O27   A    
C42   H49   S    
C95   C117  A    
C98   C120  A    
C122  H36   S    
C112  H17   S    
C5    O50   S    
C4    C5    A    
Cr3   O7    S    
C30   C35   S    
C43   H50   S    
C26   C67   S    
Cr2   O6    S    
C96   C118  A    
C7    O52   S    
C63   H61   S    
C25   C128  S    
Cr3   O29   S    
C90   C107  A    
C15   O47   A    
C86   C91   A    
Cr5   O12   S    
C59   C66   A    
C12   O44   A    
Cr3   O33   S    
C92   C109  S    
C121  O31   A    
C19   O54   A    
C108  H14   S    
C94   C98   A    
C11   H35   S    
Cr10  O11   S    
C29   C33   A    
C116  H21   S    
C92   C96   A    
C74   O28   A    
C23   C129  S    
C9    H32   S    
Cr11  O48   S    
C51   C65   A    
Cr2   O28   S    
C115  H20   S    
C125  O35   A    
C35   C42   S    
C24   C29   A    
C78   H1    S    
C17   O45   A    
C110  H11   S    
C40   H40   S    
C77   H68   S    
C113  H18   S    
C59   H65   S    
C16   O43   A    
Cr6   O16   S    
Cr8   O45   S    
Cr1   O40   S    
C81   H69   S    
C73   O22   A    
Cr6   O42   S    
C23   O38   A    
Cr5   O15   S    
C8    C9    S    
Cr2   O2    S    
C20   C120  S    
Cr7   O39   S    
C5    C126  A    
Cr7   O13   S    
C111  H34   S    
Cr1   O1    S    
C41   C46   S    
C49   C75   S    
C13   C28   A    
C102  C106  A    
C2    C27   A    
C52   C69   A    
C51   C70   A    
Cr2   O32   S    
C7    C128  A    
C21   C127  S    
C18   C118  S    
C38   C50   A    
C72   C81   A    
C75   O25   A    
C8    H27   S    
C17   C117  S    
C93   C110  S    
C18   O53   A    
C74   O24   A    
C10   H29   S    
C32   C40   S    
C99   C104  A    
C6    O51   S    
C19   C119  S    
Cr8   O9    S    
Cr9   O19   S    
Cr3   O11   S    
C55   C60   A    
C24   H39   S    
C16   C86   S    
Cr4   O30   S    
C69   C70   A    
C24   C111  A    
Cr11  O55   S    
C6    C129  A    
C78   C122  A    
C128  C132  A    
Cr1   O36   S    
H72   O50   S    
C71   C80   A    
C55   C65   A    
C103  H4    S    
C90   C94   A    
C21   O5    A    
C10   C132  S    
C53   C68   A    
C9    C131  S    
C22   O37   A    
C101  C105  A    
C76   O30   A    
C28   C45   S    
C84   H67   S    
Cr9   O24   S    
C38   C46   S    
C112  H13   S    
C108  H9    S    
C27   C31   A    
C3    C132  A    
C48   C74   S    
Cr12  O9    S    
C28   C32   A    
Cr7   O34   S    
C19   O3    A    
C84   C85   A    
C47   C73   S    
C52   C64   A    
C113  H22   S    
C39   H46   S    
C30   C34   A    
C27   C56   S    
Cr5   O10   S    
C89   H12   S    
C80   H70   S    
C95   C113  S    
Cr9   O10   S    
H73   O51   S    
C67   O17   A    
Cr11  O26   S    
H74   O52   S    
C60   C61   A    
C2    H37   S    
C104  H5    S    
C97   C119  A    
C2    C89   A    
Cr10  O20   S    
C45   O19   A    
C62   C63   A    
C105  H6    S    
C14   O41   A    
C50   C76   S    
C102  H3    S    
C99   C117  A    
C88   C106  A    
C52   C121  S    
C98   C116  S    
Cr4   O4    S    
C58   H64   S    
C1    O14   A    
Cr10  O25   S    
Cr4   O13   S    
Cr8   O18   S    
C20   O4    A    
C116  H26   S    
C101  H2    S    
C32   C37   A    
H71   O49   S    
C124  O23   A    
C57   C61   A    
C109  H10   S    
C46   H57   S    
C62   H60   S    
C37   C49   A    
C16   O48   A    
C53   C125  S    
C109  C114  S    
C87   C105  A    
C54   C66   A    
C107  H8    S    
C60   H58   S    
Cr12  O31   S    
C101  C118  A    
C26   C30   A    
C48   C89   A    
C100  H23   S    
C82   H45   S    
C8    C130  S    
Cr12  O5    S    
C97   C115  S    
C1    C29   S    
C109  H15   S    
C93   C97   A    
C41   H41   S    
C17   O56   A    
C110  H16   S    
C44   H51   S    
C57   C64   A    
C15   C87   S    
C58   C68   A    
C4    O49   S    
C55   H62   S    
C54   C124  S    
C88   C93   A    
Cr6   O11   S    
C11   H30   S    
C121  O1    A    
C106  H7    S    
C41   H48   S    
C70   C79   A    
C3    C129  A    
C10   H33   S    
C91   C108  S    
C56   O20   A    
C42   H53   S    
C76   O26   A    
C45   O15   A    
C124  O33   A    
C9    H28   S    
Cr1   O9    S    
C12   C90   S    
C23   O7    A    
Cr10  O47   S    
C112  C116  S    
C114  H24   S    
C6    C7    A    
C22   O6    A    
Cr5   O37   S    
C1    O18   A    
C108  C113  S    
Cr3   O3    S    
C57   H63   S    
C25   O8    A    
C59   C63   A    
C33   C38   A    
Cr11  O21   S    
Cr12  O56   S    
C33   C41   S    
Cr9   O46   S    
Cr11  O13   S    
C13   C100  A    
C130  C131  A    
C85   H75   S    
C20   O55   A    
C14   C88   S    
C123  O32   A    
C15   O42   A    
C75   O29   A    
C61   H59   S    
C49   C100  A    
C79   C83   A    
C35   H44   S    
C114  H19   S    
C40   H47   S    
C39   H43   S    
C77   C82   A    
C37   C44   S    
C35   H42   S    
Cr10  O54   S    
C54   C71   A    
C64   C65   A    
C94   C112  S    
C50   C111  A    
C31   C39   S    
C115  H25   S    
C36   C48   A    
C43   H54   S    
Cr8   O22   S    
Cr1   O14   S    
Cr2   O10   S    
Cr4   O8    S    
C125  O34   A    
C18   O2    A    
C127  C131  A    
C96   C114  S    
C22   C126  S    
C10   C11   S    
C102  C119  A    
C91   C95   A    
C25   O39   A    
C123  O12   A    
C12   O40   A    
C40   C44   S    
C71   C72   A    
C99   H76   S    
C39   C43   S    
C44   H55   S    
C13   H38   S    
Cr8   O44   S    
Cr12  O27   S    
C46   H52   S    
C126  C130  A    
C31   C36   A    
C56   O16   A    
C36   C43   S    
C103  C107  A    
C34   C47   A    
C26   C122  A    
C47   C78   A    
C82   C83   A    
C83   H56   S    
C87   C92   A    
C53   C72   A    
C110  C115  S    
C4    C127  A    
C81   C85   A    
Cr6   O23   S    
C14   O46   A    
C21   O36   A    
Cr5   O41   S    
