data_mof_unit_17599.cif
_audit_creation_date              2012-12-10T19:09:37-0500
_audit_creation_method            fapswitch 2.2
_symmetry_space_group_name_H-M    P1
_symmetry_Int_Tables_number       1
_space_group_crystal_system       triclinic
_cell_length_a                    9.517506
_cell_length_b                    10.884036
_cell_length_c                    16.984808
_cell_angle_alpha                 89.17438
_cell_angle_beta                  94.681604
_cell_angle_gamma                 91.070199
_cell_volume                      1753.11463282

loop_
_atom_site_label
_atom_site_type_symbol
_atom_type_description
_atom_site_fract_x
_atom_site_fract_y
_atom_site_fract_z
_atom_type_partial_charge
C1    C     C_R   0.498265 0.261904 0.502338 0.786689
C2    C     C_R   0.639654 0.557639 0.780303 -0.207397
C3    C     C_R   0.554259 0.563903 0.139515 -0.168894
C4    C     C_R   0.561247 0.562621 0.221327 -0.264064
C5    C     C_R   0.451427 0.493548 0.095981 0.311186
C6    C     C_R   0.467162 0.490082 0.261968 -0.056794
C7    C     C_R   0.362576 0.416098 0.219056 -0.026252
C8    C     C_R   0.353286 0.421743 0.135083 -0.038271
C9    C     C_R   0.611036 0.067029 0.477382 0.100313
C10   C     C_R   0.492039 0.127971 0.499302 -0.124036
C11   C     C_R   0.367471 0.056667 0.511377 0.083952
C12   C     C_R   0.518477 0.498403 0.651072 0.799251
C13   C     C_R   0.372780 0.928988 0.506005 -0.254209
C14   C     C_R   0.498206 0.870066 0.493585 -0.130178
C15   C     C_R   0.614486 0.940576 0.474967 0.117562
C16   C     C_3   0.764473 0.936485 0.508041 -0.464557
C17   C     C_3   0.761319 0.075790 0.510840 -0.458766
C18   C     C_R   0.069692 0.589259 0.459686 0.258173
C19   C     C_R   0.079930 0.423228 0.548261 -0.094479
C20   C     C_R   0.930693 0.422142 0.547754 -0.069783
C21   C     C_R   0.922254 0.589141 0.459600 0.258135
C22   C     C_3   0.904706 0.616906 0.373152 -0.511593
C23   C     C_R   0.500723 0.737436 0.498594 0.819540
C24   C     C_3   0.064304 0.618263 0.373491 -0.494937
C25   C     C_R   0.481027 0.495418 0.348850 0.807822
C26   C     C_R   0.531471 0.492580 0.737317 -0.046942
C27   C     C_R   0.439304 0.416643 0.776791 -0.277341
C28   C     C_R   0.455021 0.403938 0.859070 -0.004537
C29   C     C_R   0.556792 0.478828 0.902745 0.313064
C30   C     C_R   0.650876 0.551896 0.862571 -0.182932
Cu1   Cu    Cu3+1 0.640670 0.499980 0.500000 0.938729
Cu2   Cu    Cu3+1 0.359330 0.500020 0.500000 0.931070
H1    H     H_    0.640332 0.619855 0.253207 0.159417
H2    H     H_    0.280365 0.874598 0.518359 0.171419
H3    H     H_    0.776930 0.891996 0.567501 0.202884
H4    H     H_    0.835143 0.901976 0.464614 0.189900
H5    H     H_    0.772247 0.112102 0.571957 0.196313
H6    H     H_    0.830587 0.121515 0.469200 0.199281
H7    H     H_    0.140826 0.361766 0.587009 0.157741
H8    H     H_    0.878606 0.357558 0.585173 0.138555
H9    H     H_    0.854270 0.539903 0.338367 0.223615
H10   H     H_    0.857736 0.708482 0.360263 0.189194
H11   H     H_    0.103734 0.543116 0.338270 0.213128
H12   H     H_    0.628717 0.620812 0.109821 0.168381
H13   H     H_    0.109623 0.710888 0.361528 0.196936
H14   H     H_    0.731124 0.606798 0.895332 0.159908
H15   H     H_    0.712889 0.615421 0.750280 0.156207
H16   H     H_    0.359929 0.362328 0.742970 0.171260
N1    N     N_2   0.564895 0.485692 0.986289 -0.232912
N2    N     N_2   0.446433 0.491077 0.012386 -0.199742
N3    N     N_R   0.147870 0.500930 0.499500 -0.188934
N4    N     N_R   0.851960 0.500890 0.499500 -0.184241
O1    O     O_R   0.618810 0.319640 0.500000 -0.579598
O2    O     O_R   0.381230 0.319680 0.499990 -0.591957
O3    O     O_R   0.631790 0.498830 0.613930 -0.581790
O4    O     O_R   0.394210 0.498870 0.613920 -0.578058
O5    O     O_R   0.618770 0.680320 0.500010 -0.579351
O6    O     O_R   0.381190 0.680360 0.500000 -0.583828
O7    O     O_R   0.605790 0.501130 0.386080 -0.581034
O8    O     O_R   0.368210 0.501170 0.386070 -0.588461
C31   C     C_3   0.269176 0.324954 0.261035 -0.394080
C32   C     C_3   0.349926 0.207561 0.284285 -0.293127
C33   C     C_3   0.252385 0.108159 0.314870 -0.825081
H17   H     H_    0.198940 0.142517 0.365664 0.245796
H18   H     H_    0.171416 0.080235 0.267380 0.266244
H19   H     H_    0.314723 0.026344 0.334255 0.245140
H20   H     H_    0.398884 0.171501 0.232262 0.251729
H21   H     H_    0.435442 0.228577 0.330848 0.197652
H22   H     H_    0.226991 0.364187 0.313520 0.209243
H23   H     H_    0.172032 0.301157 0.223515 0.212434
C34   C     C_2   0.371637 0.306115 0.896437 0.883705
O9    O     O_2   0.422886 0.249554 0.954207 -0.558582
O10   O     O_R   0.236430 0.274980 0.863560 -0.782084
H24   H     H_    0.191093 0.205595 0.893517 0.338336
C35   C     C_2   0.245357 0.349947 0.086222 0.870359
O11   O     O_2   0.237968 0.238094 0.093360 -0.579078
O12   O     O_R   0.154947 0.410771 0.030190 -0.745251
H25   H     H_    0.086205 0.352560 0.000243 0.342437
C36   C     C_3   0.233146 0.105141 0.541384 -0.390520
C37   C     C_3   0.253899 0.127515 0.630718 -0.333450
C38   C     C_3   0.113715 0.123800 0.668731 -0.840090
H26   H     H_    0.131339 0.150734 0.731550 0.278529
H27   H     H_    0.037074 0.187159 0.637924 0.235363
H28   H     H_    0.067749 0.029220 0.666272 0.252673
H29   H     H_    0.321987 0.055562 0.660149 0.229135
H30   H     H_    0.307845 0.217599 0.641464 0.211037
H31   H     H_    0.192906 0.186861 0.508146 0.207001
H32   H     H_    0.145881 0.036492 0.530087 0.190777

loop_
_geom_bond_atom_site_label_1
_geom_bond_atom_site_label_2
_ccdc_geom_bond_type
C27   H16   S    
C31   H23   S    
C23   O6    A    
C33   H18   S    
C18   C21   A    
O10   H24   S    
C19   C20   A    
Cu2   O6    S    
Cu1   N4    S    
C1    O2    A    
C36   H31   S    
C38   H26   S    
C7    C8    A    
C29   N1    S    
O12   H25   S    
C26   C27   A    
C32   C33   S    
C32   H20   S    
C18   C24   S    
C24   H13   S    
C19   H7    S    
C28   C29   A    
C16   H3    S    
C20   H8    S    
C6    C25   S    
C15   C16   S    
Cu1   O7    S    
C1    O1    A    
C7    C31   S    
C37   H30   S    
C16   C17   S    
C25   O8    A    
C29   C30   A    
C9    C10   A    
C33   H19   S    
C21   C22   S    
Cu2   O2    S    
C36   H32   S    
C38   H27   S    
C18   N3    A    
C3    H12   S    
C4    C6    A    
C34   O10   S    
C8    C35   S    
C33   H17   S    
C12   C26   S    
C14   C23   S    
C35   O11   D    
Cu2   N3    S    
C37   H29   S    
Cu1   Cu2   S    
C2    C26   A    
C17   H5    S    
Cu1   O1    S    
C35   O12   S    
C12   O4    A    
C11   C36   S    
C9    C17   S    
C22   C24   S    
C5    N2    S    
C28   C34   S    
Cu2   O8    S    
C3    C4    A    
C38   H28   S    
C31   H22   S    
C23   O5    A    
C4    H1    S    
C30   H14   S    
C1    C10   S    
C37   C38   S    
C3    C5    A    
C5    C8    A    
C6    C7    A    
C2    H15   S    
C32   H21   S    
C2    C30   A    
Cu1   O5    S    
C9    C15   A    
C13   H2    S    
C20   N4    A    
C16   H4    S    
C11   C13   A    
C22   H10   S    
C17   H6    S    
C31   C32   S    
C12   O3    A    
C10   C11   A    
C36   C37   S    
C22   H9    S    
C19   N3    A    
C34   O9    D    
N1    N2    D    
C27   C28   A    
C24   H11   S    
C14   C15   A    
C25   O7    A    
Cu1   O3    S    
C13   C14   A    
Cu2   O4    S    
C21   N4    A    
