data_mof_unit_26451.cif
_audit_creation_date              2013-03-05T16:03:20-0500
_audit_creation_method            fapswitch 2.2
_symmetry_space_group_name_H-M    P1
_symmetry_Int_Tables_number       1
_space_group_crystal_system       triclinic
_cell_length_a                    27.769277
_cell_length_b                    11.700024
_cell_length_c                    10.431351
_cell_angle_alpha                 89.999063
_cell_angle_beta                  89.996098
_cell_angle_gamma                 90.017075
_cell_volume                      3389.15837551

loop_
_atom_site_label
_atom_site_type_symbol
_atom_site_description
_atom_site_fract_x
_atom_site_fract_y
_atom_site_fract_z
_atom_type_partial_charge
O1    O     O_R   0.500000 0.337200 0.605810 -0.570388
O2    O     O_R   0.500000 0.662800 0.394190 -0.571665
O3    O     O_R   0.500000 0.662800 0.605810 -0.570391
O4    O     O_R   0.500000 0.337200 0.394190 -0.571663
C1    C     C_R   0.500079 0.283252 0.499996 0.809207
C2    C     C_R   0.499927 0.716748 0.499995 0.808991
O5    O     O_R   0.430260 0.500000 0.605800 -0.563844
O6    O     O_R   0.569740 0.500000 0.394200 -0.563450
O7    O     O_R   0.569740 0.500000 0.605800 -0.563943
O8    O     O_R   0.430260 0.500000 0.394200 -0.563395
C3    C     C_R   0.407260 0.500163 0.500056 0.943703
C4    C     C_R   0.592739 0.499825 0.500051 0.943797
Cu1   Cu    Cu3+1 0.500000 0.500000 0.625300 1.005683
Cu2   Cu    Cu3+1 0.500000 0.500000 0.374700 1.005654
C5    C     C_R   0.177714 0.405137 0.550120 0.630755
C6    C     C_R   0.822290 0.594543 0.550519 0.631824
C7    C     C_R   0.177191 0.597565 0.473913 0.618612
C8    C     C_R   0.822782 0.402068 0.474467 0.618969
O9    O     O_2   0.203371 0.315431 0.594152 -0.476944
O10   O     O_2   0.796646 0.684286 0.594516 -0.476872
O11   O     O_2   0.202059 0.688384 0.429433 -0.501238
O12   O     O_2   0.797900 0.311228 0.430114 -0.501429
N1    N     N_R   0.201556 0.501485 0.511095 -0.434515
N2    N     N_R   0.798432 0.498192 0.511581 -0.434043
C9    C     C_R   0.279595 0.581371 0.580639 0.332099
C10   C     C_R   0.720348 0.418504 0.581053 0.332109
C11   C     C_R   0.278209 0.420826 0.431205 0.321118
C12   C     C_R   0.721840 0.578901 0.431421 0.320682
C13   C     C_R   0.329967 0.587520 0.567804 0.257205
C14   C     C_R   0.669978 0.412358 0.567956 0.255741
C15   C     C_R   0.328747 0.414882 0.436953 0.277333
C16   C     C_R   0.671301 0.584928 0.436994 0.277009
C17   C     C_R   0.253463 0.501347 0.507503 0.032834
C18   C     C_R   0.746527 0.498415 0.507889 0.034084
C19   C     C_R   0.101468 0.500058 0.511706 -0.190195
C20   C     C_R   0.898521 0.499569 0.512034 -0.190196
C21   C     C_R   0.126966 0.399382 0.544034 -0.108028
C22   C     C_R   0.873037 0.600271 0.544346 -0.108317
C23   C     C_R   0.126638 0.601518 0.480829 -0.114582
C24   C     C_R   0.873338 0.398096 0.481305 -0.114627
C25   C     C_R   0.101431 0.296884 0.570783 0.488628
C26   C     C_R   0.898585 0.702777 0.570963 0.488559
C27   C     C_R   0.100545 0.702967 0.455753 0.454120
C28   C     C_R   0.899419 0.296623 0.456261 0.454178
C29   C     C_R   0.354488 0.501198 0.500781 -0.349381
C30   C     C_R   0.645509 0.498684 0.500807 -0.348607
C31   C     C_R   0.974886 0.395637 0.503064 0.025031
C32   C     C_R   0.025099 0.603975 0.502880 0.025046
C33   C     C_R   0.974620 0.603739 0.522297 0.027304
C34   C     C_R   0.025374 0.395885 0.522299 0.027283
C35   C     C_R   0.949352 0.499757 0.511864 0.072561
C36   C     C_R   0.050637 0.499862 0.511688 0.072505
C37   C     C_R   0.949383 0.295291 0.473359 -0.317629
C38   C     C_R   0.050587 0.704301 0.472994 -0.317617
C39   C     C_R   0.949199 0.703065 0.556539 -0.339644
C40   C     C_R   0.050811 0.296583 0.556532 -0.339591
H1    H     H_    0.968008 0.215523 0.457148 0.144203
H2    H     H_    0.031953 0.784055 0.456772 0.144163
H3    H     H_    0.969398 0.778402 0.581350 0.145472
H4    H     H_    0.030629 0.221252 0.581480 0.145485
C41   C     C_1   0.500072 0.161928 0.499985 -0.158019
C42   C     C_1   0.499941 0.838072 0.499982 -0.157956
C43   C     C_1   0.500040 0.059691 0.499967 -0.017370
C44   C     C_1   0.499977 0.940309 0.499966 -0.017349
N3    N     N_1   0.500000 0.500000 0.186410 -0.136756
N4    N     N_1   0.500000 0.500000 0.813590 -0.136713
C45   C     C_1   0.500000 0.500000 0.071956 0.097982
C46   C     C_1   0.500000 0.500000 0.928043 0.097294
O13   O     O_3   0.353791 0.326704 0.378226 -0.582895
C47   C     C_3   0.347092 0.222671 0.446122 0.090966
H5    H     H_    0.366823 0.155388 0.392572 0.166225
H6    H     H_    0.308694 0.195924 0.447327 0.197033
C48   C     C_3   0.367085 0.226987 0.583877 -0.388215
H7    H     H_    0.404182 0.261851 0.582824 0.225627
H8    H     H_    0.344258 0.283824 0.643816 0.216060
C49   C     C_3   0.367929 0.108848 0.645561 -0.894013
H9    H     H_    0.331709 0.068694 0.641040 0.259412
H10   H     H_    0.378797 0.116637 0.747617 0.266006
H11   H     H_    0.394486 0.053499 0.596145 0.251358
O14   O     O_3   0.646310 0.673117 0.378136 -0.583043
C50   C     C_3   0.653016 0.777173 0.445974 0.091049
H12   H     H_    0.633337 0.844472 0.392316 0.166259
H13   H     H_    0.691425 0.803835 0.447280 0.197001
C51   C     C_3   0.632954 0.772966 0.583669 -0.388212
H14   H     H_    0.595849 0.738150 0.582525 0.225565
H15   H     H_    0.655738 0.716135 0.643724 0.216007
C52   C     C_3   0.632105 0.891142 0.645259 -0.894029
H16   H     H_    0.668333 0.931261 0.640796 0.259431
H17   H     H_    0.621194 0.883423 0.747294 0.266007
H18   H     H_    0.605575 0.946479 0.595732 0.251344
O15   O     O_3   0.356063 0.675702 0.623210 -0.588514
C53   C     C_3   0.347972 0.779525 0.556146 0.088269
H19   H     H_    0.367995 0.847418 0.607967 0.167145
H20   H     H_    0.309404 0.804963 0.558273 0.194772
C54   C     C_3   0.366322 0.775531 0.416767 -0.383961
H21   H     H_    0.403537 0.741338 0.414647 0.226953
H22   H     H_    0.342966 0.718193 0.358869 0.214326
C55   C     C_3   0.366026 0.893630 0.354965 -0.900336
H23   H     H_    0.329782 0.933196 0.362883 0.256992
H24   H     H_    0.375542 0.885937 0.251944 0.265756
H25   H     H_    0.393090 0.949419 0.401801 0.252798
O16   O     O_3   0.643833 0.324130 0.623122 -0.589396
C56   C     C_3   0.652004 0.220363 0.556028 0.087909
H26   H     H_    0.631975 0.152403 0.607727 0.167226
H27   H     H_    0.690581 0.195006 0.558285 0.194716
C57   C     C_3   0.633730 0.224412 0.416586 -0.383489
H28   H     H_    0.596504 0.258539 0.414358 0.226982
H29   H     H_    0.657100 0.281833 0.358820 0.214283
C58   C     C_3   0.634101 0.106355 0.354690 -0.900548
H30   H     H_    0.670351 0.066839 0.362738 0.257059
H31   H     H_    0.624655 0.114105 0.251632 0.265651
H32   H     H_    0.607020 0.050492 0.401357 0.252840
O17   O     O_3   0.252974 0.340696 0.360690 -0.575237
C59   C     C_3   0.242031 0.386863 0.239253 0.073897
H33   H     H_    0.275567 0.412623 0.187960 0.155023
H34   H     H_    0.217855 0.462361 0.248971 0.141527
C60   C     C_3   0.216266 0.295284 0.160278 -0.331780
H35   H     H_    0.240466 0.220339 0.148404 0.229030
H36   H     H_    0.183401 0.266706 0.212112 0.225962
C61   C     C_3   0.201836 0.339633 0.028192 -0.911251
H37   H     H_    0.175255 0.409996 0.037794 0.249661
H38   H     H_    0.185023 0.269459 0.972170 0.275133
H39   H     H_    0.233961 0.370916 0.975270 0.257852
O18   O     O_3   0.747152 0.658882 0.360878 -0.575157
C62   C     C_3   0.757975 0.612668 0.239388 0.072774
H40   H     H_    0.724329 0.588336 0.187760 0.156041
H41   H     H_    0.781641 0.536241 0.248983 0.140900
C63   C     C_3   0.784460 0.703487 0.160994 -0.331992
H42   H     H_    0.760878 0.779603 0.149692 0.229236
H43   H     H_    0.817562 0.730245 0.212970 0.225690
C64   C     C_3   0.798495 0.659210 0.028570 -0.911164
H44   H     H_    0.824369 0.587309 0.037592 0.249909
H45   H     H_    0.816006 0.728800 0.973138 0.275074
H46   H     H_    0.766084 0.630073 0.975360 0.257851
O19   O     O_3   0.255448 0.658567 0.657771 -0.570503
C65   C     C_3   0.257249 0.619761 0.785815 0.072245
H47   H     H_    0.295188 0.607107 0.817868 0.166299
H48   H     H_    0.237130 0.537750 0.795541 0.143258
C66   C     C_3   0.233842 0.709450 0.872316 -0.311672
H49   H     H_    0.252668 0.792571 0.859649 0.231841
H50   H     H_    0.195520 0.720742 0.844157 0.223821
C67   C     C_3   0.236284 0.675027 0.013356 -0.941737
H51   H     H_    0.216227 0.594317 0.029314 0.254107
H52   H     H_    0.219781 0.742886 0.073398 0.268460
H53   H     H_    0.274304 0.663429 0.043809 0.261464
O20   O     O_3   0.744489 0.341425 0.658362 -0.570528
C68   C     C_3   0.741836 0.379192 0.786698 0.071859
H54   H     H_    0.703661 0.389129 0.817918 0.168588
H55   H     H_    0.760963 0.462415 0.797679 0.142237
C69   C     C_3   0.765999 0.290476 0.872976 -0.312451
H56   H     H_    0.748428 0.206046 0.858518 0.232223
H57   H     H_    0.804612 0.282519 0.846202 0.223388
C70   C     C_3   0.762281 0.323201 0.014323 -0.941051
H58   H     H_    0.780761 0.405739 0.031968 0.253834
H59   H     H_    0.779712 0.256481 0.074117 0.268320
H60   H     H_    0.723940 0.330599 0.043582 0.261856
O21   O     O_3   0.127066 0.204026 0.620586 -0.572248
C71   C     C_3   0.106839 0.095025 0.596832 0.092706
H61   H     H_    0.137028 0.036515 0.572820 0.200050
H62   H     H_    0.082473 0.091944 0.512126 0.105313
C72   C     C_3   0.082740 0.049932 0.719079 -0.361478
H63   H     H_    0.109836 0.046221 0.797446 0.234542
H64   H     H_    0.053562 0.108533 0.750055 0.212381
C73   C     C_3   0.061782 0.930881 0.699019 -0.895991
H65   H     H_    0.034925 0.932343 0.620309 0.247775
H66   H     H_    0.043647 0.902022 0.788190 0.249634
H67   H     H_    0.090876 0.869327 0.675380 0.286262
O22   O     O_3   0.872962 0.795665 0.620759 -0.572248
C74   C     C_3   0.893225 0.904648 0.597112 0.092728
H68   H     H_    0.863050 0.963252 0.573276 0.200147
H69   H     H_    0.917556 0.907770 0.512328 0.105298
C75   C     C_3   0.917384 0.949553 0.719351 -0.361428
H70   H     H_    0.890316 0.953255 0.797794 0.234511
H71   H     H_    0.946546 0.890851 0.750183 0.212356
C76   C     C_3   0.938389 0.068572 0.699377 -0.896098
H72   H     H_    0.965223 0.067116 0.620602 0.247741
H73   H     H_    0.956562 0.097302 0.788539 0.249612
H74   H     H_    0.909316 0.130220 0.675876 0.286293
O23   O     O_3   0.124061 0.804275 0.427542 -0.583090
C77   C     C_3   0.117010 0.830625 0.296667 0.077296
H75   H     H_    0.078657 0.853103 0.278390 0.120481
H76   H     H_    0.127495 0.757065 0.234499 0.144188
C78   C     C_3   0.148438 0.933200 0.261245 -0.295880
H77   H     H_    0.138764 0.007195 0.322877 0.208183
H78   H     H_    0.186899 0.911741 0.278426 0.246445
C79   C     C_3   0.141911 0.966880 0.120898 -0.955085
H79   H     H_    0.151914 0.894735 0.057015 0.261176
H80   H     H_    0.165417 0.041019 0.098366 0.262706
H81   H     H_    0.103913 0.991448 0.102243 0.255598
O24   O     O_3   0.875892 0.195302 0.428186 -0.583111
C80   C     C_3   0.882875 0.168926 0.297290 0.077196
H82   H     H_    0.921219 0.146443 0.278867 0.120460
H83   H     H_    0.872359 0.242475 0.235143 0.144174
C81   C     C_3   0.851428 0.066348 0.262020 -0.295870
H84   H     H_    0.861149 0.992346 0.323584 0.208194
H85   H     H_    0.812977 0.087791 0.279410 0.246517
C82   C     C_3   0.857857 0.032694 0.121634 -0.954825
H86   H     H_    0.847786 0.104833 0.057820 0.261069
H87   H     H_    0.834354 0.958522 0.099228 0.262713
H88   H     H_    0.895847 0.008184 0.102758 0.255529

loop_
_geom_bond_atom_site_label_1
_geom_bond_atom_site_label_2
_geom_bond_distance
_ccdc_geom_bond_type
O5    Cu1   1.947296 S    
C81   H85   1.111795 S    
C52   H16   1.110987 S    
O21   C71   1.415251 S    
C39   H3    1.076234 S    
O16   C56   1.419674 S    
C48   H8    1.111380 S    
C48   H7    1.107916 S    
N4    C46   1.193902 T    
C68   H54   1.115080 S    
C49   H11   1.108687 S    
C64   H46   1.110972 S    
C63   H42   1.111844 S    
C72   C73   1.523887 S    
C33   C35   1.408478 A    
C59   H33   1.115416 S    
C54   C55   1.524765 S    
O19   C65   1.411620 S    
C76   H73   1.110264 S    
C11   C17   1.411938 A    
C32   C38   1.405519 A    
C27   O23   1.384736 S    
C7    N1    1.368342 A    
C21   C25   1.420663 A    
O1    C1    1.271520 A    
C73   H65   1.109380 S    
C68   H55   1.114923 S    
C49   H10   1.110302 S    
C22   C26   1.420672 A    
C32   C36   1.412694 A    
C78   H78   1.111793 S    
C19   C23   1.414541 A    
C66   C67   1.526880 S    
C81   C82   1.526912 S    
C57   H28   1.108534 S    
C82   H87   1.110575 S    
C7    C23   1.406462 A    
C10   O20   1.383276 S    
O7    Cu1   1.947266 S    
C5    C21   1.412241 A    
C42   C44   1.196175 T    
C56   H26   1.110014 S    
C58   H31   1.110313 S    
C28   O24   1.384728 S    
C28   C37   1.398986 A    
C10   C18   1.408763 A    
C31   C35   1.412702 A    
C12   O18   1.382306 S    
C54   H21   1.108497 S    
C61   H38   1.110587 S    
N1    C17   1.441895 S    
C69   C70   1.526843 S    
C62   C63   1.529100 S    
C34   C36   1.408493 A    
C51   C52   1.524825 S    
C47   H5    1.110039 S    
C31   C34   1.416316 A    
O3    Cu1   1.915580 S    
C77   C78   1.528985 S    
C6    O10   1.349320 S    
C31   C37   1.405519 A    
O3    C2    1.271512 A    
C5    N1    1.369063 A    
C81   H84   1.111345 S    
C12   C18   1.411893 A    
C6    N2    1.369055 A    
Cu1   Cu2   2.614097 S    
C71   H62   1.113535 S    
C74   H69   1.113524 S    
C67   H53   1.110924 S    
O2    C2    1.271444 A    
C65   C66   1.529110 S    
C9    O19   1.383128 S    
C72   H64   1.109640 S    
C26   O22   1.399154 S    
C72   H63   1.111933 S    
C76   H74   1.110186 S    
Cu1   N4    1.964120 S    
C9    C13   1.406995 A    
O20   C68   1.411692 S    
C11   C15   1.406415 A    
C45   C46   1.501208 S    
C74   H68   1.111065 S    
C20   C24   1.414533 A    
C68   C69   1.529089 S    
C51   H14   1.107916 S    
C4    C30   1.465471 S    
O8    Cu2   1.947269 S    
C60   C61   1.525915 S    
O15   C53   1.419721 S    
C37   H1    1.080461 S    
O14   C50   1.420409 S    
C23   C27   1.415212 A    
C50   H12   1.110046 S    
N3    C45   1.193906 T    
C33   C39   1.406015 A    
C53   C54   1.541317 S    
N2    C18   1.441893 S    
C40   H4    1.076248 S    
C13   C29   1.404591 A    
C82   H88   1.110895 S    
C5    O9    1.349313 S    
C78   H77   1.111361 S    
C80   H83   1.116330 S    
C25   C40   1.413520 A    
C69   H57   1.111936 S    
C26   C39   1.413548 A    
C16   O14   1.386963 S    
C27   C38   1.398981 A    
O5    C3    1.274662 A    
C82   H86   1.110800 S    
C12   C16   1.406413 A    
O6    C4    1.275623 A    
C14   O16   1.386835 S    
C47   C48   1.541345 S    
C53   H20   1.111873 S    
C61   H37   1.110391 S    
C1    C41   1.419488 S    
C56   H27   1.111902 S    
C49   H9    1.110987 S    
C70   H60   1.110962 S    
C20   C35   1.411528 A    
C25   O21   1.399116 S    
C11   O17   1.382314 S    
C65   H48   1.114804 S    
C32   C33   1.416302 A    
C10   C14   1.407216 A    
C55   H24   1.110313 S    
C52   H17   1.110301 S    
C71   H61   1.111073 S    
C74   C75   1.533623 S    
C8    N2    1.368351 A    
C58   H32   1.108763 S    
C70   H59   1.110387 S    
C79   H80   1.110579 S    
C64   H44   1.110468 S    
C63   C64   1.525942 S    
C13   O15   1.386829 S    
C50   C51   1.541347 S    
C75   H70   1.111930 S    
C75   C76   1.523887 S    
O17   C59   1.410278 S    
C38   H2    1.080459 S    
C80   H82   1.113581 S    
C8    C24   1.406479 A    
C54   H22   1.111428 S    
O22   C74   1.415234 S    
O6    Cu2   1.947294 S    
C77   H76   1.116330 S    
C19   C21   1.415301 A    
C8    O12   1.349342 S    
C16   C30   1.404905 A    
C14   C30   1.404599 A    
C73   H67   1.110187 S    
C51   H15   1.111382 S    
O4    C1    1.271438 A    
C64   H45   1.110599 S    
C63   H43   1.112139 S    
C50   H13   1.111258 S    
C59   H34   1.114271 S    
C66   H49   1.111860 S    
C61   H39   1.110971 S    
O23   C77   1.413234 S    
C55   H25   1.108753 S    
C69   H56   1.111914 S    
C78   C79   1.526923 S    
C2    C42   1.419491 S    
C79   H81   1.110893 S    
C60   H36   1.112137 S    
C70   H58   1.108840 S    
C80   C81   1.528985 S    
C76   H72   1.109381 S    
C15   O13   1.386971 S    
C60   H35   1.111815 S    
C20   C22   1.415305 A    
C66   H50   1.111925 S    
C62   H40   1.115327 S    
C57   H29   1.111431 S    
C73   H66   1.110265 S    
C53   H19   1.110031 S    
C75   H71   1.109641 S    
Cu2   N3    1.964119 S    
C56   C57   1.541309 S    
C67   H52   1.110339 S    
O4    Cu2   1.915580 S    
O13   C47   1.420415 S    
O2    Cu2   1.915587 S    
O7    C4    1.274620 A    
C34   C40   1.406017 A    
O24   C80   1.413236 S    
C59   C60   1.529140 S    
C3    C29   1.465505 S    
O8    C3    1.275597 A    
C43   C44   1.396775 S    
C24   C28   1.415218 A    
O1    Cu1   1.915587 S    
C48   C49   1.524842 S    
C71   C72   1.533611 S    
C55   H23   1.111027 S    
C15   C29   1.404927 A    
C52   H18   1.108679 S    
C9    C17   1.408886 A    
C19   C36   1.411530 A    
C62   H41   1.114387 S    
C67   H51   1.108742 S    
C65   H47   1.115265 S    
C47   H6    1.111249 S    
C79   H79   1.110797 S    
C58   H30   1.111028 S    
C77   H75   1.113575 S    
C6    C22   1.412248 A    
O18   C62   1.410250 S    
C41   C43   1.196175 T    
C57   C58   1.524768 S    
C7    O11   1.349342 S    
