data_mof_unit_5055.cif
_audit_creation_date              2012-10-26T18:59:38-0400
_audit_creation_method            fapswitch 2.2
_symmetry_space_group_name_H-M    P1
_symmetry_Int_Tables_number       1
_space_group_crystal_system       triclinic
_cell_length_a                    23.225796
_cell_length_b                    10.849015
_cell_length_c                    9.541529
_cell_angle_alpha                 90.18708
_cell_angle_beta                  90.161932
_cell_angle_gamma                 89.351183
_cell_volume                      2404.06962201

loop_
_atom_site_label
_atom_site_type_symbol
_atom_type_description
_atom_site_fract_x
_atom_site_fract_y
_atom_site_fract_z
_atom_type_partial_charge
C1    C     C_R   0.500488 0.262749 0.499782 0.575300
C2    C     C_R   0.123588 0.494862 0.660595 0.438748
C3    C     C_R   0.232226 0.586377 0.541713 0.064828
C4    C     C_R   0.390806 0.501541 0.499692 0.559316
C5    C     C_R   0.293238 0.596986 0.549801 -0.058127
C6    C     C_R   0.327670 0.498608 0.497545 0.008413
C7    C     C_R   0.301779 0.405094 0.419537 -0.184055
C8    C     C_R   0.242002 0.398373 0.409735 0.034151
C9    C     C_R   0.207908 0.470946 0.502575 0.235155
C10   C     C_R   0.754929 0.379351 0.592998 -0.074308
C11   C     C_R   0.695893 0.394128 0.580870 -0.151855
C12   C     C_R   0.973046 0.235466 0.421219 -0.014080
C13   C     C_R   0.672254 0.491394 0.503076 0.015082
C14   C     C_R   0.708698 0.576124 0.434134 -0.026954
C15   C     C_R   0.769564 0.557426 0.441941 0.058497
C16   C     C_R   0.499694 0.737391 0.500412 0.529157
C17   C     C_R   0.791933 0.459748 0.525184 0.244059
C18   C     C_R   0.502184 0.063314 0.622491 -0.016167
C19   C     C_R   0.500598 0.130222 0.498715 0.011462
C20   C     C_R   0.498353 0.063987 0.371597 -0.141052
C21   C     C_R   0.497914 0.935051 0.372661 -0.164359
C22   C     C_R   0.499289 0.870172 0.500483 -0.019119
C23   C     C_R   0.033360 0.234778 0.430141 -0.106861
C24   C     C_R   0.500732 0.938949 0.624104 -0.068592
C25   C     C_3   0.502995 0.931417 0.781808 0.017954
C26   C     C_3   0.505980 0.076695 0.778713 0.038365
C27   C     C_R   0.544433 0.447938 0.073620 0.247824
C28   C     C_R   0.609214 0.501534 0.500351 0.545418
C29   C     C_R   0.453368 0.542137 0.074269 -0.028058
C30   C     C_R   0.453249 0.541485 0.925570 -0.006742
C31   C     C_R   0.544460 0.448669 0.926161 0.168246
C32   C     C_3   0.606157 0.484210 0.919161 -0.276868
C33   C     C_3   0.606560 0.484115 0.078228 -0.124933
C34   C     C_R   0.062816 0.326113 0.504000 0.018779
C35   C     C_R   0.880948 0.515357 0.638764 0.379205
C36   C     C_R   0.880935 0.351276 0.471454 0.379136
C37   C     C_R   0.941255 0.333226 0.487279 0.032147
C38   C     C_R   0.971339 0.418157 0.573659 -0.044942
C39   C     C_R   0.940782 0.505833 0.653813 0.013121
C40   C     C_3   0.945775 0.125931 0.347844 -0.218666
C41   C     C_3   0.917190 0.040437 0.454453 -0.267028
C42   C     C_3   0.888885 0.930950 0.382485 -0.449755
C43   C     C_3   0.683314 0.691861 0.366795 -0.270425
C44   C     C_3   0.681901 0.798766 0.472431 -0.310652
C45   C     C_R   0.032090 0.415363 0.580720 -0.048509
C46   C     C_3   0.661313 0.918259 0.403739 -0.414777
C47   C     C_3   0.810755 0.636641 0.358417 -0.244805
C48   C     C_3   0.817193 0.586980 0.208517 -0.299325
C49   C     C_3   0.858780 0.664850 0.123692 -0.449842
C50   C     C_3   0.446702 0.876351 0.841383 -0.244591
C51   C     C_3   0.444848 0.876231 0.002227 -0.284443
C52   C     C_3   0.384036 0.853946 0.055705 -0.474628
C53   C     C_2   0.557161 0.864090 0.829525 0.249526
C54   C     C_2   0.455243 0.146654 0.841653 0.252904
C55   C     C_2   0.562783 0.131872 0.822407 0.235635
C56   C     C_R   0.062491 0.497114 0.669764 0.047605
C57   C     C_2   0.646525 0.387230 0.138351 0.253934
C58   C     C_3   0.057290 0.663768 0.866982 -0.226406
C59   C     C_3   0.071806 0.593660 0.002444 -0.272793
C60   C     C_3   0.102971 0.675708 0.107602 -0.396066
C61   C     C_2   0.194690 0.698837 0.549069 0.259114
C62   C     C_3   0.321066 0.717803 0.592810 -0.273264
C63   C     C_3   0.326894 0.802519 0.465014 -0.317212
C64   C     C_3   0.341691 0.934033 0.507360 -0.425524
C65   C     C_2   0.218953 0.342565 0.279404 0.295789
C66   C     C_R   0.030491 0.578271 0.759308 -0.003876
C67   C     C_R   0.970261 0.582185 0.747698 -0.119786
C68   C     C_R   0.123037 0.330237 0.503221 0.449602
Cu1   Cu    Cu3+1 0.500000 0.499980 0.640670 0.951865
Cu2   Cu    Cu3+1 0.500000 0.500020 0.359330 0.964246
H1    H     H_    0.668252 0.329236 0.633570 0.111163
H2    H     H_    0.946097 0.646072 0.813090 0.148484
H3    H     H_    0.328440 0.342821 0.357698 0.111643
H4    H     H_    0.772273 0.304611 0.655795 0.125666
H5    H     H_    0.854448 0.963153 0.309869 0.167888
H6    H     H_    0.921331 0.876063 0.323064 0.149898
H7    H     H_    0.869424 0.870961 0.463130 0.150611
H8    H     H_    0.950376 0.005239 0.528929 0.161891
H9    H     H_    0.884052 0.091072 0.516190 0.200250
H10   H     H_    0.915639 0.156002 0.264171 0.200532
H11   H     H_    0.979068 0.070557 0.291456 0.120270
H12   H     H_    0.497171 0.110995 0.271625 0.167443
H13   H     H_    0.657435 0.992024 0.484262 0.150243
H14   H     H_    0.692579 0.947630 0.322898 0.180890
H15   H     H_    0.618609 0.905294 0.353784 0.186311
H16   H     H_    0.652176 0.775852 0.559409 0.158536
H17   H     H_    0.725435 0.813380 0.517724 0.176697
H18   H     H_    0.707478 0.717601 0.271477 0.144326
H19   H     H_    0.638924 0.677291 0.328997 0.166251
H20   H     H_    0.842679 0.761443 0.116684 0.158762
H21   H     H_    0.902131 0.663827 0.173235 0.145617
H22   H     H_    0.862619 0.626509 0.016065 0.189187
H23   H     H_    0.497144 0.886597 0.273631 0.153245
H24   H     H_    0.833853 0.490596 0.211638 0.206041
H25   H     H_    0.774696 0.586647 0.154765 0.157517
H26   H     H_    0.796279 0.734267 0.356936 0.134244
H27   H     H_    0.853951 0.638749 0.407895 0.165815
H28   H     H_    0.354789 0.930369 0.023027 0.169597
H29   H     H_    0.367362 0.765493 0.014150 0.142033
H30   H     H_    0.384679 0.850035 0.171798 0.143047
H31   H     H_    0.473705 0.802135 0.042634 0.196930
H32   H     H_    0.460012 0.965387 0.044927 0.177297
H33   H     H_    0.408788 0.928029 0.800175 0.160816
H34   H     H_    0.416295 0.578414 0.129502 0.123814
H35   H     H_    0.442023 0.780375 0.804083 0.150654
H36   H     H_    0.581238 0.806308 0.756908 0.105391
H37   H     H_    0.455231 0.168313 0.952749 0.118968
H38   H     H_    0.593644 0.160903 0.744184 0.087022
H39   H     H_    0.692690 0.398759 0.128896 0.098549
H40   H     H_    0.144350 0.707505 0.063067 0.176702
H41   H     H_    0.075722 0.756981 0.135185 0.149052
H42   H     H_    0.112244 0.622682 0.204600 0.216584
H43   H     H_    0.031281 0.560789 0.050791 0.153481
H44   H     H_    0.099237 0.511526 0.979916 0.234401
H45   H     H_    0.057714 0.162924 0.376890 0.165226
H46   H     H_    0.095013 0.711971 0.823270 0.203762
H47   H     H_    0.026635 0.739588 0.894385 0.115417
H48   H     H_    0.207025 0.779083 0.609176 0.114209
H49   H     H_    0.307288 0.974087 0.574723 0.177434
H50   H     H_    0.383066 0.935376 0.564748 0.172927
H51   H     H_    0.345866 0.991768 0.412112 0.153026
H52   H     H_    0.361332 0.765236 0.395725 0.165571
H53   H     H_    0.286086 0.805339 0.403970 0.175701
H54   H     H_    0.296085 0.763252 0.677723 0.131782
H55   H     H_    0.364261 0.702015 0.639505 0.154069
H56   H     H_    0.415825 0.576374 0.870426 0.117165
H57   H     H_    0.243683 0.272065 0.224454 0.105155
H58   H     H_    0.633082 0.410561 0.870055 0.135469
H59   H     H_    0.612079 0.577673 0.874244 0.145759
H60   H     H_    0.613101 0.577314 0.123399 0.107898
N1    N     N_R   0.852875 0.442253 0.544729 -0.396094
N2    N     N_R   0.150475 0.433278 0.552115 -0.353889
N3    N     N_R   0.500360 0.500930 0.147930 -0.249307
N4    N     N_R   0.500360 0.500890 0.852020 -0.239124
O1    O     O_R   0.500000 0.319640 0.618810 -0.473590
O2    O     O_R   0.582120 0.500020 0.618760 -0.519283
O3    O     O_R   0.582120 0.500060 0.381180 -0.483240
O4    O     O_2   0.850944 0.598900 0.715150 -0.533191
O5    O     O_2   0.574044 0.872601 0.950412 -0.502153
O6    O     O_2   0.414098 0.179194 0.770163 -0.510255
O7    O     O_2   0.574758 0.143611 0.946372 -0.467685
O8    O     O_2   0.628026 0.296781 0.198585 -0.445152
O9    O     O_2   0.149518 0.704098 0.483377 -0.524506
O10   O     O_2   0.173581 0.378967 0.228411 -0.500504
O11   O     O_2   0.850281 0.281745 0.381799 -0.536486
O12   O     O_2   0.153111 0.229450 0.462820 -0.497551
O13   O     O_2   0.155949 0.548646 0.760175 -0.532709
O14   O     O_R   0.500010 0.319680 0.381230 -0.480344
O15   O     O_R   0.417880 0.499940 0.618820 -0.487312
O16   O     O_R   0.417880 0.499980 0.381240 -0.516269
O17   O     O_R   0.499990 0.680320 0.618770 -0.528523
O18   O     O_R   0.500000 0.680360 0.381190 -0.512297

loop_
_geom_bond_atom_site_label_1
_geom_bond_atom_site_label_2
_ccdc_geom_bond_type
C33   H60   S    
C29   N3    A    
C30   H56   S    
Cu1   N4    S    
C55   O7    D    
C48   H25   S    
C20   H12   S    
C17   N1    S    
C10   H4    S    
C41   C42   S    
C19   C20   A    
C18   C26   S    
C15   C47   S    
C49   H20   S    
C26   C55   S    
C62   H54   S    
C7    C8    A    
C7    H3    S    
C27   C33   S    
C51   H32   S    
C4    O15   A    
C12   C23   A    
C42   H5    S    
C37   C38   A    
C64   H49   S    
C48   H24   S    
C54   H37   S    
C18   C24   A    
C43   H18   S    
C65   H57   S    
C36   C37   A    
C25   C53   S    
C18   C19   A    
C35   O4    S    
C38   C39   A    
C11   H1    S    
C10   C17   A    
C64   H51   S    
C67   H2    S    
C12   C37   A    
C68   N2    A    
C25   C50   S    
C38   C45   A    
C53   H36   S    
C61   O9    D    
C54   O6    D    
C31   C32   S    
C45   C56   A    
C44   C46   S    
C8    C9    A    
C30   N4    A    
Cu2   O16   S    
Cu2   N3    S    
C2    N2    A    
C47   H26   S    
C40   H10   S    
C13   C28   S    
C44   H17   S    
C46   H15   S    
C66   C67   A    
C50   H33   S    
Cu1   O1    S    
C28   O2    A    
C21   C22   A    
C58   H46   S    
C49   H21   S    
C31   N4    A    
C44   H16   S    
C26   C54   S    
C32   H59   S    
C58   C66   S    
C3    C61   S    
C57   H39   S    
C1    C19   S    
C27   C31   A    
C51   C52   S    
C27   N3    A    
Cu2   O18   S    
C24   C25   S    
C4    C6    S    
C36   N1    A    
C34   C68   A    
C41   H8    S    
C65   O10   D    
C25   C26   S    
C23   H45   S    
C52   H30   S    
C58   H47   S    
C63   C64   S    
C29   H34   S    
Cu1   O17   S    
C12   C40   S    
C35   C39   A    
C43   C44   S    
C59   C60   S    
C62   C63   S    
C60   H42   S    
C50   H35   S    
C47   C48   S    
C59   H43   S    
C23   C34   A    
C50   C51   S    
C16   O18   A    
C34   C45   A    
C43   H19   S    
C3    C9    A    
Cu2   O3    S    
C46   H14   S    
C57   O8    D    
C48   C49   S    
Cu1   O2    S    
C22   C24   A    
C58   C59   S    
Cu2   O14   S    
C49   H22   S    
C35   N1    A    
C63   H52   S    
C68   O12   S    
C9    N2    S    
C15   C17   A    
C40   C41   S    
C16   C22   S    
C61   H48   S    
C53   O5    D    
C39   C67   A    
C40   H11   S    
C28   O3    A    
C3    C5    A    
C47   H27   S    
C41   H9    S    
C62   H55   S    
C63   H53   S    
C6    C7    A    
C33   C57   S    
C51   H31   S    
C4    O16   A    
C52   H29   S    
C42   H6    S    
C64   H50   S    
C55   H38   S    
Cu1   O15   S    
C32   C33   S    
C32   H58   S    
C2    O13   S    
C60   H41   S    
C2    C56   A    
C11   C13   A    
C5    C6    A    
C21   H23   S    
C59   H44   S    
C56   C66   A    
C52   H28   S    
C5    C62   S    
C16   O17   A    
Cu1   Cu2   S    
C60   H40   S    
C10   C11   A    
C29   C30   A    
C46   H13   S    
C36   O11   S    
C8    C65   S    
C20   C21   A    
C42   H7    S    
C1    O1    A    
C14   C15   A    
C1    O14   A    
C13   C14   A    
C14   C43   S    
