data_mof_unit_64962.cif
_audit_creation_date              2012-12-10T17:54:02-0500
_audit_creation_method            fapswitch 2.2
_symmetry_space_group_name_H-M    P1
_symmetry_Int_Tables_number       1
_space_group_crystal_system       triclinic
_cell_length_a                    18.915033
_cell_length_b                    18.720151
_cell_length_c                    18.835777
_cell_angle_alpha                 109.297266
_cell_angle_beta                  109.28918
_cell_angle_gamma                 109.44853
_cell_volume                      5158.10875186

loop_
_atom_site_label
_atom_site_type_symbol
_atom_type_description
_atom_site_fract_x
_atom_site_fract_y
_atom_site_fract_z
_atom_type_partial_charge
C1    C     C_R   0.881091 0.380806 0.999904 0.796847
C2    C     C_R   0.811510 0.312663 0.996060 -0.093434
C3    C     C_R   0.796411 0.226435 0.960886 -0.196558
C4    C     C_R   0.732815 0.162358 0.962010 -0.207945
C5    C     C_R   0.682952 0.183705 0.996744 -0.096979
C6    C     C_R   0.691352 0.266217 0.021789 0.122661
C7    C     C_3   0.704842 0.329082 0.105062 -0.063562
C8    C     C_3   0.774436 0.399546 0.105224 -0.451804
C9    C     C_R   0.255696 0.574810 0.252603 0.077314
C10   C     C_R   0.182676 0.498460 0.183110 -0.083196
C11   C     C_R   0.175113 0.418973 0.177449 -0.203954
C12   C     C_R   0.883573 0.502000 0.881998 0.842343
C13   C     C_R   0.239540 0.419070 0.242145 -0.197898
C14   C     C_R   0.313374 0.498532 0.311229 -0.059117
C15   C     C_R   0.318987 0.574794 0.312731 0.046944
C16   C     C_3   0.372777 0.671633 0.362839 -0.481661
C17   C     C_3   0.300635 0.671533 0.293591 0.217335
C18   C     C_R   0.184432 0.758577 0.003849 0.119929
C19   C     C_R   0.186894 0.684860 0.001975 -0.076368
C20   C     C_R   0.257860 0.676351 0.000423 -0.135429
C21   C     C_R   0.323283 0.741708 0.001393 -0.189478
C22   C     C_R   0.316554 0.814400 0.000817 -0.092329
C23   C     C_R   0.118980 0.618707 0.000413 0.826055
C24   C     C_R   0.245263 0.819356 0.001385 0.128212
C25   C     C_3   0.202262 0.873047 0.001554 -0.472447
C26   C     C_3   0.132236 0.803089 0.003450 -0.468612
C27   C     C_R   0.496913 0.381068 0.378433 0.791868
C28   C     C_R   0.614403 0.497460 0.613066 0.841450
C29   C     C_R   0.496179 0.618602 0.614831 0.797388
C30   C     C_R   0.379141 0.499960 0.378662 0.797060
C31   C     C_R   0.500416 0.881118 0.881900 0.791276
C32   C     C_R   0.618272 0.118790 0.999754 0.806610
C33   C     C_R   0.499086 0.118653 0.118286 0.805698
C34   C     C_R   0.117744 0.499870 0.117816 0.828662
C35   C     C_R   0.381710 0.881292 0.000308 0.795570
C36   C     C_R   0.566338 0.299379 0.331946 0.095755
C37   C     C_R   0.496046 0.313174 0.312644 -0.056050
C38   C     C_R   0.420522 0.253499 0.232251 -0.195096
C39   C     C_R   0.420748 0.188792 0.168206 -0.186129
C40   C     C_R   0.495842 0.182030 0.185346 -0.077794
C41   C     C_R   0.566037 0.234432 0.269548 0.144158
C42   C     C_3   0.659324 0.289720 0.300453 -0.454160
C43   C     C_3   0.659409 0.361180 0.368938 -0.469459
C44   C     C_R   0.571936 0.757100 0.751512 0.126270
C45   C     C_2   0.753758 0.504182 0.679517 -0.161165
C46   C     C_R   0.495802 0.684553 0.681143 -0.089146
C47   C     C_R   0.417766 0.676261 0.678096 -0.208936
C48   C     C_R   0.418908 0.741150 0.744074 -0.206424
C49   C     C_R   0.498178 0.813160 0.815133 -0.083510
C50   C     C_R   0.573135 0.817417 0.816382 0.124109
C51   C     C_3   0.668929 0.871347 0.865449 -0.479444
C52   C     C_3   0.667632 0.801819 0.791919 -0.464207
C53   C     C_2   0.677917 0.490245 0.675518 -0.309789
C54   C     C_2   0.814783 0.491939 0.740617 -0.156906
C55   C     C_2   0.820641 0.508162 0.817791 -0.310049
C56   C     C_R   0.755238 0.330089 0.022288 0.087671
Cu1   Cu    Cu3+1 0.999590 0.561790 0.061400 0.964336
Cu2   Cu    Cu3+1 0.000410 0.438210 0.938600 0.960645
Cu3   Cu    Cu3+1 0.558560 0.561730 0.496790 0.962492
Cu4   Cu    Cu3+1 0.434970 0.438120 0.496790 0.959113
Cu5   Cu    Cu3+1 0.438600 0.999980 0.938570 0.975876
Cu6   Cu    Cu3+1 0.561400 0.999920 0.061330 0.963240
H1    H     H_    0.769450 0.520150 0.634271 0.159388
H2    H     H_    0.840264 0.427118 0.159057 0.184047
H3    H     H_    0.119257 0.357471 0.124292 0.149459
H4    H     H_    0.232194 0.357579 0.237699 0.150435
H5    H     H_    0.378185 0.699210 0.427716 0.163129
H6    H     H_    0.434987 0.694753 0.362693 0.244083
H7    H     H_    0.265291 0.700425 0.318248 0.119249
H8    H     H_    0.263195 0.620252 0.999528 0.172989
H9    H     H_    0.377722 0.734679 0.000916 0.160203
H10   H     H_    0.240908 0.937326 0.061917 0.198165
H11   H     H_    0.657976 0.464895 0.713949 0.158948
H12   H     H_    0.179003 0.875190 0.940247 0.205381
H13   H     H_    0.130020 0.827105 0.064669 0.214585
H14   H     H_    0.068754 0.764517 0.942988 0.192787
H15   H     H_    0.363057 0.259483 0.217815 0.141540
H16   H     H_    0.363296 0.145740 0.105123 0.160249
H17   H     H_    0.699247 0.263502 0.327925 0.200447
H18   H     H_    0.669962 0.306151 0.252025 0.207794
H19   H     H_    0.699321 0.376116 0.435887 0.191155
H20   H     H_    0.669943 0.418974 0.360030 0.224498
H21   H     H_    0.356439 0.620851 0.624529 0.156690
H22   H     H_    0.858689 0.474478 0.723971 0.162156
H23   H     H_    0.358429 0.734680 0.740053 0.154634
H24   H     H_    0.691718 0.935670 0.868289 0.188827
H25   H     H_    0.697485 0.873352 0.928458 0.209673
H26   H     H_    0.690380 0.826312 0.752911 0.208029
H27   H     H_    0.694758 0.763140 0.812286 0.196813
H28   H     H_    0.783392 0.534769 0.838286 0.155999
H29   H     H_    0.836189 0.209454 0.936341 0.163024
H30   H     H_    0.723991 0.097117 0.937888 0.135955
H31   H     H_    0.730693 0.315496 0.158270 0.130191
H32   H     H_    0.758030 0.448774 0.096125 0.224615
O1    O     O_R   0.909480 0.462010 0.051860 -0.587201
O2    O     O_R   0.445180 0.357580 0.407200 -0.586982
O3    O     O_R   0.638540 0.552110 0.586390 -0.583763
O4    O     O_R   0.534170 0.447730 0.586390 -0.581630
O5    O     O_R   0.548350 0.642270 0.586380 -0.585640
O6    O     O_R   0.443970 0.537890 0.586380 -0.585036
O7    O     O_R   0.459360 0.552110 0.407190 -0.574674
O8    O     O_R   0.354990 0.447740 0.407190 -0.594400
O9    O     O_R   0.448700 0.909820 0.858480 -0.586660
O10   O     O_R   0.552410 0.909770 0.962140 -0.586190
O11   O     O_R   0.538310 0.090150 0.948110 -0.561585
O12   O     O_R   0.910180 0.357650 0.948150 -0.591836
O13   O     O_R   0.642020 0.090090 0.051780 -0.592370
O14   O     O_R   0.447590 0.090130 0.037760 -0.574700
O15   O     O_R   0.551300 0.090080 0.141420 -0.586526
O16   O     O_R   0.357980 0.909810 0.948120 -0.592879
O17   O     O_R   0.461690 0.909750 0.051790 -0.576222
O18   O     O_R   0.910060 0.552180 0.962250 -0.589475
O19   O     O_R   0.910760 0.447820 0.858550 -0.578996
O20   O     O_R   0.089820 0.642350 0.051850 -0.570396
O21   O     O_R   0.090520 0.537990 0.948140 -0.596039
O22   O     O_R   0.089240 0.552180 0.141450 -0.588728
O23   O     O_R   0.089940 0.447820 0.037750 -0.582625
O24   O     O_R   0.549550 0.461960 0.407200 -0.581464
Cl1   Cl    Cl    0.332712 0.707238 0.226821 -0.611369
I1    I     I_    0.593644 0.343359 0.087937 -0.375596

loop_
_geom_bond_atom_site_label_1
_geom_bond_atom_site_label_2
_ccdc_geom_bond_type
C28   O3    A    
C42   H18   S    
Cu3   O5    S    
C41   C42   S    
C19   C20   A    
C18   C26   S    
C8    C56   S    
C54   H22   S    
C52   H27   S    
C7    C8    S    
C17   H7    S    
C22   C35   S    
C21   H9    S    
C18   C24   A    
C36   C37   A    
Cu5   O9    S    
C31   C49   S    
C25   H12   S    
C55   H28   S    
Cu4   O4    S    
C38   C39   A    
Cu1   O18   S    
C34   O22   A    
C15   C16   S    
C3    H29   S    
C1    C2    S    
Cu5   O14   S    
C44   C50   A    
C54   C55   D    
Cu6   O17   S    
C16   C17   S    
C32   O13   A    
Cu2   O19   S    
C26   H14   S    
C16   H6    S    
C47   H21   S    
Cu5   O11   S    
C9    C10   A    
C1    O12   A    
C5    C32   S    
C44   C52   S    
C34   O23   A    
C45   C53   D    
Cu3   Cu4   S    
C21   C22   A    
C20   H8    S    
C36   C41   A    
C33   O14   A    
C14   C30   S    
Cu4   O8    S    
Cu5   O16   S    
C51   H24   S    
C44   C46   A    
C50   C51   S    
Cu1   O22   S    
Cu6   O10   S    
C13   H4    S    
C27   O2    A    
C7    H31   S    
C33   C40   S    
C29   O5    A    
C51   C52   S    
Cu3   O7    S    
C39   H16   S    
C52   H26   S    
C8    H32   S    
C24   C25   S    
C51   H25   S    
C39   C40   A    
C16   H5    S    
C18   C19   A    
Cu6   O13   S    
C25   C26   S    
C45   H1    S    
Cu2   O23   S    
Cu2   O12   S    
C31   O9    A    
C19   C23   S    
C37   C38   A    
C47   C48   A    
C1    O1    A    
C30   O8    A    
C26   H13   S    
C10   C34   S    
C25   H10   S    
C6    C7    S    
C35   O16   A    
C8    H2    S    
Cu4   O2    S    
C9    C17   S    
C48   C49   A    
C45   C54   S    
Cu3   O24   S    
C32   O11   A    
Cu2   O21   S    
C43   H19   S    
C22   C24   A    
C33   O15   A    
C42   C43   S    
C3    C4    A    
C12   O18   A    
C35   O17   A    
C12   O19   A    
C27   O24   A    
C28   O4    A    
C46   C47   A    
C40   C41   A    
C29   O6    A    
C48   H23   S    
C7    I1    S    
C53   H11   S    
C6    C56   A    
C4    C5    A    
Cu4   O6    S    
C28   C53   S    
Cu1   O20   S    
C38   H15   S    
C29   C46   S    
C31   O10   A    
C2    C3    A    
C9    C15   A    
C2    C56   A    
C23   O20   A    
C11   C13   A    
Cu1   Cu2   S    
C5    C6    A    
Cu6   O15   S    
C27   C37   S    
Cu3   O3    S    
C30   O7    A    
Cu5   Cu6   S    
C12   C55   S    
C10   C11   A    
C17   Cl1   S    
C23   O21   A    
C42   H17   S    
C20   C21   A    
C49   C50   A    
Cu1   O1    S    
C43   H20   S    
C14   C15   A    
C36   C43   S    
C13   C14   A    
C11   H3    S    
C4    H30   S    
