data_mof_unit_44288.cif
_audit_creation_date              2012-10-26T18:33:57-0400
_audit_creation_method            fapswitch 2.2
_symmetry_space_group_name_H-M    P1
_symmetry_Int_Tables_number       1
_space_group_crystal_system       triclinic
_cell_length_a                    11.116318
_cell_length_b                    10.837474
_cell_length_c                    9.625655
_cell_angle_alpha                 90.488692
_cell_angle_beta                  103.077273
_cell_angle_gamma                 93.092926
_cell_volume                      1127.65384107

loop_
_atom_site_label
_atom_site_type_symbol
_atom_type_description
_atom_site_fract_x
_atom_site_fract_y
_atom_site_fract_z
_atom_type_partial_charge
C1    C     C_R   0.502871 0.262670 0.500330 0.561178
C2    C     C_2   0.870382 0.511060 0.590300 -0.110837
C3    C     C_2   0.065984 0.522433 0.510586 0.002255
C4    C     C_2   0.935755 0.473342 0.496761 0.000040
C5    C     C_R   0.450536 0.062153 0.375059 -0.132521
C6    C     C_R   0.548256 0.938052 0.623597 -0.152360
C7    C     C_R   0.439286 0.933130 0.372794 0.115956
C8    C     C_R   0.557841 0.066225 0.625544 0.100449
C9    C     C_R   0.492365 0.871287 0.498507 0.007925
C10   C     C_R   0.506119 0.128688 0.500463 0.024158
C11   C     C_2   0.878835 0.378596 0.383965 0.575232
C12   C     C_R   0.496368 0.737294 0.499410 0.564809
C13   C     C_2   0.127131 0.605558 0.634047 0.589489
C14   C     C_2   0.295407 0.383681 0.086167 0.632265
C15   C     C_2   0.699602 0.624982 0.910744 0.597070
C16   C     C_3   0.356828 0.203482 0.863563 -0.297469
C17   C     C_3   0.663333 0.775170 0.187766 -0.277131
C18   C     C_3   0.330257 0.924948 0.114702 -0.316024
C19   C     C_3   0.745647 0.176144 0.753074 -0.238711
C20   C     C_R   0.263558 0.502243 0.441943 0.546509
C21   C     C_R   0.736251 0.498717 0.558161 0.549607
C22   C     C_R   0.409567 0.434995 0.049244 0.160715
C23   C     C_R   0.590519 0.566054 0.951312 0.146162
C24   C     C_R   0.416353 0.425299 0.903899 0.249368
C25   C     C_R   0.589018 0.567577 0.099569 0.221372
C26   C     C_2   0.128821 0.493396 0.410742 -0.114502
Cu1   Cu    Cu3+1 0.500000 0.500020 0.640660 1.035083
Cu2   Cu    Cu3+1 0.500000 0.499980 0.359340 1.045496
H1    H     H_    0.911957 0.568243 0.683145 0.142562
H2    H     H_    0.376568 0.145812 0.776440 0.155295
H3    H     H_    0.270199 0.164775 0.889349 0.163539
H4    H     H_    0.434343 0.197207 0.958783 0.143460
H5    H     H_    0.767877 0.620355 0.208550 0.297718
H6    H     H_    0.718039 0.815848 0.114477 0.142834
H7    H     H_    0.697701 0.819536 0.294781 0.165766
H8    H     H_    0.564841 0.795623 0.148271 0.181807
H9    H     H_    0.308268 0.796903 0.270343 0.282472
H10   H     H_    0.291283 0.854258 0.029988 0.160577
H11   H     H_    0.409923 0.975322 0.084468 0.139435
H12   H     H_    0.084101 0.446547 0.311392 0.164142
H13   H     H_    0.257207 0.989317 0.121343 0.157546
H14   H     H_    0.616053 0.085216 0.845370 0.238204
H15   H     H_    0.784563 0.231722 0.852058 0.162725
H16   H     H_    0.746732 0.236151 0.660494 0.195110
H17   H     H_    0.804784 0.097309 0.748992 0.149253
H18   H     H_    0.412164 0.111622 0.280601 0.183625
H19   H     H_    0.588024 0.890978 0.719828 0.185631
H20   H     H_    0.822638 0.334916 0.174197 0.345747
H21   H     H_    0.223333 0.766675 0.700410 0.330934
H22   H     H_    0.212748 0.254761 0.188158 0.319963
H23   H     H_    0.883855 0.625178 0.927671 0.347601
H24   H     H_    0.315706 0.336885 0.709410 0.303525
N1    N     N_R   0.500030 0.500030 0.852080 -0.273741
N2    N     N_R   0.499970 0.499970 0.147920 -0.266228
N3    N     N_2   0.340290 0.329887 0.817406 -0.472087
N4    N     N_2   0.677649 0.643319 0.198479 -0.452385
N5    N     N_2   0.370429 0.864488 0.249571 -0.500599
N6    N     N_2   0.620763 0.131048 0.753039 -0.504415
O1    O     O_R   0.499990 0.319660 0.618740 -0.494173
O2    O     O_R   0.864972 0.405819 0.239702 -0.689726
O3    O     O_2   0.133959 0.571663 0.756302 -0.489105
O4    O     O_R   0.181923 0.719915 0.608913 -0.695107
O5    O     O_2   0.197128 0.428819 0.034667 -0.467763
O6    O     O_R   0.297614 0.281442 0.173053 -0.731239
O7    O     O_2   0.690835 0.718870 0.841379 -0.555590
O8    O     O_R   0.814814 0.575119 0.957980 -0.679252
O9    O     O_R   0.500010 0.680340 0.381260 -0.479903
O10   O     O_R   0.499990 0.319630 0.381170 -0.471116
O11   O     O_R   0.500010 0.680370 0.618830 -0.469137
O12   O     O_R   0.320690 0.500020 0.575130 -0.501214
O13   O     O_R   0.679310 0.499980 0.424870 -0.457976
O14   O     O_R   0.320680 0.499990 0.337560 -0.481067
O15   O     O_R   0.679320 0.500010 0.662440 -0.477668
O16   O     O_2   0.840285 0.278282 0.418388 -0.535564

loop_
_geom_bond_atom_site_label_1
_geom_bond_atom_site_label_2
_ccdc_geom_bond_type
C2    C4    D    
C12   O11   A    
Cu1   N1    S    
H20   O2    S    
C17   H8    S    
C16   H4    S    
H22   O6    S    
C5    H18   S    
C18   N5    S    
C1    O10   A    
Cu1   O11   S    
C25   N4    S    
C18   H11   S    
C14   O6    S    
H14   N6    S    
H5    N4    S    
C19   H17   S    
C18   H10   S    
C16   N3    S    
C5    C10   A    
C22   N2    A    
Cu1   O1    S    
C23   C25   A    
C19   H16   S    
C24   N3    S    
C11   O16   D    
C17   N4    S    
C26   H12   S    
Cu2   O14   S    
Cu1   O12   S    
C20   C26   S    
C21   O13   A    
C2    H1    S    
C14   O5    D    
C15   C23   S    
C6    H19   S    
Cu2   O10   S    
H24   N3    S    
C19   H15   S    
C23   N1    A    
C5    C7    A    
C1    O1    A    
C19   N6    S    
C14   C22   S    
C4    C11   S    
C12   O9    A    
C22   C24   A    
Cu2   O13   S    
C9    C12   S    
C1    C10   S    
C16   H2    S    
C11   O2    S    
C15   O7    D    
C21   O15   A    
C6    C9    A    
Cu2   O9    S    
C13   O3    D    
C25   N2    A    
C20   O12   A    
C8    C10   A    
C17   H6    S    
C18   H13   S    
Cu1   Cu2   S    
C7    C9    A    
Cu2   N2    S    
C20   O14   A    
C6    C8    A    
H21   O4    S    
C17   H7    S    
C8    N6    S    
C2    C21   S    
Cu1   O15   S    
C15   O8    S    
C7    N5    S    
C3    C26   D    
H9    N5    S    
C13   O4    S    
C3    C4    S    
C24   N1    A    
C16   H3    S    
H23   O8    S    
C3    C13   S    
