data_mof_unit_17250.cif
_audit_creation_date              2012-10-26T21:21:07-0400
_audit_creation_method            fapswitch 2.2
_symmetry_space_group_name_H-M    P1
_symmetry_Int_Tables_number       1
_space_group_crystal_system       triclinic
_cell_length_a                    10.856728
_cell_length_b                    10.947482
_cell_length_c                    9.688916
_cell_angle_alpha                 89.807165
_cell_angle_beta                  88.285275
_cell_angle_gamma                 90.101299
_cell_volume                      1151.04061926

loop_
_atom_site_label
_atom_site_type_symbol
_atom_type_description
_atom_site_fract_x
_atom_site_fract_y
_atom_site_fract_z
_atom_type_partial_charge
C1    C     C_R   0.496695 0.265423 0.500123 0.587181
C2    C     C_2   0.484765 0.133798 0.501575 -0.057497
C3    C     C_2   0.470342 0.405011 0.923231 0.051413
C4    C     C_R   0.262367 0.491479 0.502996 0.568618
C5    C     C_2   0.452370 0.413059 0.077649 0.087948
C6    C     C_R   0.505577 0.734571 0.499505 0.556163
C7    C     C_R   0.738014 0.502154 0.497859 0.515049
C8    C     C_R   0.100264 0.508514 0.767868 0.071332
C9    C     C_R   0.045897 0.589309 0.866159 0.012869
C10   C     C_R   0.937539 0.650392 0.833387 -0.107450
C11   C     C_R   0.879905 0.625995 0.710017 -0.065925
C12   C     C_R   0.056834 0.510055 0.630371 0.026108
C13   C     C_R   0.935170 0.547298 0.611078 0.002078
C14   C     C_2   0.605260 0.564312 0.104123 0.386269
C15   C     C_2   0.171796 0.401518 0.817651 0.305052
C16   C     C_2   0.097623 0.612324 0.003650 0.252984
C17   C     C_2   0.884294 0.385268 0.265757 0.294030
C18   C     C_2   0.621632 0.909037 0.599821 0.138125
C19   C     C_R   0.128133 0.478178 0.510577 0.009148
C20   C     C_R   0.069264 0.446341 0.389627 -0.104211
C21   C     C_R   0.941418 0.447270 0.384428 -0.027489
C22   C     C_R   0.872910 0.502721 0.494677 -0.022572
C23   C     C_2   0.487924 0.933990 0.393828 0.396056
C24   C     C_2   0.532487 0.864695 0.496909 -0.047895
C25   C     C_2   0.502232 0.066404 0.387436 0.425569
Cu1   Cu    Cu3+1 0.500020 0.500020 0.638630 1.016734
Cu2   Cu    Cu3+1 0.499980 0.499980 0.361370 1.068057
F1    F     F_    0.420679 0.882642 0.292635 -0.575201
F2    F     F_    0.524260 0.118461 0.261311 -0.581229
H1    H     H_    0.123375 0.414110 0.301195 0.183757
H2    H     H_    0.038481 0.647168 0.086817 0.145372
H3    H     H_    0.795004 0.341482 0.277190 0.179985
H4    H     H_    0.627121 0.863417 0.699064 0.143576
H5    H     H_    0.460531 0.090693 0.599904 0.069863
H6    H     H_    0.454412 0.317553 0.874873 0.162770
H7    H     H_    0.491191 0.583488 0.891553 0.233901
H8    H     H_    0.395661 0.343421 0.128021 0.151575
H9    H     H_    0.894211 0.713032 0.906254 0.130559
H10   H     H_    0.793905 0.672078 0.691303 0.142079
H11   H     H_    0.616659 0.659055 0.133425 0.129089
H12   H     H_    0.203483 0.397299 0.922354 0.143153
N1    N     N_2   0.498640 0.498660 0.846910 -0.322213
N2    N     N_2   0.498610 0.498630 0.153040 -0.245320
O1    O     O_R   0.500020 0.321960 0.617040 -0.495466
O2    O     O_2   0.190149 0.312596 0.744051 -0.500023
O3    O     O_2   0.207171 0.598713 0.024011 -0.522169
O4    O     O_2   0.938677 0.378945 0.153809 -0.484098
O5    O     O_2   0.694508 0.991267 0.572151 -0.492296
O6    O     O_R   0.499980 0.321920 0.382900 -0.458016
O7    O     O_R   0.319670 0.500020 0.617100 -0.483804
O8    O     O_R   0.319630 0.499980 0.382950 -0.497374
O9    O     O_R   0.500020 0.678080 0.617100 -0.537650
O10   O     O_R   0.499980 0.678040 0.382960 -0.446145
O11   O     O_R   0.680370 0.500020 0.617050 -0.479271
O12   O     O_R   0.680330 0.499980 0.382900 -0.536323
O13   O     O_2   0.688588 0.513441 0.039086 -0.496826

loop_
_geom_bond_atom_site_label_1
_geom_bond_atom_site_label_2
_ccdc_geom_bond_type
C10   H9    S    
C14   O13   D    
C23   C24   D    
Cu2   O10   S    
C3    N1    D    
Cu1   O9    S    
C2    C25   D    
C7    C22   S    
C17   O4    D    
C9    C10   A    
C1    O1    A    
H7    N1    S    
C19   C20   A    
C3    H6    S    
C8    C12   A    
C6    C24   S    
C2    H5    S    
C23   C25   S    
C5    N2    D    
Cu1   O1    S    
C20   H1    S    
C23   F1    S    
C20   C21   A    
C16   H2    S    
C11   H10   S    
C11   C13   A    
Cu1   N1    S    
Cu1   Cu2   S    
C18   C24   S    
C7    O12   A    
Cu1   O11   S    
C12   C19   A    
C9    C16   S    
Cu2   O8    S    
C13   C22   A    
C8    C15   S    
C5    H8    S    
Cu1   O7    S    
C25   F2    S    
C18   H4    S    
Cu2   O12   S    
C10   C11   A    
C15   O2    D    
C4    O8    A    
C14   H11   S    
Cu2   N2    S    
C12   C13   A    
C15   H12   S    
C1    C2    S    
C16   O3    D    
C17   H3    S    
C8    C9    A    
C6    O10   A    
C7    O11   A    
C6    O9    A    
C21   C22   A    
C4    C19   S    
C1    O6    A    
C17   C21   S    
Cu2   O6    S    
C4    O7    A    
C14   N2    S    
C3    C5    S    
C18   O5    D    
