data_mof_unit_58983.cif
_audit_creation_date              2012-12-11T14:46:11-0500
_audit_creation_method            fapswitch 2.2
_symmetry_space_group_name_H-M    P1
_symmetry_Int_Tables_number       1
_space_group_crystal_system       triclinic
_cell_length_a                    10.93336
_cell_length_b                    10.918907
_cell_length_c                    18.740584
_cell_angle_alpha                 89.566177
_cell_angle_beta                  90.505054
_cell_angle_gamma                 119.769464
_cell_volume                      1941.91829337

loop_
_atom_site_label
_atom_site_type_symbol
_atom_type_description
_atom_site_fract_x
_atom_site_fract_y
_atom_site_fract_z
_atom_type_partial_charge
C1    C     C_R   0.864746 0.637415 0.603383 0.562722
C2    C     C_R   0.961561 0.169933 0.711694 0.009042
C3    C     C_R   0.961922 0.183618 0.786955 -0.003748
C4    C     C_R   0.271182 0.632993 0.603467 0.551088
C5    C     C_R   0.715961 0.113911 0.707117 0.012650
C6    C     C_R   0.724338 0.151102 0.779045 0.026212
C7    C     C_R   0.585737 0.060483 0.670533 -0.065428
C8    C     C_R   0.474917 0.070272 0.700461 -0.116161
C9    C     C_R   0.491516 0.130171 0.767429 -0.140347
C10   C     C_R   0.615453 0.172335 0.806049 -0.074369
C11   C     C_R   0.841256 0.148074 0.671221 -0.041314
C12   C     C_R   0.426715 0.629127 0.777593 -0.117446
C13   C     C_R   0.727531 0.534545 0.713502 -0.139316
C14   C     C_R   0.718532 0.545925 0.786834 -0.158544
C15   C     C_R   0.802336 0.676253 0.819455 0.028391
C16   C     C_R   0.860819 0.220847 0.601434 0.531859
C17   C     C_R   0.885126 0.797057 0.777893 -0.129230
C18   C     C_R   0.892447 0.786312 0.705296 -0.145156
C19   C     C_R   0.819727 0.654273 0.673194 0.023693
C20   C     C_R   0.389636 0.602663 0.293170 0.010789
C21   C     C_R   0.354847 0.581679 0.220914 0.202903
C22   C     C_R   0.352045 0.690783 0.180720 -0.017405
C23   C     C_R   0.405008 0.619881 0.705040 -0.130130
C24   C     C_R   0.347790 0.801617 0.217892 -0.065854
C25   C     C_R   0.345122 0.797826 0.292962 -0.159099
C26   C     C_R   0.354816 0.691420 0.330532 -0.013650
C27   C     C_R   0.706580 0.126733 0.292685 -0.126858
C28   C     C_R   0.905688 0.611526 0.390192 0.571634
C29   C     C_R   0.691817 0.090513 0.222120 -0.132168
C30   C     C_R   0.791788 0.068128 0.187487 -0.018871
C31   C     C_R   0.902966 0.068316 0.228761 0.025898
C32   C     C_R   0.917240 0.108525 0.300779 -0.043781
C33   C     C_R   0.825135 0.146206 0.330955 -0.002925
C34   C     C_R   0.323852 0.672670 0.675012 0.027914
C35   C     C_R   0.990962 0.706793 0.270282 -0.093445
C36   C     C_R   0.967697 0.716463 0.198303 -0.089747
C37   C     C_R   0.831665 0.639193 0.169410 0.014697
C38   C     C_R   0.725644 0.531588 0.210110 -0.136717
C39   C     C_R   0.751609 0.515514 0.281636 -0.117304
C40   C     C_R   0.279230 0.639340 0.398629 0.575599
C41   C     C_R   0.881475 0.611660 0.313298 0.021320
C42   C     C_R   0.807618 0.106453 0.895294 0.542827
C43   C     C_R   0.399400 0.702475 0.895434 0.545804
C44   C     C_R   0.794018 0.696381 0.895032 0.546945
C45   C     C_R   0.839267 0.163682 0.821391 -0.034628
C46   C     C_R   0.768633 0.041818 0.110234 0.552739
C47   C     C_R   0.396282 0.704693 0.105130 0.545610
C48   C     C_R   0.800236 0.690865 0.103176 0.535502
C49   C     C_R   0.858785 0.224097 0.397544 0.536725
C50   C     C_R   0.269860 0.740744 0.717535 -0.127229
C51   C     C_R   0.294323 0.752587 0.790387 -0.131516
C52   C     C_R   0.368753 0.692427 0.820485 0.042391
C53   C     C_2   0.454240 0.526448 0.329189 0.280383
C54   C     C_2   0.329742 0.911913 0.180289 0.213816
C55   C     C_2   0.010768 0.036197 0.200590 0.299589
C56   C     C_R   0.087540 0.224426 0.825716 -0.086918
C57   C     C_R   0.208347 0.243820 0.791449 -0.123536
C58   C     C_R   0.204738 0.217791 0.718714 -0.130029
C59   C     C_R   0.082268 0.179250 0.679259 -0.081569
Cr1   Cr    Cr6+3 0.791660 0.390250 0.499930 1.038987
Cr2   Cr    Cr6+3 0.098520 0.708290 0.500540 1.015776
Cr3   Cr    Cr6+3 0.109770 0.401430 0.499480 1.051486
Cr4   Cr    Cr6+3 0.874790 0.925890 0.000070 0.998766
Cr5   Cr    Cr6+3 0.574120 0.948670 0.999300 1.018769
Cr6   Cr    Cr6+3 0.551420 0.625320 0.000920 1.059812
H1    H     H_    0.203491 0.779186 0.695118 0.139669
H2    H     H_    0.326719 0.872398 0.322120 0.179585
H3    H     H_    0.629732 0.150363 0.315230 0.166584
H4    H     H_    0.604415 0.087710 0.193656 0.191383
H5    H     H_    0.004853 0.118406 0.332669 0.196411
H6    H     H_    0.092301 0.778559 0.293122 0.169004
H7    H     H_    0.052973 0.795262 0.166812 0.159330
H8    H     H_    0.621858 0.465692 0.188095 0.187643
H9    H     H_    0.667937 0.433425 0.312858 0.151846
H10   H     H_    0.488256 0.585650 0.800391 0.140626
H11   H     H_    0.445970 0.566192 0.673021 0.133533
H12   H     H_    0.377915 0.035458 0.670781 0.106322
H13   H     H_    0.304698 0.278531 0.821670 0.106942
H14   H     H_    0.297488 0.228690 0.692547 0.106508
H15   H     H_    0.094826 0.247197 0.882193 0.135398
H16   H     H_    0.082404 0.153948 0.623615 0.130955
H17   H     H_    0.625828 0.223985 0.856551 0.135674
H18   H     H_    0.456228 0.439431 0.303014 0.157191
H19   H     H_    0.125823 0.298884 0.101991 0.362248
H20   H     H_    0.299475 0.900569 0.124492 0.131154
H21   H     H_    0.031160 0.035249 0.144750 0.166049
H22   H     H_    0.572400 0.017847 0.617196 0.126660
H23   H     H_    0.407629 0.141998 0.790093 0.101829
H24   H     H_    0.669437 0.431159 0.689336 0.148196
H25   H     H_    0.649168 0.453779 0.818038 0.110492
H26   H     H_    0.945428 0.900794 0.801437 0.154548
H27   H     H_    0.962271 0.879820 0.675012 0.130526
H28   H     H_    0.252000 0.803987 0.823144 0.121082
O1    O     O_R   0.766500 0.250040 0.579790 -0.516664
O2    O     O_R   0.413330 0.603360 0.920440 -0.526386
O3    O     O_R   0.676110 0.626250 0.926750 -0.509834
O4    O     O_R   0.798570 0.516780 0.574780 -0.492688
O5    O     O_R   0.895350 0.809870 0.080950 -0.557013
O6    O     O_R   0.872490 0.049760 0.073800 -0.533783
O7    O     O_R   0.691680 0.088070 0.079070 -0.497553
O8    O     O_R   0.451720 0.825250 0.074050 -0.550330
O9    O     O_R   0.413580 0.606370 0.080960 -0.427318
O10   O     O_R   0.676340 0.629040 0.075550 -0.481407
O11   O     O_3   0.666780 0.833290 0.000090 -0.273217
O12   O     O_R   0.218690 0.701900 0.425960 -0.539457
O13   O     O_R   0.984000 0.732950 0.581090 -0.527064
O14   O     O_R   0.218600 0.700890 0.574760 -0.516004
O15   O     O_R   0.249390 0.515350 0.579940 -0.505824
O16   O     O_R   0.982790 0.280900 0.573700 -0.505870
O17   O     O_R   0.766600 0.251130 0.419260 -0.536633
O18   O     O_R   0.798660 0.517790 0.425980 -0.476424
O19   O     O_R   0.984100 0.734040 0.420570 -0.497315
O20   O     O_2   0.512351 0.564828 0.387213 -0.496860
O21   O     O_2   0.373976 0.374141 0.153376 -0.298134
O22   O     O_2   0.207910 0.308648 0.251864 -0.288774
O23   O     O_R   0.249490 0.516440 0.419420 -0.454914
O24   O     O_3   0.141461 0.380468 0.131365 -0.514717
O25   O     O_2   0.345012 0.016079 0.211872 -0.471687
O26   O     O_2   0.086169 0.015759 0.241650 -0.467441
O27   O     O_R   0.982880 0.281910 0.424890 -0.498124
O28   O     O_3   0.999980 0.499990 0.499980 -0.276802
O29   O     O_R   0.895110 0.806860 0.920430 -0.522997
O30   O     O_R   0.872260 0.046970 0.925000 -0.501150
O31   O     O_R   0.691430 0.085060 0.918550 -0.515714
O32   O     O_R   0.451490 0.822460 0.925250 -0.497456
S1    S     S_3+6 0.270428 0.405676 0.189225 0.000263

loop_
_geom_bond_atom_site_label_1
_geom_bond_atom_site_label_2
_ccdc_geom_bond_type
C46   O6    A    
C47   O8    A    
C6    C45   A    
C27   C29   A    
C35   C36   A    
C25   H2    S    
C23   H11   S    
C43   O32   A    
C42   O31   A    
C7    C8    A    
C39   C41   A    
C55   O26   D    
C28   O19   A    
C4    O15   A    
C12   C23   A    
C29   C30   A    
O22   S1    D    
C36   C37   A    
C15   C44   S    
C5    C11   A    
Cr4   O5    S    
C9    H23   S    
C5    C6    A    
O21   S1    D    
C43   C52   S    
C49   O27   A    
Cr3   O15   S    
C33   C49   S    
C28   C41   S    
C56   C57   A    
Cr2   O28   S    
C18   C19   A    
C3    C56   A    
C39   H9    S    
C14   H25   S    
Cr4   O6    S    
C27   H3    S    
Cr6   O3    S    
C7    H22   S    
H19   O24   S    
C17   H26   S    
C16   O16   A    
C43   O2    A    
Cr2   O12   S    
C9    C10   A    
Cr3   O27   S    
C1    O13   A    
C22   C47   S    
C35   H6    S    
C47   O9    A    
C21   C22   A    
Cr6   O9    S    
C35   C41   A    
C2    C11   A    
C12   C52   A    
C53   O20   D    
C42   O30   A    
C50   C51   A    
C29   H4    S    
C28   O18   A    
Cr5   O8    S    
C4    O14   A    
C4    C34   S    
C34   C50   A    
C1    C19   S    
C13   C19   A    
C51   C52   A    
C38   C39   A    
C24   C25   A    
Cr1   O4    S    
C1    O4    A    
C5    C7    A    
C2    C59   A    
C8    C9    A    
C32   H5    S    
C25   C26   A    
Cr5   O31   S    
C48   O10   A    
C3    C45   A    
C27   C33   A    
C42   C45   S    
Cr3   O23   S    
C37   C38   A    
C44   O3    A    
C11   C16   S    
C31   C32   A    
Cr6   O2    S    
C30   C31   A    
C23   C34   A    
C17   C18   A    
C37   C48   S    
Cr2   O13   S    
C50   H1    S    
C58   H14   S    
C51   H28   S    
C20   C53   S    
C54   O25   D    
C8    H12   S    
C22   C24   A    
Cr6   O10   S    
Cr4   O29   S    
O24   S1    S    
C15   C17   A    
C46   O7    A    
C13   H24   S    
C57   H13   S    
C30   C46   S    
Cr5   O11   S    
C59   H16   S    
Cr4   O11   S    
C6    C10   A    
C54   H20   S    
Cr4   O30   S    
C48   O5    A    
C16   O1    A    
C56   H15   S    
C53   H18   S    
C18   H27   S    
C32   C33   A    
C55   H21   S    
C2    C3    A    
C58   C59   A    
Cr1   O18   S    
C26   C40   S    
C57   C58   A    
C40   O23   A    
Cr3   O16   S    
C20   C26   A    
C44   O29   A    
C10   H17   S    
Cr1   O28   S    
Cr2   O14   S    
Cr1   O17   S    
Cr5   O7    S    
C20   C21   A    
Cr5   O32   S    
C12   H10   S    
C14   C15   A    
C49   O17   A    
Cr6   O11   S    
C31   C55   S    
C21   S1    S    
C13   C14   A    
Cr2   O19   S    
C24   C54   S    
Cr3   O28   S    
C36   H7    S    
C40   O12   A    
C38   H8    S    
Cr1   O1    S    
