data_mof_unit_60152.cif
_audit_creation_date              2012-12-10T20:16:01-0500
_audit_creation_method            fapswitch 2.2
_symmetry_space_group_name_H-M    P1
_symmetry_Int_Tables_number       1
_space_group_crystal_system       triclinic
_cell_length_a                    16.835664
_cell_length_b                    18.451698
_cell_length_c                    19.335214
_cell_angle_alpha                 89.988567
_cell_angle_beta                  90.144713
_cell_angle_gamma                 85.23563
_cell_volume                      5985.64469398

loop_
_atom_site_label
_atom_site_type_symbol
_atom_type_description
_atom_site_fract_x
_atom_site_fract_y
_atom_site_fract_z
_atom_type_partial_charge
C1    C     C_R   0.500096 0.499961 0.634355 0.868800
C2    C     C_R   0.499765 0.565791 0.817220 -0.171364
C3    C     C_R   0.500534 0.434112 0.254419 -0.183568
C4    C     C_R   0.499654 0.565855 0.745593 -0.183625
C5    C     C_R   0.499830 0.500051 0.290539 -0.034723
C6    C     C_R   0.500267 0.499931 0.709462 -0.034758
C7    C     C_R   0.447281 0.458867 0.035637 -0.179791
C8    C     C_R   0.553093 0.541035 0.964367 -0.179811
C9    C     C_R   0.447468 0.458799 0.964009 -0.179915
C10   C     C_R   0.552905 0.541104 0.035997 -0.179915
C11   C     C_R   0.500372 0.499884 0.928256 0.104348
C12   C     C_R   0.499917 0.500037 0.365645 0.868722
C13   C     C_R   0.499998 0.500021 0.071748 0.104343
C14   C     C_R   0.450997 0.277774 0.455917 0.025879
C15   C     C_R   0.549037 0.722224 0.544055 0.025961
C16   C     C_R   0.652994 0.490009 0.497530 0.874537
C17   C     C_R   0.346999 0.509992 0.502427 0.874634
C18   C     C_R   0.450019 0.201836 0.455101 -0.275185
C19   C     C_R   0.550013 0.798162 0.544872 -0.275155
C20   C     C_R   0.500000 0.158653 0.500037 0.119441
C21   C     C_R   0.499997 0.841348 0.499963 0.119436
C22   C     C_R   0.549991 0.194260 0.544958 -0.276080
C23   C     C_R   0.499051 0.565995 0.254392 -0.191062
C24   C     C_R   0.449974 0.805742 0.455070 -0.276063
C25   C     C_R   0.549011 0.270354 0.544115 0.019939
C26   C     C_R   0.450954 0.729648 0.455913 0.019886
C27   C     C_R   0.571087 0.032645 0.509948 -0.179048
C28   C     C_R   0.428910 0.967359 0.490054 -0.179044
C29   C     C_R   0.571088 0.956574 0.509914 -0.179604
C30   C     C_R   0.428910 0.043429 0.490085 -0.179615
C31   C     C_R   0.499999 0.922691 0.499968 0.121015
C32   C     C_R   0.499999 0.077312 0.500032 0.121010
C33   C     C_R   0.738091 0.484115 0.485377 -0.030864
C34   C     C_R   0.501082 0.433977 0.745597 -0.191038
C35   C     C_R   0.261839 0.515891 0.514271 -0.031159
C36   C     C_R   0.772564 0.542220 0.453690 -0.183976
C37   C     C_R   0.227146 0.457669 0.545531 -0.184090
C38   C     C_R   0.854050 0.538495 0.443493 -0.125212
C39   C     C_R   0.145599 0.461396 0.555358 -0.125144
C40   C     C_R   0.901200 0.477199 0.465911 0.182161
C41   C     C_R   0.098610 0.522816 0.533003 0.182199
C42   C     C_R   0.866950 0.417255 0.493750 -0.123119
C43   C     C_R   0.133046 0.582847 0.505567 -0.123062
C44   C     C_R   0.784988 0.420490 0.503108 -0.194432
C45   C     C_R   0.499082 0.565949 0.182763 -0.172767
C46   C     C_R   0.215065 0.579604 0.496572 -0.194525
C47   C     C_2   0.985923 0.481844 0.472441 0.042690
C48   C     C_2   0.013876 0.518348 0.526341 0.042798
C49   C     C_R   0.501168 0.433997 0.817225 -0.172818
C50   C     C_R   0.499850 0.500045 0.146857 0.116469
C51   C     C_R   0.500479 0.499886 0.853145 0.116473
C52   C     C_R   0.500540 0.434150 0.182794 -0.171390
H1    H     H_    0.736786 0.590993 0.437989 0.157199
H2    H     H_    0.588798 0.822813 0.581115 0.138364
H3    H     H_    0.588765 0.163726 0.581216 0.135184
H4    H     H_    0.411172 0.836277 0.418832 0.135177
H5    H     H_    0.587367 0.297426 0.578900 0.121217
H6    H     H_    0.412570 0.702578 0.421150 0.121217
H7    H     H_    0.627244 0.056455 0.516578 0.133621
H8    H     H_    0.372752 0.943551 0.483426 0.133607
H9    H     H_    0.627247 0.924248 0.516520 0.134770
H10   H     H_    0.372752 0.075758 0.483475 0.134755
H11   H     H_    0.241420 0.625320 0.473329 0.149065
H12   H     H_    0.262804 0.408811 0.561183 0.157238
H13   H     H_    0.758790 0.374858 0.526665 0.148948
H14   H     H_    0.903953 0.370093 0.511651 0.144914
H15   H     H_    0.096170 0.630116 0.487734 0.145001
H16   H     H_    0.118549 0.414823 0.576225 0.146412
H17   H     H_    0.880953 0.585009 0.422330 0.146482
H18   H     H_    0.498252 0.617533 0.281310 0.155044
H19   H     H_    0.501818 0.382449 0.718671 0.155045
H20   H     H_    0.497707 0.617268 0.155364 0.133230
H21   H     H_    0.502560 0.382670 0.844612 0.133222
H22   H     H_    0.501945 0.382825 0.155427 0.133908
H23   H     H_    0.405478 0.427623 0.062860 0.137944
H24   H     H_    0.498419 0.617105 0.844598 0.133897
H25   H     H_    0.501289 0.382574 0.281356 0.156713
H26   H     H_    0.498881 0.617399 0.718664 0.156699
H27   H     H_    0.594889 0.572286 0.937142 0.137916
H28   H     H_    0.405791 0.427517 0.936500 0.137095
H29   H     H_    0.594573 0.572394 0.063509 0.137091
H30   H     H_    0.412665 0.310643 0.421092 0.130951
H31   H     H_    0.587396 0.689353 0.578858 0.130983
H32   H     H_    0.411260 0.177181 0.418838 0.138369
I1    I     I_    0.940940 0.568785 0.605516 -0.398025
I2    I     I_    0.058852 0.431464 0.393240 -0.397988
N1    N     N_R   0.499990 0.310560 0.500020 -0.094180
N2    N     N_R   0.500010 0.689440 0.499980 -0.094198
O1    O     O_R   0.500000 0.439160 0.601820 -0.628544
O2    O     O_R   0.500000 0.560840 0.398180 -0.628577
O3    O     O_R   0.500030 0.560790 0.601820 -0.623546
O4    O     O_R   0.499970 0.439210 0.398180 -0.623574
O5    O     O_R   0.615780 0.432000 0.500010 -0.621601
O6    O     O_R   0.384220 0.568000 0.499990 -0.621631
O7    O     O_R   0.615820 0.553620 0.500010 -0.621456
O8    O     O_R   0.384180 0.446380 0.499990 -0.621489
Zn1   Zn    Zn3+2 0.499980 0.418790 0.500000 0.947362
Zn2   Zn    Zn3+2 0.500020 0.581210 0.500000 0.947347

loop_
_geom_bond_atom_site_label_1
_geom_bond_atom_site_label_2
_ccdc_geom_bond_type
C40   C47   S    
C38   C40   A    
C23   C45   A    
C27   C29   A    
C39   H16   S    
C14   C18   A    
O7    Zn2   S    
C39   C41   A    
C15   C19   A    
C21   C31   S    
C16   O5    A    
C25   H5    S    
C12   O2    A    
C35   C37   A    
C24   C26   A    
C14   N1    A    
C52   H22   S    
O6    Zn2   S    
C25   N1    A    
C33   C36   A    
C36   H1    S    
C49   C51   A    
C22   C25   A    
C8    H27   S    
C18   H32   S    
C40   C42   A    
C38   H17   S    
C1    O3    A    
C45   H20   S    
C41   C43   A    
C23   H18   S    
C44   H13   S    
C42   C44   A    
O4    Zn1   S    
C28   H8    S    
C29   H9    S    
C1    C6    S    
C47   I2    S    
C5    C12   S    
C4    C6    A    
C15   H31   S    
C6    C34   A    
O1    Zn1   S    
C9    H28   S    
C2    C4    A    
C43   H15   S    
C4    H26   S    
C16   C33   S    
C26   H6    S    
C50   C52   A    
C47   C48   D    
C5    C23   A    
O8    Zn1   S    
C17   O8    A    
C9    C11   A    
C19   H2    S    
C8    C10   A    
C20   C22   A    
C30   H10   S    
C49   H21   S    
C14   H30   S    
C3    H25   S    
O5    Zn1   S    
C37   H12   S    
C2    H24   S    
C20   C32   S    
C7    C9    A    
C34   C49   A    
C1    O1    A    
C19   C21   A    
C27   C32   A    
C33   C44   A    
C12   O4    A    
C28   C31   A    
C3    C5    A    
C10   C13   A    
C7    H23   S    
C3    C52   A    
C22   H3    S    
C24   H4    S    
C10   H29   S    
C46   H11   S    
C36   C38   A    
C29   C31   A    
C27   H7    S    
C30   C32   A    
C16   O7    A    
C45   C50   A    
C8    C11   A    
C28   C30   A    
C41   C48   S    
C18   C20   A    
O3    Zn2   S    
C43   C46   A    
C11   C51   S    
C2    C51   A    
C13   C50   S    
C26   N2    A    
C7    C13   A    
C37   C39   A    
C21   C24   A    
C42   H14   S    
C48   I1    S    
C17   O6    A    
C17   C35   S    
C35   C46   A    
C34   H19   S    
O2    Zn2   S    
N2    Zn2   S    
C15   N2    A    
N1    Zn1   S    
