data_mof_unit_44396.cif
_audit_creation_date              2012-12-10T17:48:50-0500
_audit_creation_method            fapswitch 2.2
_symmetry_space_group_name_H-M    P1
_symmetry_Int_Tables_number       1
_space_group_crystal_system       triclinic
_cell_length_a                    10.727134
_cell_length_b                    14.690702
_cell_length_c                    14.68906
_cell_angle_alpha                 65.064832
_cell_angle_beta                  103.210189
_cell_angle_gamma                 103.043332
_cell_volume                      2021.46160321

loop_
_atom_site_label
_atom_site_type_symbol
_atom_type_description
_atom_site_fract_x
_atom_site_fract_y
_atom_site_fract_z
_atom_type_partial_charge
C1    C     C_R   0.474508 0.119779 0.312291 0.812791
C2    C     C_3   0.877666 0.002171 0.496143 0.119246
C3    C     C_3   0.926313 0.908295 0.587155 -0.427577
C4    C     C_3   0.962291 0.097839 0.510301 -0.369076
C5    C     C_R   0.447177 0.187614 0.205243 -0.037053
C6    C     C_R   0.524269 0.812925 0.795745 -0.129603
C7    C     C_R   0.365595 0.216579 0.029034 -0.213575
C8    C     C_R   0.390078 0.149814 0.129962 -0.203928
C9    C     C_R   0.474032 0.292430 0.179292 -0.257272
C10   C     C_R   0.442761 0.361077 0.079314 0.082584
C11   C     C_R   0.393256 0.321780 0.003003 0.159777
C12   C     C_R   0.260036 0.000808 0.499380 0.761969
C13   C     C_R   0.463027 0.467620 0.052984 0.068452
C14   C     C_R   0.452227 0.534011 0.948896 0.093878
C15   C     C_R   0.402904 0.491985 0.874614 -0.224977
C16   C     C_R   0.372061 0.387818 0.901669 -0.239341
C17   C     C_R   0.489615 0.509676 0.127270 -0.251126
C18   C     C_R   0.513390 0.613845 0.100569 -0.191194
C19   C     C_R   0.515560 0.680229 0.999223 0.053078
C20   C     C_R   0.487581 0.640411 0.922669 0.026546
C21   C     C_R   0.546140 0.785991 0.973280 0.495226
C22   C     C_R   0.546639 0.851717 0.871144 -0.287403
C23   C     C_R   0.520606 0.880252 0.687901 0.826564
C24   C     C_R   0.498358 0.708191 0.822311 -0.267715
C25   C     C_R   0.717478 0.286254 0.666824 -0.322396
C26   C     C_R   0.683036 0.203917 0.638100 0.071312
C27   C     C_R   0.518990 0.285173 0.508926 0.001410
C28   C     C_R   0.549743 0.372013 0.533983 -0.023563
C29   C     C_R   0.650984 0.370214 0.615494 0.166888
C30   C     C_R   0.483763 0.459283 0.482385 0.077461
C31   C     C_R   0.519482 0.542453 0.514827 0.076518
C32   C     C_R   0.620425 0.535799 0.597168 -0.238757
C33   C     C_R   0.684844 0.451694 0.645850 -0.199332
C34   C     C_R   0.739767 0.001016 0.497981 0.773764
C35   C     C_R   0.383659 0.466360 0.399419 -0.248657
C36   C     C_R   0.319160 0.550439 0.350801 -0.197283
C37   C     C_R   0.351757 0.631271 0.382139 0.168797
C38   C     C_R   0.452690 0.629304 0.463880 -0.024204
C39   C     C_R   0.284250 0.714722 0.331650 -0.307411
C40   C     C_R   0.317206 0.796278 0.361586 0.073529
C41   C     C_R   0.482055 0.715419 0.490065 -0.002820
C42   C     C_3   0.042586 0.001409 0.395716 -0.413276
C43   C     C_3   0.896707 0.995566 0.396329 -0.117758
C44   C     C_3   0.069886 0.907332 0.586750 -0.374510
C45   C     C_3   0.104877 0.099035 0.508745 -0.382803
C46   C     C_3   0.122229 0.002160 0.497864 0.143764
Cu1   Cu    Cu3+1 0.465900 0.918260 0.475680 0.924816
Cu2   Cu    Cu3+1 0.534100 0.081740 0.524320 0.925569
H1    H     H_    0.056594 0.934733 0.383545 0.159635
H2    H     H_    0.953623 0.097164 0.584744 0.169775
H3    H     H_    0.127914 0.906049 0.660423 0.158291
H4    H     H_    0.915624 0.909986 0.660041 0.160500
H5    H     H_    0.333073 0.358781 0.842596 0.146485
H6    H     H_    0.488926 0.680875 0.763247 0.161807
H7    H     H_    0.564035 0.932921 0.851126 0.167750
H8    H     H_    0.532226 0.642095 0.160416 0.193962
H9    H     H_    0.325273 0.186004 0.971280 0.134751
H10   H     H_    0.366855 0.068886 0.148719 0.151283
H11   H     H_    0.523154 0.319252 0.237953 0.153059
H12   H     H_    0.079433 0.069762 0.332037 0.152524
H13   H     H_    0.381735 0.537810 0.794782 0.146966
H14   H     H_    0.487595 0.463813 0.206900 0.145418
H15   H     H_    0.761908 0.450255 0.708558 0.139361
H16   H     H_    0.558814 0.721594 0.549645 0.121669
H17   H     H_    0.265986 0.861122 0.322102 0.117679
H18   H     H_    0.242735 0.552205 0.287619 0.142122
H19   H     H_    0.795238 0.284077 0.729217 0.134982
H20   H     H_    0.733695 0.138800 0.678049 0.118736
H21   H     H_    0.441888 0.278872 0.449585 0.120518
H22   H     H_    0.652416 0.594610 0.626334 0.128908
H23   H     H_    0.352603 0.407982 0.369613 0.127431
H24   H     H_    0.206807 0.717092 0.269011 0.135243
H25   H     H_    0.851741 0.917470 0.401971 0.131570
H26   H     H_    0.079133 0.836909 0.579292 0.173793
H27   H     H_    0.867395 0.836875 0.583131 0.163428
H28   H     H_    0.163275 0.103266 0.580399 0.178940
H29   H     H_    0.139603 0.168164 0.444685 0.156135
H30   H     H_    0.928230 0.168739 0.451911 0.168419
N1    N     N_R   0.585360 0.204570 0.560800 -0.174929
N2    N     N_R   0.414550 0.795430 0.439160 -0.176864
O1    O     O_R   0.455060 0.022100 0.338110 -0.585745
O2    O     O_R   0.512640 0.160150 0.379180 -0.590963
O3    O     O_R   0.288900 0.930980 0.479450 -0.590396
O4    O     O_R   0.346480 0.069030 0.520520 -0.591491
O5    O     O_R   0.487360 0.839850 0.620820 -0.588202
O6    O     O_R   0.544940 0.977900 0.661890 -0.587773
O7    O     O_R   0.653520 0.930970 0.479480 -0.593495
O8    O     O_R   0.711100 0.069020 0.520550 -0.588834
O9    O     O_3   0.565059 0.825191 0.046969 -0.588835
C47   C     C_3   0.697438 0.862855 0.064730 -0.365311
H31   H     H_    0.726847 0.931402 0.998187 0.164361
H32   H     H_    0.759625 0.803715 0.084989 0.159293
H33   H     H_    0.713987 0.885560 0.130083 0.192640
C48   C     C_R   0.831398 0.069110 0.296893 0.103645
C49   C     C_R   0.726790 0.030597 0.238994 -0.149079
C50   C     C_R   0.671661 0.094652 0.143925 -0.134578
C51   C     C_R   0.717674 0.198414 0.106258 -0.097512
C52   C     C_R   0.820361 0.238028 0.162989 -0.144810
C53   C     C_R   0.878040 0.173897 0.257075 -0.146659
H34   H     H_    0.688766 0.950472 0.266581 0.130176
H35   H     H_    0.592745 0.063743 0.099557 0.146371
H36   H     H_    0.674026 0.248045 0.032967 0.136298
H37   H     H_    0.856989 0.318323 0.133164 0.129656
H38   H     H_    0.961747 0.206201 0.296251 0.120562

loop_
_geom_bond_atom_site_label_1
_geom_bond_atom_site_label_2
_ccdc_geom_bond_type
C43   H25   S    
C19   C20   A    
C25   H19   S    
C41   N2    A    
C51   C52   A    
C7    C8    A    
C21   O9    S    
C45   C46   S    
C4    H30   S    
C30   C35   A    
C45   H28   S    
C1    C5    S    
Cu1   O5    S    
Cu2   N1    S    
C36   C37   A    
C19   C21   A    
C27   N1    A    
C30   C31   A    
C36   H18   S    
C24   H6    S    
C15   C16   A    
C6    C22   A    
C29   C33   A    
C43   C48   S    
C12   O4    A    
C18   C19   A    
C42   C46   S    
C20   C24   A    
C16   H5    S    
C8    H10   S    
C49   C50   A    
C23   O6    A    
C39   H24   S    
Cu2   O8    S    
Cu1   O3    S    
C3    H27   S    
C9    C10   A    
C51   H36   S    
C27   H21   S    
C18   H8    S    
C2    C34   S    
C53   H38   S    
C35   H23   S    
C21   C22   A    
Cu1   N2    S    
C44   C46   S    
C7    C11   A    
C4    C45   S    
C25   C29   A    
C3    C44   S    
C14   C20   A    
C50   H35   S    
C38   C41   A    
C12   C46   S    
C42   H12   S    
C39   C40   A    
C49   H34   S    
C32   H22   S    
C1    O2    A    
Cu2   O4    S    
C12   O3    A    
C4    H2    S    
C9    H11   S    
C35   C36   A    
Cu1   O7    S    
C2    C4    S    
C5    C9    A    
C37   C38   A    
C17   H14   S    
C11   C16   A    
C47   H32   S    
Cu1   Cu2   S    
C2    C43   S    
C33   H15   S    
C6    C24   A    
C50   C51   A    
C40   N2    A    
C17   C18   A    
C15   H13   S    
C34   O8    A    
C44   H26   S    
C44   H3    S    
C40   H17   S    
Cu2   O6    S    
C42   C43   S    
C47   H33   S    
C28   C29   A    
C31   C32   A    
C10   C13   A    
C5    C8    A    
C3    H4    S    
C22   H7    S    
C26   N1    A    
C31   C38   A    
C13   C17   A    
C26   H20   S    
C32   C33   A    
C28   C30   A    
C2    C3    S    
C25   C26   A    
C37   C39   A    
C47   H31   S    
C48   C53   A    
C6    C23   S    
Cu2   O2    S    
C34   O7    A    
Cu1   O1    S    
C48   C49   A    
C10   C11   A    
C42   H1    S    
C52   C53   A    
C23   O5    A    
C27   C28   A    
C14   C15   A    
C45   H29   S    
C41   H16   S    
O9    C47   S    
C13   C14   A    
C1    O1    A    
C7    H9    S    
C52   H37   S    
