data_mof_unit_25220.cif
_audit_creation_date              2012-12-11T14:52:24-0500
_audit_creation_method            fapswitch 2.2
_symmetry_space_group_name_H-M    P1
_symmetry_Int_Tables_number       1
_space_group_crystal_system       triclinic
_cell_length_a                    8.26276
_cell_length_b                    15.138259
_cell_length_c                    27.15172
_cell_angle_alpha                 97.392527
_cell_angle_beta                  92.453459
_cell_angle_gamma                 80.700764
_cell_volume                      3322.90660989

loop_
_atom_site_label
_atom_site_type_symbol
_atom_type_description
_atom_site_fract_x
_atom_site_fract_y
_atom_site_fract_z
_atom_type_partial_charge
Ba1   Ba    Ba6+2 0.860900 0.457020 0.523210 1.661100
Ba2   Ba    Ba6+2 0.328940 0.542910 0.476780 1.699081
C1    C     C_3   0.725344 0.137300 0.654002 -0.340499
C2    C     C_R   0.878954 0.579189 0.175357 0.579783
C3    C     C_2   0.748502 0.543807 0.269560 -0.076106
C4    C     C_3   0.219781 0.252050 0.654965 0.291859
C5    C     C_3   0.724206 0.582249 0.323026 -0.128522
C6    C     C_1   0.985085 0.486095 0.342355 -0.021360
C7    C     C_2   0.029014 0.482511 0.294827 -0.089967
C8    C     C_2   0.903803 0.510496 0.254505 0.201332
C9    C     C_R   0.023890 0.506894 0.100381 -0.082574
C10   C     C_R   0.103014 0.439327 0.128549 -0.032703
C11   C     C_R   0.224043 0.372217 0.105940 -0.058208
C12   C     C_3   0.709810 0.228138 0.634546 0.322632
C13   C     C_R   0.906623 0.576709 0.123649 -0.052841
C14   C     C_2   0.841618 0.532994 0.357716 -0.291315
C15   C     C_2   0.352821 0.478818 0.640343 -0.283330
C16   C     C_3   0.204676 0.230803 0.707648 -0.351380
C17   C     C_R   0.222371 0.432952 0.975080 0.018439
C18   C     C_R   0.018554 0.570156 0.969497 0.024051
C19   C     C_R   0.139480 0.500700 0.946934 0.047984
C20   C     C_R   0.340276 0.364787 0.950421 -0.099910
C21   C     C_R   0.375080 0.363408 0.900445 -0.059201
C22   C     C_R   0.295774 0.430277 0.872449 -0.031301
C23   C     C_3   0.475192 0.682759 0.629314 0.304401
C24   C     C_R   0.178541 0.499321 0.895697 -0.077940
C25   C     C_R   0.101290 0.567405 0.867801 -0.032704
C26   C     C_R   0.143720 0.566546 0.817636 0.591042
C27   C     C_R   0.332087 0.429325 0.821691 0.580356
C28   C     C_3   0.224987 0.267068 0.414505 0.310473
C29   C     C_2   0.457709 0.484011 0.728110 -0.073221
C30   C     C_3   0.499759 0.488021 0.674466 -0.053025
C31   C     C_1   0.206598 0.516525 0.656163 0.042893
C32   C     C_2   0.166906 0.514879 0.703040 -0.103495
C33   C     C_2   0.298764 0.497491 0.742442 0.195242
C34   C     C_3   0.449251 0.717027 0.684247 -0.342224
C35   C     C_R   0.184952 0.435385 0.026491 0.018754
C36   C     C_R   0.062504 0.504475 0.048947 0.049421
C37   C     C_R   0.977607 0.570774 0.020379 0.023464
C38   C     C_R   0.265448 0.370738 0.056550 -0.100391
C39   C     C_R   0.819173 0.640906 0.094076 -0.027705
C40   C     C_3   0.252187 0.165376 0.399990 -0.380415
C41   C     C_R   0.944627 0.637865 0.940256 -0.098178
C42   C     C_R   0.984901 0.636256 0.890846 -0.062042
C43   C     C_R   0.852037 0.635452 0.043648 -0.133117
C44   C     C_R   0.766797 0.770847 0.489540 -0.274798
C45   C     C_3   0.962420 0.753399 0.347959 0.363237
C46   C     C_R   0.850686 0.829235 0.469401 0.002850
C47   C     C_R   0.785311 0.921334 0.472640 -0.136135
C48   C     C_R   0.632787 0.955353 0.496186 0.019575
C49   C     C_R   0.548781 0.891712 0.514260 -0.055237
C50   C     C_R   0.616108 0.800703 0.510789 0.054792
C51   C     C_R   0.415410 0.088184 0.528871 -0.120921
C52   C     C_3   0.978359 0.736169 0.587005 0.277959
C53   C     C_R   0.351572 0.179855 0.534947 0.005555
C54   C     C_R   0.579570 0.211901 0.491727 0.056134
C55   C     C_R   0.643138 0.119663 0.484291 -0.118567
C56   C     C_3   0.946048 0.786497 0.297253 -0.340902
C57   C     C_R   0.563959 0.055213 0.503367 0.009320
C58   C     C_R   0.436511 0.241584 0.518004 -0.284073
C59   C     C_3   0.990237 0.836353 0.599173 -0.240819
C60   C     C_3   0.701089 0.344325 0.374951 0.304474
C61   C     C_3   0.704919 0.321118 0.318720 -0.375331
C62   C     C_2   0.880944 0.880141 0.641049 0.519460
C63   C     C_2   0.683615 0.712811 0.112671 0.608795
C64   C     C_2   0.819297 0.573987 0.408636 0.644810
C65   C     C_3   0.483512 0.773195 0.336760 0.316810
C66   C     C_3   0.383802 0.860283 0.322661 -0.327135
C67   C     C_R   0.059241 0.439346 0.178639 0.598172
H1    H     H_    0.828368 0.232679 0.618241 0.114786
H2    H     H_    0.604197 0.403466 0.384208 0.096696
H3    H     H_    0.765722 0.082288 0.623580 0.102838
H4    H     H_    0.804594 0.263831 0.308426 0.134737
H5    H     H_    0.727325 0.379810 0.301041 0.070976
H6    H     H_    0.585338 0.302278 0.304485 0.141009
H7    H     H_    0.611674 0.231273 0.605347 -0.019123
H8    H     H_    0.604718 0.127694 0.667447 0.129682
H9    H     H_    0.357634 0.664928 0.612779 0.018302
H10   H     H_    0.572543 0.622376 0.625710 0.019259
H11   H     H_    0.360460 0.781021 0.688136 0.135941
H12   H     H_    0.336877 0.146924 0.368282 0.129652
H13   H     H_    0.398612 0.667349 0.703380 0.063049
H14   H     H_    0.568309 0.729284 0.702518 0.131583
H15   H     H_    0.818061 0.133864 0.684969 0.131624
H16   H     H_    0.274381 0.274280 0.733612 0.139552
H17   H     H_    0.025669 0.682098 0.343525 0.049795
H18   H     H_    0.836844 0.757561 0.362309 -0.114370
H19   H     H_    0.068767 0.778973 0.280454 0.142576
H20   H     H_    0.867517 0.746157 0.272692 0.145243
H21   H     H_    0.888479 0.858627 0.300766 0.117860
H22   H     H_    0.593565 0.757443 0.312972 0.001150
H23   H     H_    0.306467 0.130339 0.431480 0.060429
H24   H     H_    0.521191 0.784501 0.376869 0.000095
H25   H     H_    0.460620 0.914901 0.328391 0.064760
H26   H     H_    0.273917 0.881011 0.346317 0.158826
H27   H     H_    0.166235 0.324384 0.653817 0.059256
H28   H     H_    0.343920 0.850871 0.282711 0.130128
H29   H     H_    0.156723 0.462465 0.285296 0.149867
H30   H     H_    0.289245 0.320201 0.126699 0.125187
H31   H     H_    0.556918 0.476353 0.755436 0.110462
H32   H     H_    0.466497 0.309361 0.883812 0.123497
H33   H     H_    0.408407 0.310532 0.968516 0.070960
H34   H     H_    0.133171 0.142236 0.389257 0.127599
H35   H     H_    0.361868 0.317235 0.043141 0.071788
H36   H     H_    0.649286 0.559280 0.243045 0.116564
H37   H     H_    0.856587 0.695026 0.954394 0.075044
H38   H     H_    0.352370 0.240995 0.645668 -0.007153
H39   H     H_    0.924061 0.690172 0.870664 0.123255
H40   H     H_    0.039109 0.526858 0.713167 0.139402
H41   H     H_    0.774947 0.683896 0.023413 0.055418
H42   H     H_    0.367638 0.443973 0.602823 0.070119
H43   H     H_    0.343601 0.045054 0.543689 0.075455
H44   H     H_    0.857194 0.964245 0.457496 0.072970
H45   H     H_    0.848960 0.727194 0.580352 0.018548
H46   H     H_    0.751861 0.100362 0.462494 0.075596
H47   H     H_    0.433488 0.910202 0.532629 0.070896
H48   H     H_    0.385981 0.312536 0.522625 0.063200
H49   H     H_    0.073221 0.244231 0.718297 0.132418
H50   H     H_    0.823929 0.702108 0.491800 0.061698
H51   H     H_    0.255003 0.158551 0.710364 0.126974
H52   H     H_    0.344520 0.289405 0.423908 0.001246
H53   H     H_    0.143987 0.283475 0.447121 0.060067
H54   H     H_    0.933687 0.894546 0.678255 0.008494
H55   H     H_    0.558955 0.709557 0.098884 -0.052824
H56   H     H_    0.050267 0.710250 0.553179 0.050824
H57   H     H_    0.812663 0.646361 0.415690 -0.148270
H58   H     H_    0.955571 0.871666 0.566122 0.046376
H59   H     H_    0.119429 0.843965 0.609478 0.062649
H60   H     H_    0.821692 0.361128 0.388590 0.035303
N1    N     N_R   0.947765 0.508898 0.202045 -0.423125
N2    N     N_R   0.257369 0.497480 0.794604 -0.423250
O1    O     O_2   0.905540 0.548000 0.618290 -0.466738
O2    O     O_2   0.192484 0.819836 0.467043 -0.478446
O3    O     O_3   0.055221 0.807887 0.379582 -0.586265
O4    O     O_3   0.137550 0.547930 0.558110 -0.490168
O5    O     O_3   0.574690 0.391440 0.474610 -0.465762
O6    O     O_2   0.341330 0.720570 0.525000 -0.472676
O7    O     O_3   0.524524 0.751342 0.606364 -0.604381
O8    O     O_2   0.414443 0.528744 0.324456 -0.488666
O9    O     O_3   0.388762 0.702981 0.327898 -0.569905
O10   O     O_2   0.119797 0.376640 0.201099 -0.596638
O11   O     O_2   0.429879 0.367205 0.801662 -0.598835
O12   O     O_3   0.668834 0.269199 0.395710 -0.642475
O13   O     O_2   0.796223 0.645553 0.196993 -0.589780
O14   O     O_2   0.081173 0.628499 0.794821 -0.600786
O15   O     O_3   0.688580 0.383890 0.587540 -0.488430
O16   O     O_2   0.843680 0.426178 0.672507 -0.494627
O17   O     O_3   0.039717 0.691904 0.627390 -0.643848
O18   O     O_3   0.669665 0.297910 0.673582 -0.593209
O19   O     O_2   0.848360 0.279400 0.474970 -0.457726
O20   O     O_3   0.104690 0.337720 0.562900 -0.486150
O21   O     O_2   0.013587 0.178532 0.531683 -0.488467
O22   O     O_2   0.732219 0.897603 0.633899 -0.577409
O23   O     O_3   0.134149 0.194982 0.622337 -0.604439
O24   O     O_2   0.711751 0.778479 0.141086 -0.526730
O25   O     O_2   0.769023 0.532247 0.438775 -0.531975
O26   O     O_2   0.284150 0.451970 0.381680 -0.459347
O27   O     O_3   0.052160 0.451990 0.441880 -0.469750
O28   O     O_3   0.501140 0.616030 0.412450 -0.435720
O29   O     O_3   0.153058 0.307850 0.373995 -0.625730
O30   O     O_3   0.615020 0.608480 0.525380 -0.440011
O31   O     O_3   0.085020 0.662210 0.437090 -0.495748
P1    P     P_3+3 0.070480 0.574800 0.610950 0.998841
P2    P     P_3+3 0.668430 0.292880 0.460530 1.004696
P3    P     P_3+3 0.150363 0.221099 0.562072 0.937554
P4    P     P_3+3 0.119230 0.425130 0.389040 1.004405
P5    P     P_3+3 0.046988 0.780528 0.439810 0.975259
P6    P     P_3+3 0.676775 0.401615 0.652172 0.972961
P7    P     P_3+3 0.525217 0.721329 0.542050 0.988231
P8    P     P_3+3 0.507199 0.605847 0.346566 0.978670

loop_
_geom_bond_atom_site_label_1
_geom_bond_atom_site_label_2
_ccdc_geom_bond_type
C47   H44   S    
C19   C24   A    
C7    H29   S    
O28   P8    S    
C33   N2    S    
C9    C36   A    
C60   O12   S    
C10   C67   A    
Ba1   O1    S    
C40   H34   S    
Ba2   O31   S    
O21   P3    D    
C51   C57   A    
C55   H46   S    
C3    H36   S    
C28   O29   S    
O18   P6    S    
C26   O14   D    
C60   C61   S    
O3    P5    S    
C48   C57   S    
Ba1   O27   S    
C17   C19   A    
C22   C24   A    
C32   C33   S    
C35   C38   A    
O2    P5    D    
C36   C37   A    
C55   C57   A    
C34   H14   S    
C67   O10   D    
C44   C50   A    
C54   C55   A    
O8    P8    D    
Ba1   Ba2   S    
C27   N2    Am   
C63   H55   S    
C66   H28   S    
C11   C38   A    
C17   C35   A    
C22   C27   A    
C9    C13   A    
C25   C42   A    
C28   H53   S    
Ba1   P2    S    
C34   H13   S    
C67   N1    Am   
C44   H50   S    
C4    H38   S    
O23   P3    S    
Ba1   O20   S    
O29   P4    S    
Ba1   O5    S    
C7    C8    S    
Ba2   P4    S    
O6    P7    D    
C37   C43   A    
O30   P7    S    
C51   C53   A    
Ba1   O30   S    
C6    C14   D    
C53   C58   A    
O7    P7    S    
C12   H1    S    
C60   H60   S    
Ba1   O15   S    
C40   H12   S    
C15   C31   D    
C15   H42   S    
Ba2   O30   S    
C48   C49   A    
O26   P4    D    
C42   H39   S    
C4    C16   S    
C52   H56   S    
C44   C46   A    
C66   H26   S    
C49   C50   A    
C16   H16   S    
C45   H17   S    
Ba1   O19   S    
C17   C20   A    
C13   C39   A    
C34   H11   S    
C3    C5    S    
C18   C37   A    
C43   H41   S    
C6    C7    D    
C39   C63   S    
C61   H4    S    
O20   P3    S    
C62   O22   D    
C66   H25   S    
C23   H9    S    
C41   H37   S    
C45   H18   S    
C11   H30   S    
C59   C62   S    
C65   C66   S    
C8    N1    S    
C35   C36   A    
C38   H35   S    
C29   C30   S    
C28   H52   S    
Ba2   O27   S    
C65   H22   S    
C31   C32   D    
C24   C25   A    
C58   H48   S    
C59   H58   S    
C29   H31   S    
C18   C19   A    
C65   O9    S    
C56   H21   S    
C4    O23   S    
C1    C12   S    
C6    P4    S    
C51   H43   S    
C5    C14   S    
C52   C59   S    
C4    H27   S    
C30   P6    S    
C45   O3    S    
C29   C33   D    
C14   C64   S    
Ba2   O28   S    
C1    H8    S    
C16   H51   S    
O12   P2    S    
C25   C26   A    
C18   C41   A    
O27   P4    S    
C52   O17   S    
O5    P2    S    
C15   C30   S    
O15   P6    S    
C46   C47   A    
O9    P8    S    
C21   C22   A    
C31   P1    S    
C23   H10   S    
O17   P1    S    
O4    P1    S    
Ba2   O4    S    
C56   H19   S    
C50   P7    S    
C2    O13   D    
C2    N1    Am   
C9    C10   A    
C16   H49   S    
C61   H5    S    
Ba2   O6    S    
C62   H54   S    
O19   P2    D    
C54   P2    S    
C49   H47   S    
C20   H33   S    
C26   N2    Am   
C2    C13   A    
C23   O7    S    
O1    P1    D    
C3    C8    D    
C63   O24   D    
C39   C43   A    
C45   C56   S    
C64   O25   D    
C21   H32   S    
C46   P5    S    
C61   H6    S    
C41   C42   A    
Ba2   O26   S    
C27   O11   D    
C52   H45   S    
C12   O18   S    
C60   H2    S    
C1    H3    S    
C59   H59   S    
C40   H23   S    
C56   H20   S    
Ba2   O5    S    
O16   P6    D    
C23   C34   S    
O31   P5    S    
C64   H57   S    
C54   C58   A    
C10   C11   A    
Ba1   P1    S    
C47   C48   A    
C5    P8    S    
C1    H15   S    
C65   H24   S    
C32   H40   S    
C53   P3    S    
C20   C21   A    
C28   C40   S    
Ba1   O4    S    
C12   H7    S    
