data_mof_unit_43004.cif
_audit_creation_date              2012-12-10T18:57:43-0500
_audit_creation_method            fapswitch 2.2
_symmetry_space_group_name_H-M    P1
_symmetry_Int_Tables_number       1
_space_group_crystal_system       triclinic
_cell_length_a                    10.921385
_cell_length_b                    10.835273
_cell_length_c                    9.587148
_cell_angle_alpha                 90.726242
_cell_angle_beta                  89.191043
_cell_angle_gamma                 91.092932
_cell_volume                      1134.09976512

loop_
_atom_site_label
_atom_site_type_symbol
_atom_type_description
_atom_site_fract_x
_atom_site_fract_y
_atom_site_fract_z
_atom_type_partial_charge
C1    C     C_R   0.493407 0.262494 0.498968 0.832408
C2    C     C_R   0.472490 0.129477 0.497314 -0.126569
C3    C     C_R   0.436796 0.062639 0.376106 0.089088
C4    C     C_R   0.433987 0.931701 0.378462 0.090208
C5    C     C_R   0.469218 0.870047 0.501083 -0.166664
C6    C     C_R   0.475268 0.939316 0.624650 0.090989
C7    C     C_3   0.559111 0.938213 0.746847 -0.028721
C8    C     C_3   0.565519 0.078686 0.740056 -0.483452
C9    C     C_R   0.603321 0.531323 0.072169 0.193091
C10   C     C_R   0.405324 0.450102 0.077026 -0.027274
C11   C     C_R   0.404741 0.448465 0.929418 0.218305
C12   C     C_R   0.265522 0.504530 0.500702 0.783436
C13   C     C_R   0.604797 0.528330 0.925320 0.179473
C14   C     C_3   0.682208 0.643961 0.920864 -0.087044
C15   C     C_3   0.676054 0.648594 0.079737 -0.444174
C16   C     C_R   0.492359 0.737495 0.500630 0.831148
C17   C     C_R   0.734266 0.495988 0.499328 0.824094
C18   C     C_2   0.934821 0.498285 0.386114 -0.135727
C19   C     C_2   0.865350 0.482103 0.500309 -0.295337
C20   C     C_2   0.067776 0.486277 0.391715 -0.149196
C21   C     C_2   0.134265 0.524308 0.501981 0.015863
C22   C     C_R   0.479386 0.065809 0.621540 0.020538
Cu1   Cu    Cu3+1 0.499990 0.499980 0.640670 0.933163
Cu2   Cu    Cu3+1 0.500010 0.500020 0.359330 0.961596
H1    H     H_    0.657154 0.114969 0.706854 0.180358
H2    H     H_    0.328240 0.410817 0.134239 0.155399
H3    H     H_    0.621660 0.726704 0.121640 0.191906
H4    H     H_    0.112068 0.444475 0.301058 0.132262
N1    N     N_R   0.500780 0.500930 0.147930 -0.202799
N2    N     N_R   0.500780 0.500890 0.852020 -0.203867
O1    O     O_R   0.500000 0.319640 0.618810 -0.600137
O2    O     O_R   0.500010 0.319680 0.381230 -0.547071
O3    O     O_R   0.321940 0.499980 0.618760 -0.600431
O4    O     O_R   0.321950 0.500020 0.381180 -0.591173
O5    O     O_R   0.499990 0.680320 0.618770 -0.574663
O6    O     O_R   0.500000 0.680360 0.381190 -0.543516
O7    O     O_R   0.678050 0.499980 0.618820 -0.592506
O8    O     O_R   0.678060 0.500020 0.381240 -0.578744
H5    H     H_    0.893999 0.514820 0.285648 0.152712
N3    N     N_3   0.302336 0.387074 0.866718 -0.622710
H6    H     H_    0.330431 0.330552 0.784109 0.266011
H7    H     H_    0.239147 0.452458 0.837627 0.232848
N4    N     N_3   0.807571 0.624359 0.869642 -0.578291
H8    H     H_    0.811720 0.645376 0.763642 0.245646
H9    H     H_    0.831621 0.531880 0.879825 0.225297
H10   H     H_    0.637411 0.720719 0.869270 0.202033
H11   H     H_    0.765663 0.636431 0.130735 0.198759
H12   H     H_    0.905021 0.455425 0.598326 0.169624
N5    N     N_3   0.081088 0.595824 0.613887 -0.586921
H13   H     H_    0.092772 0.548922 0.707060 0.211257
H14   H     H_    0.129193 0.679991 0.620887 0.223850
N6    N     N_3   0.406738 0.126715 0.251340 -0.571872
H15   H     H_    0.317200 0.102583 0.223494 0.208096
H16   H     H_    0.466554 0.099714 0.171045 0.211382
N7    N     N_3   0.397228 0.862088 0.257305 -0.556468
H17   H     H_    0.308215 0.886215 0.231684 0.214394
H18   H     H_    0.456151 0.884559 0.174548 0.208330
N8    N     N_3   0.495925 0.894212 0.872997 -0.586290
H19   H     H_    0.551560 0.917495 0.957516 0.203248
H20   H     H_    0.413140 0.940004 0.888234 0.233329
H21   H     H_    0.647666 0.892377 0.724793 0.149004
H22   H     H_    0.523726 0.127395 0.831243 0.202474

loop_
_geom_bond_atom_site_label_1
_geom_bond_atom_site_label_2
_ccdc_geom_bond_type
C2    C22   A    
C8    C22   S    
N4    H8    S    
Cu2   O2    S    
C6    C7    S    
C15   H11   S    
C20   H4    S    
C7    N8    S    
Cu2   O8    S    
C14   C15   S    
C9    N1    A    
N7    H17   S    
C14   N4    S    
C10   H2    S    
N3    H7    S    
C2    C3    A    
C9    C15   S    
C7    C8    S    
C4    N7    S    
C17   O7    A    
C13   C14   S    
C16   O6    A    
C8    H1    S    
N4    H9    S    
C10   N1    A    
Cu2   O6    S    
C12   O3    A    
C5    C6    A    
C15   H3    S    
C21   N5    S    
N3    H6    S    
C17   C19   S    
N6    H16   S    
C18   C19   D    
Cu1   O5    S    
C17   O8    A    
N7    H18   S    
C16   O5    A    
C11   N3    S    
C3    N6    S    
C10   C11   A    
Cu1   Cu2   S    
N8    H20   S    
C3    C4    A    
C6    C22   A    
Cu1   N2    S    
C13   N2    A    
C1    O1    A    
C20   C21   D    
C18   C20   S    
C14   H10   S    
C1    C2    S    
C8    H22   S    
N5    H13   S    
C18   H5    S    
C9    C13   A    
Cu2   N1    S    
C7    H21   S    
C5    C16   S    
C19   H12   S    
Cu1   O3    S    
N8    H19   S    
Cu1   O7    S    
C12   O4    A    
C12   C21   S    
C1    O2    A    
Cu2   O4    S    
C11   N2    A    
N6    H15   S    
C4    C5    A    
N5    H14   S    
Cu1   O1    S    
