data_mof_unit_52403.cif
_audit_creation_date              2012-12-11T15:55:47-0500
_audit_creation_method            fapswitch 2.2
_symmetry_space_group_name_H-M    P1
_symmetry_Int_Tables_number       1
_space_group_crystal_system       triclinic
_cell_length_a                    6.931325
_cell_length_b                    14.536293
_cell_length_c                    16.085848
_cell_angle_alpha                 89.958848
_cell_angle_beta                  90.064168
_cell_angle_gamma                 89.955233
_cell_volume                      1620.74008849

loop_
_atom_site_label
_atom_site_type_symbol
_atom_type_description
_atom_site_fract_x
_atom_site_fract_y
_atom_site_fract_z
_atom_type_partial_charge
O1    O     O_R   0.505680 0.583900 0.413320 -0.528810
O2    O     O_R   0.176010 0.594950 0.586080 -0.531246
O3    O     O_R   0.005680 0.416100 0.586680 -0.545136
C1    C     C_R   0.345104 0.617443 0.614834 0.713099
O4    O     O_R   0.175960 0.594930 0.413930 -0.497922
O5    O     O_R   0.005640 0.416080 0.413300 -0.548442
C2    C     C_R   0.344718 0.619496 0.386830 0.775066
O6    O     O_R   0.505720 0.583920 0.586700 -0.546630
O7    O     O_3   0.339190 0.441320 0.500000 -0.390680
V1    V     V_3+5 0.064350 0.510890 0.500000 1.537393
O8    O     O_R   0.675920 0.405050 0.413920 -0.550326
C3    C     C_R   0.844971 0.382722 0.385028 0.672395
O9    O     O_R   0.675960 0.405070 0.586070 -0.551365
C4    C     C_R   0.844970 0.383224 0.615097 0.671730
V2    V     V_3+5 0.564340 0.489110 0.500000 1.449221
O10   O     O_3   0.839370 0.558680 0.500000 -0.328335
C5    C     C_R   0.030676 0.276866 0.708652 0.021475
C6    C     C_R   0.855943 0.318791 0.686472 -0.064816
C7    C     C_R   0.695344 0.302122 0.738229 -0.187171
H1    H     H_    0.559899 0.337101 0.726967 0.120252
C8    C     C_R   0.706898 0.238323 0.804270 -0.193213
H2    H     H_    0.579724 0.225909 0.841619 0.122379
C9    C     C_R   0.879234 0.189447 0.820210 -0.065819
C10   C     C_R   0.041876 0.213669 0.773403 0.032502
C11   C     C_3   0.182941 0.154601 0.727641 0.327700
C12   C     C_3   0.169302 0.223697 0.656380 -0.444879
H3    H     H_    0.325269 0.152198 0.759839 0.051425
H4    H     H_    0.100934 0.195910 0.599055 0.189865
H5    H     H_    0.305811 0.261840 0.645782 0.139108
C13   C     C_R   0.047018 0.224272 0.217917 -0.147500
H6    H     H_    0.187832 0.205651 0.194178 0.115110
C14   C     C_R   0.035863 0.287838 0.283128 -0.148616
H7    H     H_    0.168657 0.316382 0.307441 0.113828
C15   C     C_R   0.856171 0.314267 0.316292 -0.045331
C16   C     C_R   0.687964 0.275255 0.282424 -0.154232
H8    H     H_    0.547152 0.293859 0.306177 0.114653
C17   C     C_R   0.699120 0.211685 0.217215 -0.142339
H9    H     H_    0.566329 0.183120 0.192920 0.118895
C18   C     C_R   0.878796 0.185361 0.183967 -0.041975
C19   C     C_R   0.187987 0.725063 0.717190 -0.137352
H10   H     H_    0.047195 0.706537 0.693300 0.127870
C20   C     C_R   0.199039 0.788407 0.782573 -0.163073
H11   H     H_    0.066236 0.816991 0.806797 0.130377
C21   C     C_R   0.378698 0.814688 0.815924 -0.058072
C22   C     C_R   0.547019 0.776130 0.781798 -0.156985
H12   H     H_    0.687846 0.794890 0.805498 0.121016
C23   C     C_R   0.535962 0.712684 0.716500 -0.144375
H13   H     H_    0.668815 0.684305 0.692124 0.122938
C24   C     C_R   0.356271 0.686097 0.683388 -0.038055
C25   C     C_R   0.216559 0.762405 0.311113 0.460868
C26   C     C_R   0.228403 0.822716 0.242934 -0.219943
H14   H     H_    0.121882 0.876703 0.235952 0.176424
C27   C     C_R   0.379565 0.816713 0.185214 -0.125654
C28   C     C_R   0.520129 0.748382 0.195989 -0.128300
H15   H     H_    0.638767 0.742334 0.152563 0.126922
C29   C     C_R   0.506081 0.685332 0.261521 -0.145213
H16   H     H_    0.613885 0.631584 0.266223 0.151489
C30   C     C_R   0.354396 0.690302 0.319623 -0.181524
O11   O     O_R   0.229200 0.915950 0.913350 -0.535740
O12   O     O_R   0.559090 0.905000 0.086080 -0.538187
O13   O     O_R   0.729280 0.083880 0.086680 -0.541461
C31   C     C_R   0.390339 0.883100 0.115158 0.719229
O14   O     O_R   0.558920 0.904980 0.913920 -0.545086
O15   O     O_R   0.729110 0.083860 0.913300 -0.544176
C32   C     C_R   0.389850 0.882787 0.884927 0.688578
O16   O     O_R   0.229360 0.915970 0.086730 -0.540646
O17   O     O_3   0.395680 0.058580 0.000030 -0.376063
V3    V     V_3+5 0.670570 0.989070 0.999990 1.418389
O18   O     O_R   0.058820 0.094950 0.913870 -0.541975
C33   C     C_R   0.889704 0.117502 0.885456 0.724898
O19   O     O_R   0.058990 0.094970 0.086020 -0.546589
C34   C     C_R   0.889965 0.117128 0.115048 0.687785
V4    V     V_3+5 0.170560 0.010930 0.999930 1.417833
O20   O     O_3   0.895590 0.941310 0.999960 -0.368610
S1    S     S_3+6 0.035348 0.784647 0.386225 -0.016855
O21   O     O_2   0.875579 0.715759 0.376307 -0.342253
O22   O     O_2   0.119042 0.777073 0.472227 -0.349099
O23   O     O_3   0.944449 0.891049 0.373206 -0.517451
H17   H     H_    0.836484 0.895263 0.413329 0.367188
O24   O     O_3   0.101694 0.068326 0.707352 -0.544878
C35   C     C_3   0.246349 0.011234 0.673787 -0.172741
H18   H     H_    0.359267 0.995662 0.720951 0.117467
H19   H     H_    0.312531 0.042571 0.617489 0.143578
H20   H     H_    0.179753 0.945106 0.654865 0.186196

loop_
_geom_bond_atom_site_label_1
_geom_bond_atom_site_label_2
_ccdc_geom_bond_type
O14   C32   A    
C11   O24   S    
V4    O20   S    
C4    C6    S    
C7    H1    S    
C1    O6    A    
C35   H18   S    
C23   C24   A    
C22   H12   S    
C5    C12   S    
O15   V3    S    
C7    C8    A    
C6    C7    A    
O5    C3    A    
C13   H6    S    
V3    O20   S    
C19   C24   A    
C29   H16   S    
O12   C31   A    
C15   C16   A    
O14   V3    S    
O8    V2    S    
C16   H8    S    
C18   C34   S    
O18   V4    S    
O17   V4    S    
O15   C33   A    
O7    V1    S    
O11   V4    S    
C2    C30   S    
C19   C20   A    
O9    C4    A    
C9    C33   S    
C21   C32   S    
C20   C21   A    
C35   H19   S    
C25   C26   A    
C22   C23   A    
C28   C29   A    
C5    C10   A    
C31   O16   A    
C26   H14   S    
C25   C30   A    
C10   C11   S    
O19   V4    S    
O23   H17   S    
C11   C12   S    
C27   C28   A    
O16   V4    S    
O17   V3    S    
C26   C27   A    
C14   C15   A    
O2    C1    A    
S1    O21   D    
C17   H9    S    
C27   C31   S    
C23   H13   S    
C9    C10   A    
C5    C6    A    
S1    O22   D    
O3    C4    A    
O1    V2    S    
O13   C34   A    
C19   H10   S    
O6    V2    S    
O9    V2    S    
C20   H11   S    
C3    C15   S    
O2    V1    S    
C35   H20   S    
C21   C22   A    
O4    C2    A    
C28   H15   S    
C16   C17   A    
O1    C2    A    
O24   C35   S    
O5    V1    S    
O8    C3    A    
C11   H3    S    
C12   H4    S    
C1    C24   S    
C14   H7    S    
C8    C9    A    
O7    V2    S    
O4    V1    S    
C17   C18   A    
O3    V1    S    
V1    O10   S    
C25   S1    S    
O11   C32   A    
C13   C14   A    
O13   V3    S    
C29   C30   A    
C13   C18   A    
O18   C33   A    
S1    O23   S    
O19   C34   A    
O12   V3    S    
C12   H5    S    
C8    H2    S    
V2    O10   S    
