data_mof_unit_44734.cif
_audit_creation_date              2012-12-10T17:33:14-0500
_audit_creation_method            fapswitch 2.2
_symmetry_space_group_name_H-M    P1
_symmetry_Int_Tables_number       1
_space_group_crystal_system       triclinic
_cell_length_a                    15.504849
_cell_length_b                    15.519942
_cell_length_c                    17.78871
_cell_angle_alpha                 90.242087
_cell_angle_beta                  109.303229
_cell_angle_gamma                 68.237656
_cell_volume                      3717.65335254

loop_
_atom_site_label
_atom_site_type_symbol
_atom_type_description
_atom_site_fract_x
_atom_site_fract_y
_atom_site_fract_z
_atom_type_partial_charge
C1    C     C_R   0.462878 0.740405 0.531954 0.495450
C2    C     C_R   0.625565 0.437549 0.088163 -0.127020
C3    C     C_R   0.683747 0.380696 0.048383 -0.130753
C4    C     C_R   0.533338 0.259862 0.468136 0.509686
C5    C     C_R   0.652222 0.395082 0.965007 0.043320
C6    C     C_R   0.562902 0.471535 0.920545 0.036888
C7    C     C_R   0.709473 0.333725 0.925496 -0.130056
C8    C     C_R   0.678416 0.346748 0.842039 -0.119819
C9    C     C_R   0.528578 0.477132 0.836154 -0.113119
C10   C     C_R   0.330214 0.990664 0.545653 -0.141488
C11   C     C_R   0.444849 0.837431 0.540963 0.010979
C12   C     C_R   0.341325 0.673921 0.161543 -0.125900
C13   C     C_R   0.649399 0.105013 0.457357 -0.177830
C14   C     C_R   0.691310 0.007666 0.476803 0.056178
C15   C     C_R   0.640577 0.963568 0.504602 0.245026
C16   C     C_R   0.757750 0.447693 0.532015 0.593209
C17   C     C_R   0.540310 0.015270 0.499708 -0.000420
C18   C     C_R   0.499810 0.114318 0.479756 -0.014559
C19   C     C_R   0.479847 0.973022 0.516803 0.031928
C20   C     C_R   0.387582 0.030525 0.523749 0.041317
C21   C     C_R   0.349705 0.126857 0.503040 -0.138241
C22   C     C_R   0.402202 0.167299 0.476743 -0.101169
C23   C     C_R   0.483395 0.537595 0.163910 -0.114344
C24   C     C_R   0.503791 0.876017 0.521450 -0.113529
C25   C     C_R   0.359449 0.894170 0.555051 -0.141347
C26   C     C_R   0.557994 0.158913 0.464166 -0.020239
C27   C     C_R   0.032327 0.365154 0.644726 0.231144
C28   C     C_R   0.241334 0.554211 0.470546 0.510145
C29   C     C_R   0.863407 0.424015 0.549262 -0.038426
C30   C     C_R   0.059970 0.651361 0.397593 0.248750
C31   C     C_R   0.960390 0.667926 0.381174 -0.146287
C32   C     C_R   0.933660 0.613794 0.423935 -0.128494
C33   C     C_R   0.006180 0.540812 0.485326 0.033174
C34   C     C_R   0.471687 0.568253 0.085243 -0.002482
C35   C     C_R   0.106123 0.532889 0.509618 -0.025966
C36   C     C_R   0.982181 0.479164 0.526784 -0.000184
C37   C     C_R   0.054368 0.423761 0.600100 -0.018651
C38   C     C_R   0.147745 0.428335 0.629118 -0.117418
C39   C     C_R   0.173145 0.481656 0.584930 -0.124839
C40   C     C_R   0.560639 0.440222 0.711800 0.500954
C41   C     C_R   0.890308 0.468451 0.497512 0.203958
C42   C     C_R   0.934608 0.370282 0.622642 0.002324
C43   C     C_R   0.134888 0.580486 0.460038 0.015892
C44   C     C_R   0.440753 0.559905 0.287175 0.510686
C45   C     C_R   0.391147 0.653314 0.043978 -0.014387
C46   C     C_R   0.420508 0.590577 0.202661 0.022539
C47   C     C_R   0.587472 0.417801 0.797608 0.021785
C48   C     C_R   0.325986 0.704353 0.082969 -0.106177
C49   C     C_2   0.301348 0.778646 0.922835 0.577766
C50   C     C_3   0.730590 0.868507 0.624071 0.014118
C51   C     C_3   0.775184 0.766814 0.663169 -0.243058
C52   C     C_3   0.818688 0.758813 0.754548 -0.479992
C53   C     C_2   0.791307 0.953334 0.472547 0.591317
C54   C     C_2   0.908747 0.317621 0.675865 0.595337
C55   C     C_3   0.153413 0.219360 0.688605 0.011642
C56   C     C_R   0.535673 0.514015 0.045919 -0.009732
C57   C     C_3   0.233423 0.152388 0.762831 -0.239444
C58   C     C_3   0.290650 0.058816 0.740268 -0.484617
C59   C     C_3   0.833270 0.431037 0.370655 0.025369
C60   C     C_3   0.910050 0.423214 0.331704 -0.276728
C61   C     C_3   0.914047 0.350808 0.273295 -0.484303
C62   C     C_3   0.074952 0.789452 0.380796 0.023338
C63   C     C_3   0.119362 0.839456 0.339956 -0.241582
C64   C     C_3   0.113357 0.932529 0.371114 -0.475229
C65   C     C_3   0.497768 0.701948 0.857312 0.008194
C66   C     C_3   0.486154 0.739973 0.773792 -0.242741
C67   C     C_R   0.510051 0.537534 0.962122 0.002147
C68   C     C_3   0.563974 0.779618 0.778091 -0.478212
C69   C     C_R   0.436597 0.627913 0.924358 0.227528
C70   C     C_R   0.376798 0.684850 0.964693 0.067681
H1    H     H_    0.779004 0.276715 0.959237 0.112253
H2    H     H_    0.855215 0.634255 0.410557 0.207487
H3    H     H_    0.903018 0.723161 0.334229 0.140618
H4    H     H_    0.244428 0.485767 0.613398 0.155158
H5    H     H_    0.725192 0.301739 0.812100 0.125980
H6    H     H_    0.752637 0.323488 0.083070 0.105706
H7    H     H_    0.261833 0.767699 0.053103 0.158840
H8    H     H_    0.290797 0.715696 0.190013 0.136848
H9    H     H_    0.539576 0.471062 0.195910 0.125321
H10   H     H_    0.655199 0.421964 0.152767 0.098475
H11   H     H_    0.243817 0.917796 0.926260 0.336921
H12   H     H_    0.312593 0.864040 0.568658 0.107753
H13   H     H_    0.671445 0.909699 0.647713 0.122053
H14   H     H_    0.789801 0.896793 0.640563 0.155789
H15   H     H_    0.716500 0.738058 0.646491 0.183738
H16   H     H_    0.834665 0.724480 0.640614 0.200648
H17   H     H_    0.879422 0.784828 0.772732 0.165035
H18   H     H_    0.849363 0.684331 0.781007 0.165378
H19   H     H_    0.760211 0.800022 0.778424 0.144068
H20   H     H_    0.896329 0.827396 0.474382 0.321027
H21   H     H_    0.934463 0.265884 0.788625 0.326996
H22   H     H_    0.189358 0.228932 0.646152 0.115548
H23   H     H_    0.276805 0.170824 0.503417 0.101334
H24   H     H_    0.099274 0.187304 0.659082 0.141468
H25   H     H_    0.286320 0.184617 0.794423 0.175737
H26   H     H_    0.198085 0.139916 0.804512 0.195446
H27   H     H_    0.239287 0.025422 0.707951 0.160060
H28   H     H_    0.346387 0.011071 0.795580 0.160576
H29   H     H_    0.330159 0.069387 0.701466 0.150413
H30   H     H_    0.759727 0.449279 0.322263 0.163284
H31   H     H_    0.851533 0.361660 0.403295 0.137230
H32   H     H_    0.890540 0.492350 0.298667 0.182678
H33   H     H_    0.984787 0.402126 0.378950 0.163766
H34   H     H_    0.260589 0.034278 0.552052 0.103174
H35   H     H_    0.934411 0.280809 0.305182 0.149637
H36   H     H_    0.970780 0.346290 0.246655 0.156867
H37   H     H_    0.840960 0.371339 0.224031 0.144691
H38   H     H_    0.115963 0.778358 0.447034 0.133477
H39   H     H_    0.995305 0.834739 0.367716 0.141256
H40   H     H_    0.198488 0.794093 0.351658 0.206632
H41   H     H_    0.078623 0.852564 0.273945 0.166796
H42   H     H_    0.034652 0.980163 0.357933 0.163860
H43   H     H_    0.147437 0.966386 0.341188 0.152877
H44   H     H_    0.154099 0.920988 0.436995 0.155231
H45   H     H_    0.561717 0.829639 0.502377 0.181569
H46   H     H_    0.574085 0.646994 0.885549 0.135386
H47   H     H_    0.487754 0.760306 0.894570 0.148505
H48   H     H_    0.493950 0.682718 0.735561 0.185915
H49   H     H_    0.410888 0.796102 0.745335 0.179715
H50   H     H_    0.556525 0.838118 0.814904 0.144419
H51   H     H_    0.553502 0.806604 0.716656 0.162245
H52   H     H_    0.639824 0.724111 0.804835 0.155208
H53   H     H_    0.691722 0.139758 0.442219 0.183451
H54   H     H_    0.364611 0.241021 0.453841 0.145620
H55   H     H_    0.456145 0.526435 0.798694 0.169684
H56   H     H_    0.202306 0.390412 0.686691 0.162934
O1    O     O_3   0.500000 0.500000 0.500000 -0.438902
O2    O     O_R   0.596500 0.492780 0.688380 -0.536800
O3    O     O_R   0.388780 0.611210 0.325000 -0.545152
O4    O     O_R   0.499860 0.410860 0.661600 -0.541691
O5    O     O_R   0.514860 0.485140 0.325020 -0.549547
O6    O     O_2   0.244701 0.786593 0.853998 -0.478919
O7    O     O_R   0.297323 0.858088 0.961264 -0.726962
O8    O     O_3   0.691923 0.871273 0.539819 -0.549013
O9    O     O_2   0.841890 0.994127 0.463299 -0.552630
O10   O     O_R   0.827585 0.855657 0.477796 -0.651312
O11   O     O_2   0.844493 0.286847 0.647075 -0.543106
O12   O     O_R   0.707110 0.418540 0.472990 -0.521380
O13   O     O_R   0.958498 0.302571 0.759103 -0.642639
O14   O     O_3   0.105649 0.305917 0.712485 -0.526023
O15   O     O_3   0.824370 0.503801 0.419646 -0.586179
O16   O     O_3   0.083577 0.703404 0.350613 -0.545983
O17   O     O_3   0.425277 0.664566 0.849177 -0.566416
O18   O     O_R   0.267620 0.606720 0.435250 -0.505918
O19   O     O_R   0.540230 0.674660 0.578090 -0.552438
O20   O     O_R   0.485030 0.300080 0.513670 -0.541152
O21   O     O_R   0.403610 0.721990 0.472930 -0.550862
O22   O     O_R   0.571130 0.303270 0.435320 -0.540456
O23   O     O_R   0.717650 0.497270 0.578120 -0.529516
O24   O     O_R   0.307610 0.477470 0.513630 -0.565267
Zn1   Zn    Zn3+2 0.572030 0.427990 0.434470 0.964765
Zn2   Zn    Zn3+2 0.587090 0.540470 0.584680 0.958327
Zn3   Zn    Zn3+2 0.449010 0.423430 0.546420 0.932709
Zn4   Zn    Zn3+2 0.391880 0.608100 0.434430 0.938693

loop_
_geom_bond_atom_site_label_1
_geom_bond_atom_site_label_2
_ccdc_geom_bond_type
C40   C47   S    
C66   C68   S    
C34   C56   A    
C13   C26   A    
C29   C42   A    
C1    O19   A    
C19   C20   A    
C18   C26   A    
O22   Zn1   S    
C12   C48   A    
C51   H15   S    
C6    C9    A    
C52   H19   S    
C50   H14   S    
C7    C8    A    
C32   H2    S    
C15   O8    S    
C44   O5    A    
C28   O24   A    
C53   O10   S    
C62   C63   S    
C36   C37   A    
C62   H39   S    
C7    H1    S    
C30   C31   A    
C13   H53   S    
C31   H3    S    
C54   O11   D    
C62   H38   S    
C11   C25   A    
C4    O22   A    
C11   C24   A    
C33   C36   A    
O1    Zn4   S    
C39   H4    S    
O21   Zn4   S    
C40   O4    A    
O1    Zn1   S    
O5    Zn1   S    
O2    Zn2   S    
C54   O13   S    
C10   C20   A    
O24   Zn3   S    
C12   H8    S    
C16   O23   A    
C28   O18   A    
C60   H33   S    
C35   C43   A    
C59   C60   S    
C23   C46   A    
C13   C14   A    
C63   H41   S    
C59   H30   S    
O1    Zn3   S    
C36   C41   A    
C58   H27   S    
C62   O16   S    
C55   H24   S    
C60   H32   S    
C51   H16   S    
C38   H56   S    
C44   C46   S    
C50   H13   S    
C50   C51   S    
C38   C39   A    
C49   O6    D    
C64   H44   S    
C51   C52   S    
C59   H31   S    
C52   H18   S    
C2    H10   S    
C12   C46   A    
C50   O8    S    
O23   Zn2   S    
C68   H52   S    
C5    C7    A    
C17   C19   A    
C16   C29   S    
C57   H26   S    
C8    H5    S    
C9    H55   S    
C55   O14   S    
C60   C61   S    
C67   C69   A    
C48   H7    S    
C35   C39   A    
C41   O15   S    
C37   C38   A    
C3    H6    S    
O1    Zn2   S    
H20   O10   S    
C31   C32   A    
C23   C34   A    
C4    O20   A    
C17   C18   A    
C34   C45   A    
C22   H54   S    
C61   H36   S    
H21   O13   S    
C30   C43   A    
C10   C25   A    
C6    C67   A    
C55   H22   S    
C9    C47   A    
C66   H49   S    
C55   C57   S    
C57   H25   S    
C25   H12   S    
O12   Zn1   S    
C65   H46   S    
C53   O9    D    
C1    O21   A    
C61   H35   S    
C45   C48   A    
C15   C17   A    
C49   O7    S    
C64   H43   S    
C29   C41   A    
C45   C70   A    
C18   C22   A    
C52   H17   S    
C16   O12   A    
C58   H29   S    
C3    C5    A    
C68   H51   S    
C4    C26   S    
H11   O7    S    
C58   H28   S    
C69   O17   S    
C56   C67   A    
C28   C43   S    
C27   O14   S    
C30   O16   S    
C49   C70   S    
C32   C33   A    
C63   H40   S    
C10   H34   S    
C2    C3    A    
C44   O3    A    
C8    C47   A    
C2    C56   A    
C68   H50   S    
C27   C42   A    
C57   C58   S    
C5    C6    A    
O20   Zn3   S    
C21   H23   S    
C27   C37   A    
C65   O17   S    
C33   C35   A    
C19   C24   A    
O4    Zn3   S    
O18   Zn4   S    
C69   C70   A    
C61   H37   S    
O19   Zn2   S    
C64   H42   S    
C63   C64   S    
C14   C53   S    
C20   C21   A    
C59   O15   S    
C24   H45   S    
C65   C66   S    
C66   H48   S    
C65   H47   S    
C14   C15   A    
C1    C11   S    
C23   H9    S    
C21   C22   A    
C42   C54   S    
O3    Zn4   S    
C40   O2    A    
