data_mof_unit_14829.cif
_audit_creation_date              2013-03-05T16:12:14-0500
_audit_creation_method            fapswitch 2.2
_symmetry_space_group_name_H-M    P1
_symmetry_Int_Tables_number       1
_space_group_crystal_system       triclinic
_cell_length_a                    10.795761
_cell_length_b                    9.454966
_cell_length_c                    27.763161
_cell_angle_alpha                 90.294665
_cell_angle_beta                  90.614594
_cell_angle_gamma                 89.647224
_cell_volume                      2833.6312207

loop_
_atom_site_label
_atom_site_type_symbol
_atom_site_description
_atom_site_fract_x
_atom_site_fract_y
_atom_site_fract_z
_atom_type_partial_charge
O1    O     O_R   0.317570 0.620260 0.500030 -0.574072
O2    O     O_R   0.317570 0.379740 0.500030 -0.553579
C1    C     C_R   0.260129 0.500318 0.500742 0.989343
O3    O     O_R   0.499900 0.620250 0.430280 -0.616737
O4    O     O_R   0.499900 0.379750 0.430280 -0.557301
C2    C     C_R   0.501227 0.499828 0.407441 0.940482
Cu1   Cu    Cu3+1 0.499860 0.642410 0.500020 1.059553
Cu2   Cu    Cu3+1 0.499860 0.357590 0.500020 1.093357
O5    O     O_R   0.682190 0.620260 0.500010 -0.530596
O6    O     O_R   0.682190 0.379740 0.500010 -0.505196
O7    O     O_R   0.499860 0.620280 0.569750 -0.550246
O8    O     O_R   0.499860 0.379720 0.569750 -0.547175
C3    C     C_R   0.739407 0.499933 0.505517 1.004129
C4    C     C_R   0.495528 0.500378 0.592476 0.936596
C5    C     C_R   0.356407 0.495862 0.177605 0.662288
O9    O     O_2   0.259036 0.443558 0.201670 -0.466207
N1    N     N_R   0.457849 0.543694 0.202545 -0.419248
C6    C     C_R   0.557343 0.599239 0.179315 0.658600
C7    C     C_R   0.541209 0.421238 0.273336 0.555718
C8    C     C_R   0.558720 0.409710 0.323385 0.301429
C9    C     C_R   0.414045 0.606610 0.333919 -0.299596
C10   C     C_R   0.400782 0.619077 0.284195 0.659083
C11   C     C_R   0.464643 0.526735 0.253823 0.025141
C12   C     C_R   0.458127 0.549482 0.102271 -0.045571
C13   C     C_R   0.354377 0.498547 0.126979 -0.055635
C14   C     C_R   0.252739 0.447862 0.100721 -0.111247
C15   C     C_R   0.559695 0.602378 0.128836 -0.046832
C16   C     C_R   0.492353 0.502853 0.354334 -0.329402
H1    H     H_    0.362645 0.678963 0.356716 0.231520
H2    H     H_    0.172161 0.407024 0.118823 0.199723
C17   C     C_R   0.490506 0.501981 0.645482 -0.006919
C18   C     C_R   0.359328 0.497038 0.973447 0.040991
C19   C     C_R   0.577298 0.571419 0.976249 -0.020402
C20   C     C_R   0.471401 0.529959 0.949473 0.079841
C21   C     C_R   0.253502 0.465278 0.945199 -0.170921
C22   C     C_R   0.258810 0.460177 0.895379 -0.075152
C23   C     C_R   0.369670 0.486442 0.871608 -0.027730
C24   C     C_R   0.477369 0.521240 0.898337 -0.083732
C25   C     C_R   0.590154 0.547000 0.873933 -0.152462
C26   C     C_R   0.587805 0.543095 0.822772 0.580544
N2    N     N_R   0.481662 0.508974 0.798143 -0.482237
C27   C     C_R   0.374228 0.480071 0.821321 0.565432
C28   C     C_R   0.489627 0.633230 0.720887 -0.073362
C29   C     C_R   0.493338 0.631226 0.670746 -0.103016
C30   C     C_R   0.482655 0.374938 0.671338 -0.159323
C31   C     C_R   0.478843 0.377286 0.721559 -0.076045
C32   C     C_R   0.482729 0.506398 0.746463 0.325416
O10   O     O_2   0.271492 0.447089 0.795574 -0.463296
C33   C     C_R   0.356613 0.496706 0.024673 0.042354
C34   C     C_R   0.461134 0.545740 0.051115 0.087552
C35   C     C_R   0.569421 0.589428 0.026979 0.064120
C36   C     C_R   0.253470 0.447070 0.050625 -0.184169
H3    H     H_    0.499132 0.730846 0.651846 0.183222
H4    H     H_    0.492520 0.733350 0.739972 0.154184
H5    H     H_    0.174715 0.435508 0.875473 0.226632
H6    H     H_    0.163748 0.446833 0.960421 0.169596
H7    H     H_    0.172849 0.402347 0.033364 0.148913
O11   O     O_2   0.654459 0.649424 0.205076 -0.481104
C37   C     C_R   0.661754 0.655807 0.104568 -0.108997
H8    H     H_    0.739444 0.701108 0.124124 0.202266
C38   C     C_R   0.689788 0.588278 0.951799 -0.259745
C39   C     C_R   0.698950 0.574971 0.901822 0.372765
O12   O     O_2   0.689045 0.574816 0.797252 -0.409158
C40   C     C_R   0.666488 0.650225 0.054633 -0.190865
H9    H     H_    0.774436 0.606054 0.971575 0.189556
H10   H     H_    0.479899 0.273871 0.652833 0.190269
H11   H     H_    0.473761 0.278857 0.741185 0.155374
H12   H     H_    0.746789 0.697347 0.038651 0.156106
C41   C     C_3   0.078904 0.612970 0.541049 0.388551
C42   C     C_3   0.075817 0.351874 0.518881 0.403363
H13   H     H_    0.118255 0.718361 0.532527 0.161128
H14   H     H_    0.097224 0.274359 0.489733 0.106951
C43   C     C_3   0.935205 0.626942 0.539335 0.217901
C44   C     C_3   0.933654 0.354009 0.526072 0.202938
H15   H     H_    0.915738 0.723205 0.517541 0.173306
H16   H     H_    0.896094 0.271706 0.501268 0.163248
H17   H     H_    0.878485 0.616897 0.439684 0.246770
H18   H     H_    0.894853 0.430157 0.433511 0.261924
C45   C     C_3   0.065421 0.536575 0.453707 0.945577
C46   C     C_3   0.122780 0.500667 0.503595 -0.392237
C47   C     C_3   0.878398 0.500226 0.508984 -0.403197
C48   C     C_3   0.923168 0.521832 0.456037 -0.601348
C49   C     C_3   0.595937 0.082954 0.534327 0.560118
C50   C     C_3   0.596722 0.916341 0.534009 0.566422
H19   H     H_    0.579869 0.120966 0.571691 0.088282
H20   H     H_    0.582329 0.877894 0.571287 0.087922
C51   C     C_3   0.379138 0.084605 0.516570 0.436641
C52   C     C_3   0.379221 0.917146 0.516693 0.391589
C53   C     C_3   0.524548 0.082291 0.452584 -0.341484
C54   C     C_3   0.523373 0.915673 0.452399 -0.378480
N3    N     N_3   0.500250 0.143650 0.501060 -0.295436
N4    N     N_3   0.500250 0.856350 0.501060 -0.277955
H21   H     H_    0.453711 0.121110 0.426368 0.211607
H22   H     H_    0.450402 0.879289 0.426674 0.191588
H23   H     H_    0.615763 0.118854 0.439777 0.291265
H24   H     H_    0.612801 0.874595 0.438323 0.254671
H25   H     H_    0.304675 0.120415 0.491395 0.101404
H26   H     H_    0.304608 0.881098 0.491647 0.119058
F1    F     F_    0.600431 0.331243 0.242856 -0.566541
S1    S     S_3+6 0.850993 0.588177 0.877662 0.067061
O13   O     O_2   0.859645 0.720886 0.848348 -0.166064
O14   O     O_2   0.947744 0.594171 0.916981 -0.332311
O15   O     O_3   0.881365 0.447413 0.842316 -0.428807
H27   H     H_    0.871238 0.364392 0.863499 0.336732
F2    F     F_    0.124577 0.576669 0.586128 -0.516919
F3    F     F_    0.139566 0.305026 0.559496 -0.490993
S2    S     S_3+6 0.868668 0.675271 0.597179 0.143848
O16   O     O_2   0.740518 0.618383 0.601876 -0.324020
O17   O     O_2   0.944626 0.627087 0.639704 -0.099689
O18   O     O_3   0.860877 0.852498 0.599929 -0.425256
H28   H     H_    0.805815 0.873884 0.627377 0.368595
S3    S     S_3+6 0.892419 0.294290 0.585807 0.181907
O19   O     O_2   0.911427 0.136938 0.586965 -0.164361
O20   O     O_2   0.973780 0.358578 0.624098 -0.086998
O21   O     O_3   0.744070 0.329718 0.598582 -0.519412
H29   H     H_    0.729849 0.283722 0.629993 0.354587
F4    F     F_    0.327031 0.722256 0.265530 -0.580632
F5    F     F_    0.095307 0.673739 0.440835 -0.648744
F6    F     F_    0.111459 0.445753 0.418678 -0.632427
F7    F     F_    0.712058 0.128132 0.521402 -0.584077
F8    F     F_    0.712988 0.870657 0.520252 -0.587210
F9    F     F_    0.349334 0.136112 0.561855 -0.550707
F10   F     F_    0.349566 0.867212 0.561990 -0.590830
S4    S     S_3+6 0.668632 0.282746 0.343879 0.077891
O22   O     O_2   0.775795 0.277006 0.309756 -0.153306
O23   O     O_2   0.717481 0.317669 0.393231 -0.342804
O24   O     O_3   0.600064 0.123625 0.344260 -0.513097
H30   H     H_    0.667927 0.055149 0.350794 0.377673

loop_
_geom_bond_atom_site_label_1
_geom_bond_atom_site_label_2
_geom_bond_distance
_ccdc_geom_bond_type
C10   F4    1.356810 S    
C51   C52   1.583337 S    
C51   N3    1.493374 S    
C43   H15   1.113204 S    
N2    C27   1.362242 A    
C21   C22   1.385541 A    
C12   C15   1.407835 A    
C4    C17   1.473174 S    
C45   C48   1.544977 S    
S3    O20   1.500338 D    
C47   C48   1.567059 S    
Cu1   Cu2   2.692962 S    
C30   C31   1.395404 A    
Cu1   O7    1.948269 S    
C37   C40   1.388591 A    
N1    C11   1.434486 S    
C26   O12   1.345126 S    
C44   H16   1.112018 S    
C40   H12   1.077937 S    
C22   C23   1.397103 A    
C50   H20   1.111490 S    
O3    Cu1   1.946439 S    
C44   S3    1.815458 S    
O4    C2    1.303476 A    
O7    C4    1.301591 A    
C43   S2    1.821257 S    
C5    O9    1.349370 S    
C45   F5    1.387838 S    
C3    C47   1.502578 S    
C5    N1    1.367452 A    
C23   C27   1.398507 A    
C41   H13   1.113192 S    
O5    C3    1.300147 A    
O18   H28   0.990760 S    
C29   H3    1.083030 S    
C6    O11   1.349978 S    
C2    C16   1.476909 S    
C52   N4    1.492099 S    
C45   F6    1.388067 S    
C42   C44   1.549813 S    
S2    O16   1.494682 D    
C41   C43   1.556388 S    
C53   N3    1.488074 S    
C37   H8    1.083485 S    
O1    Cu1   1.980357 S    
C9    C10   1.391899 A    
S2    O17   1.501342 D    
C52   F10   1.386922 S    
C1    C46   1.485726 S    
C43   C47   1.584031 S    
S3    O19   1.501055 D    
C54   H22   1.112558 S    
C12   C34   1.421228 A    
C17   C29   1.406210 A    
C6    C15   1.402426 A    
C42   C46   1.560728 S    
C18   C21   1.411745 A    
C12   C13   1.408376 A    
O3    C2    1.300463 A    
C42   F3    1.387842 S    
C25   C26   1.420642 A    
C7    F1    1.358825 S    
C8    C16   1.422985 A    
C34   C35   1.418421 A    
C50   F8    1.381967 S    
C9    H1    1.083932 S    
S1    O15   1.682237 S    
O1    C1    1.296208 A    
C18   C20   1.424014 A    
C49   F7    1.378616 S    
C53   H23   1.108423 S    
C7    C11   1.399115 A    
C28   C29   1.393104 A    
C23   C24   1.412264 A    
C14   C36   1.390895 A    
O4    Cu2   1.948582 S    
H18   C48   1.108807 S    
C28   H4    1.082897 S    
C54   N4    1.489573 S    
C49   C50   1.575270 S    
Cu2   O8    1.946130 S    
C33   C36   1.416490 A    
S1    O14   1.503823 D    
N1    C6    1.367771 A    
N2    C32   1.435034 S    
Cu2   N3    2.023128 S    
C27   O10   1.350285 S    
S4    O24   1.680950 S    
C39   S1    1.785145 S    
C19   C38   1.407910 A    
C26   N2    1.367557 A    
C49   H19   1.111134 S    
C9    C16   1.408393 A    
O8    C4    1.301669 A    
C14   H2    1.083475 S    
S2    O18   1.678650 S    
C44   C47   1.575651 S    
O24   H30   0.990624 S    
C30   H10   1.083025 S    
S4    O23   1.498848 D    
Cu1   O5    1.978221 S    
C25   C39   1.425197 A    
C31   C32   1.400486 A    
C41   F2    1.384315 S    
C21   H6    1.076803 S    
C20   C24   1.423777 A    
O2    Cu2   1.977793 S    
C35   C40   1.415493 A    
O6    C3    1.304310 A    
C51   F9    1.386306 S    
C54   H24   1.112456 S    
C19   C35   1.421190 A    
C49   N3    1.492371 S    
C7    C8    1.404986 A    
O2    C1    1.294609 A    
C13   C14   1.396713 A    
C31   H11   1.082805 S    
C22   H5    1.083777 S    
C15   C37   1.396204 A    
C24   C25   1.422660 A    
H17   C48   1.113963 S    
Cu1   N4    2.022883 S    
S1    O13   1.503023 D    
C19   C20   1.413355 A    
C53   H21   1.112037 S    
C38   C39   1.397078 A    
C18   C33   1.422838 A    
C8    S4    1.774204 S    
C5    C13   1.405836 A    
C36   H7    1.076801 S    
C45   C46   1.549493 S    
C38   H9    1.074702 S    
Cu2   O6    1.980786 S    
C33   C34   1.418553 A    
C17   C30   1.405981 A    
O15   H27   0.990543 S    
C10   C11   1.395039 A    
C41   C46   1.557603 S    
C42   H14   1.114112 S    
C50   N4    1.491556 S    
C53   C54   1.575476 S    
C28   C32   1.399577 A    
S3    O21   1.675497 S    
C52   H26   1.112393 S    
O21   H29   0.990360 S    
S4    O22   1.503686 D    
C51   H25   1.111950 S    
