data_mof_unit_63582.cif
_audit_creation_date              2012-12-10T18:51:23-0500
_audit_creation_method            fapswitch 2.2
_symmetry_space_group_name_H-M    P1
_symmetry_Int_Tables_number       1
_space_group_crystal_system       triclinic
_cell_length_a                    19.509975
_cell_length_b                    18.281099
_cell_length_c                    19.43366
_cell_angle_alpha                 91.262286
_cell_angle_beta                  94.217453
_cell_angle_gamma                 91.304526
_cell_volume                      6908.7687574

loop_
_atom_site_label
_atom_site_type_symbol
_atom_type_description
_atom_site_fract_x
_atom_site_fract_y
_atom_site_fract_z
_atom_type_partial_charge
C1    C     C_R   0.367841 0.499540 0.500831 0.870984
C2    C     C_R   0.632585 0.500851 0.498413 0.875446
C3    C     C_R   0.853711 0.493044 0.501178 0.112785
C4    C     C_R   0.148983 0.489167 0.513118 0.106729
C5    C     C_R   0.708878 0.501899 0.494445 -0.151776
C6    C     C_R   0.292251 0.498841 0.503208 -0.174925
C7    C     C_R   0.965420 0.538151 0.462157 0.299694
C8    C     C_R   0.037481 0.441838 0.551658 0.366188
C9    C     C_R   0.038015 0.538334 0.466390 0.239896
C10   C     C_R   0.964787 0.442963 0.548804 0.287352
C11   C     C_R   0.073220 0.491480 0.512349 -0.065823
C12   C     C_R   0.929583 0.489895 0.502874 -0.034526
C13   C     C_R   0.463729 0.720519 0.447908 0.581145
C14   C     C_R   0.551849 0.279297 0.536064 0.579790
C15   C     C_R   0.535854 0.725068 0.551740 0.545562
C16   C     C_R   0.448197 0.275164 0.464207 0.528616
C17   C     C_R   0.464203 0.797419 0.447046 -0.199389
C18   C     C_R   0.552627 0.202388 0.535303 -0.194763
C19   C     C_R   0.535548 0.801924 0.552195 -0.223194
C20   C     C_R   0.447532 0.198287 0.464395 -0.226964
C21   C     C_R   0.499904 0.839150 0.499516 -0.077752
C22   C     C_R   0.500102 0.160165 0.499723 -0.064666
C23   C     C_R   0.561873 0.962096 0.508342 -0.142031
C24   C     C_R   0.438086 0.035636 0.491260 -0.143502
C25   C     C_R   0.438156 0.958758 0.490360 -0.141611
C26   C     C_R   0.562040 0.038951 0.507621 -0.140473
C27   C     C_R   0.500085 0.077417 0.499516 0.147654
C28   C     C_R   0.499984 0.921015 0.499335 0.142309
C29   C     C_R   0.501763 0.499224 0.367217 0.869866
C30   C     C_R   0.499853 0.500439 0.632584 0.855738
C31   C     C_R   0.537699 0.558385 0.258762 -0.072035
C32   C     C_R   0.451605 0.455204 0.741105 -0.092069
C33   C     C_R   0.547763 0.544646 0.750321 -0.090135
C34   C     C_R   0.475544 0.440031 0.248215 -0.052797
C35   C     C_R   0.534054 0.562801 0.186008 -0.081114
C36   C     C_R   0.449186 0.458079 0.813763 -0.071840
C37   C     C_R   0.545024 0.547661 0.822733 -0.071080
C38   C     C_R   0.470410 0.445672 0.175747 -0.062465
C39   C     C_R   0.499098 0.507099 0.145070 -0.100541
C40   C     C_R   0.495713 0.504608 0.854285 -0.107555
C41   C     C_R   0.505917 0.498320 0.290562 -0.154769
C42   C     C_R   0.499188 0.500791 0.709004 -0.182408
C43   C     C_R   0.495901 0.505548 0.930300 0.483824
C44   C     C_R   0.498132 0.509044 0.069509 0.473479
C45   C     C_R   0.740352 0.441111 0.463829 -0.089337
C46   C     C_R   0.262010 0.536746 0.557468 -0.084111
C47   C     C_R   0.250312 0.457717 0.453021 -0.127354
C48   C     C_R   0.751066 0.560849 0.523684 -0.090678
C49   C     C_R   0.812725 0.436417 0.467866 -0.038296
C50   C     C_R   0.190195 0.531838 0.562342 -0.035011
C51   C     C_R   0.178619 0.452386 0.458458 -0.031139
C52   C     C_R   0.823298 0.555158 0.529109 -0.036987
Cu1   Cu    Cu3+1 0.500000 0.573360 0.500000 1.029961
Cu2   Cu    Cu3+1 0.500000 0.426640 0.500000 1.013901
H1    H     H_    0.436105 0.824469 0.405083 0.186803
H2    H     H_    0.593820 0.176255 0.565100 0.180073
H3    H     H_    0.563855 0.832478 0.593914 0.188619
H4    H     H_    0.406410 0.168919 0.434341 0.181380
H5    H     H_    0.610429 0.934566 0.514653 0.156215
H6    H     H_    0.388975 0.062021 0.486530 0.151530
H7    H     H_    0.389559 0.928648 0.484051 0.158312
H8    H     H_    0.611176 0.067896 0.512453 0.156051
N1    N     N_R   0.439047 0.521722 0.030820 -0.165408
N2    N     N_R   0.554712 0.492263 0.969245 -0.175057
N3    N     N_R   0.438040 0.520432 0.962226 -0.178983
N4    N     N_R   0.555852 0.494061 0.037713 -0.169803
N5    N     N_R   0.500000 0.683620 0.500000 -0.275588
N6    N     N_R   0.500000 0.316380 0.500000 -0.284075
O1    O     O_R   0.400190 0.561980 0.499990 -0.578891
O2    O     O_R   0.599810 0.438020 0.500010 -0.571278
O3    O     O_R   0.599810 0.561980 0.500010 -0.588254
O4    O     O_R   0.400190 0.438020 0.499990 -0.575757
O5    O     O_R   0.499990 0.561970 0.400150 -0.575941
O6    O     O_R   0.500010 0.438030 0.599850 -0.606562
O7    O     O_R   0.500010 0.561970 0.599850 -0.566336
O8    O     O_R   0.499990 0.438030 0.400150 -0.586923
C53   C     C_2   0.577792 0.615175 0.301364 0.956351
O9    O     O_2   0.563817 0.679767 0.295874 -0.542179
O10   O     O_R   0.631838 0.594318 0.347398 -0.713472
H9    H     H_    0.656391 0.637804 0.372199 0.373459
C54   C     C_2   0.406995 0.400985 0.699489 0.937396
O11   O     O_2   0.408210 0.336253 0.714050 -0.552669
O12   O     O_R   0.363841 0.423702 0.644009 -0.747904
H10   H     H_    0.336030 0.381714 0.620083 0.352123
C55   C     C_2   0.604755 0.583723 0.718891 0.935607
O13   O     O_2   0.638547 0.551455 0.677792 -0.589780
O14   O     O_R   0.621376 0.656455 0.738490 -0.691087
H11   H     H_    0.663695 0.675973 0.717127 0.392782
C56   C     C_2   0.454178 0.369981 0.277838 0.881708
O15   O     O_2   0.393478 0.351571 0.274857 -0.535409
O16   O     O_R   0.504188 0.323217 0.305478 -0.751391
H12   H     H_    0.483850 0.275317 0.320878 0.343958
C57   C     C_2   0.568442 0.624716 0.152322 0.907842
O17   O     O_2   0.537023 0.658283 0.106806 -0.526594
O18   O     O_R   0.636891 0.644035 0.172338 -0.713679
H13   H     H_    0.654448 0.686748 0.145650 0.362475
C58   C     C_2   0.398421 0.411509 0.847586 0.916422
O19   O     O_2   0.337692 0.411136 0.826811 -0.522216
O20   O     O_R   0.420233 0.368133 0.903022 -0.709607
H14   H     H_    0.380971 0.339427 0.921873 0.360461
C59   C     C_2   0.594978 0.594871 0.866180 0.927587
O21   O     O_2   0.574184 0.641765 0.904829 -0.528390
O22   O     O_R   0.665558 0.584887 0.863294 -0.709649
H15   H     H_    0.694208 0.620086 0.895278 0.361075
C60   C     C_2   0.437981 0.385202 0.131278 0.878618
O23   O     O_2   0.472213 0.351637 0.091447 -0.540151
O24   O     O_R   0.368189 0.367752 0.134353 -0.679799
H16   H     H_    0.352042 0.326034 0.101444 0.354784
C61   C     C_2   0.697869 0.387449 0.419758 0.915149
O25   O     O_2   0.695499 0.322939 0.434897 -0.508757
O26   O     O_R   0.659262 0.411784 0.361653 -0.727163
H17   H     H_    0.632812 0.370510 0.335204 0.370022
C62   C     C_2   0.305137 0.578445 0.611983 0.931810
O27   O     O_2   0.339493 0.631762 0.597131 -0.543188
O28   O     O_R   0.303253 0.558724 0.680931 -0.703046
H18   H     H_    0.334377 0.591126 0.713371 0.348184
C63   C     C_2   0.280643 0.421435 0.393589 0.935833
O29   O     O_2   0.322014 0.454797 0.360961 -0.583936
O30   O     O_R   0.260236 0.349640 0.374034 -0.691971
H19   H     H_    0.281136 0.331873 0.330736 0.396074
C64   C     C_2   0.721463 0.629617 0.548185 0.926126
O31   O     O_2   0.728091 0.646923 0.609425 -0.557088
O32   O     O_R   0.691797 0.677596 0.500248 -0.740019
H20   H     H_    0.678676 0.725516 0.522318 0.342088
C65   C     C_2   0.846436 0.374457 0.434006 0.892228
O33   O     O_2   0.834161 0.311536 0.450198 -0.500323
O34   O     O_R   0.893650 0.388578 0.384911 -0.733227
H21   H     H_    0.913977 0.342258 0.366324 0.348511
C66   C     C_2   0.157729 0.575119 0.616599 0.906387
O35   O     O_2   0.115397 0.546224 0.651330 -0.524860
O36   O     O_R   0.175951 0.649057 0.627927 -0.725229
H22   H     H_    0.150634 0.672524 0.666099 0.355496
C67   C     C_2   0.133114 0.412395 0.404504 0.926229
O37   O     O_2   0.136165 0.426936 0.343656 -0.529263
O38   O     O_R   0.086044 0.359179 0.423671 -0.733513
H23   H     H_    0.057431 0.336624 0.382621 0.350433
C68   C     C_2   0.867959 0.614524 0.563773 0.904156
O39   O     O_2   0.860915 0.678132 0.546901 -0.538279
O40   O     O_R   0.918782 0.597085 0.614897 -0.726658
H24   H     H_    0.946416 0.641664 0.633822 0.356159
O41   O     O_3   0.927911 0.585189 0.420255 -0.678247
H25   H     H_    0.955465 0.630754 0.415751 0.355749
O42   O     O_3   0.075056 0.392193 0.590465 -0.654237
H26   H     H_    0.046204 0.347624 0.595359 0.353439
O43   O     O_3   0.076147 0.581459 0.425027 -0.690975
H27   H     H_    0.048748 0.589293 0.380995 0.363685
O44   O     O_3   0.926760 0.401185 0.591338 -0.674823
H28   H     H_    0.955465 0.391450 0.634150 0.362714
O45   O     O_3   0.426396 0.685151 0.393866 -0.686748
H29   H     H_    0.407020 0.639587 0.410799 0.369164
O46   O     O_3   0.605530 0.314508 0.573950 -0.679270
H30   H     H_    0.588699 0.360162 0.593183 0.365434
O47   O     O_3   0.573788 0.694111 0.604896 -0.701736
H31   H     H_    0.588114 0.646305 0.588297 0.372798
O48   O     O_3   0.395081 0.306331 0.426328 -0.698192
H32   H     H_    0.411605 0.354048 0.411622 0.376273

loop_
_geom_bond_atom_site_label_1
_geom_bond_atom_site_label_2
_ccdc_geom_bond_type
O14   H11   S    
N1    N3    A    
C59   O21   D    
C51   C67   S    
C14   C18   A    
C44   N4    A    
O18   H13   S    
C24   C27   A    
Cu1   O1    S    
C54   O11   D    
C3    C49   A    
O32   H20   S    
C29   O8    A    
C53   O9    D    
C19   H3    S    
C25   C28   A    
C15   C19   A    
C32   C54   S    
C60   O24   S    
C26   C27   A    
C57   O17   D    
C33   C42   A    
C32   C36   A    
C19   C21   A    
C66   O35   D    
C37   C40   A    
C63   O30   S    
O43   H27   S    
C38   C39   A    
C30   O6    A    
C45   C61   S    
C29   O5    A    
O28   H18   S    
C58   O19   D    
C23   C26   A    
C33   C55   S    
C57   O18   S    
C3    C12   S    
O22   H15   S    
C54   O12   S    
Cu2   O6    S    
C47   C63   S    
C40   C43   S    
O44   H28   S    
C14   O46   S    
O46   H30   S    
C36   C58   S    
C16   N6    A    
C45   C49   A    
C56   O16   S    
C6    C46   A    
C17   H1    S    
C46   C62   S    
C16   C20   A    
C10   O44   S    
C55   O14   S    
C68   O39   D    
C59   O22   S    
C34   C38   A    
Cu1   O7    S    
C34   C41   A    
C58   O20   S    
C43   N2    A    
C31   C53   S    
C35   C57   S    
C44   N1    A    
C7    C12   A    
O40   H24   S    
C1    O4    A    
C15   O47   S    
C6    C47   A    
C4    C51   A    
C1    C6    S    
O38   H23   S    
C24   C25   A    
C56   O15   D    
O16   H12   S    
C47   C51   A    
C55   O13   D    
C5    C45   A    
C1    O1    A    
C4    C50   A    
N2    N4    A    
C23   H5    S    
C50   C66   S    
C68   O40   S    
O12   H10   S    
Cu2   O2    S    
C36   C40   A    
C43   N3    A    
Cu2   N6    S    
C15   N5    A    
C16   O48   S    
C52   C68   S    
C53   O10   S    
C25   H7    S    
C23   C28   A    
C4    C11   S    
C9    C11   A    
C64   O31   D    
C10   C12   A    
Cu2   O8    S    
C21   C28   S    
C20   C22   A    
C22   C27   S    
C67   O37   D    
C31   C35   A    
C2    C5    S    
O24   H16   S    
C20   H4    S    
O34   H21   S    
Cu1   O3    S    
C7    O41   S    
C65   O34   S    
C62   O27   D    
C13   N5    A    
C7    C9    A    
C32   C42   A    
C31   C41   A    
O26   H17   S    
C29   C41   S    
C18   C22   A    
Cu1   O5    S    
C3    C52   A    
Cu1   Cu2   S    
C39   C44   S    
C18   H2    S    
C49   C65   S    
C60   O23   D    
C46   C50   A    
C63   O29   D    
O20   H14   S    
C13   C17   A    
C38   C60   S    
C61   O26   S    
C26   H8    S    
C34   C56   S    
C13   O45   S    
C2    O2    A    
O45   H29   S    
C37   C59   S    
C30   O7    A    
C5    C48   A    
C65   O33   D    
C8    C11   A    
C35   C39   A    
C9    O43   S    
C8    O42   S    
C2    O3    A    
O36   H22   S    
Cu1   N5    S    
C33   C37   A    
C64   O32   S    
O10   H9    S    
C48   C52   A    
Cu2   O4    S    
C8    C10   A    
O30   H19   S    
C61   O25   D    
O48   H32   S    
C67   O38   S    
C14   N6    A    
C30   C42   S    
C24   H6    S    
C48   C64   S    
C62   O28   S    
O47   H31   S    
O41   H25   S    
O42   H26   S    
C66   O36   S    
C17   C21   A    
