data_mof_unit_24981.cif
_audit_creation_date              2012-12-10T17:49:33-0500
_audit_creation_method            fapswitch 2.2
_symmetry_space_group_name_H-M    P1
_symmetry_Int_Tables_number       1
_space_group_crystal_system       triclinic
_cell_length_a                    14.736215
_cell_length_b                    14.93751
_cell_length_c                    15.86716
_cell_angle_alpha                 75.997693
_cell_angle_beta                  102.258554
_cell_angle_gamma                 116.140904
_cell_volume                      3019.79940466

loop_
_atom_site_label
_atom_site_type_symbol
_atom_type_description
_atom_site_fract_x
_atom_site_fract_y
_atom_site_fract_z
_atom_type_partial_charge
C1    C     C_R   0.879639 0.312773 0.512301 0.786532
C2    C     C_3   0.990128 0.395288 0.071319 -0.471903
C3    C     C_3   0.994394 0.497476 0.082588 0.247397
C4    C     C_3   0.093443 0.583446 0.047299 -0.034277
C5    C     C_3   0.092864 0.581355 0.949628 -0.567974
C6    C     C_1   0.998332 0.498214 0.175535 -0.054906
C7    C     C_1   0.995618 0.498360 0.824029 -0.051463
C8    C     C_1   0.997814 0.499171 0.748760 -0.188651
C9    C     C_R   0.810414 0.207534 0.504520 -0.047020
C10   C     C_R   0.187153 0.796812 0.471110 -0.070416
C11   C     C_R   0.777779 0.047655 0.467254 -0.157030
C12   C     C_R   0.999479 0.499832 0.659358 0.826857
C13   C     C_R   0.846289 0.140054 0.491668 -0.223881
C14   C     C_R   0.705651 0.179557 0.497244 -0.214739
C15   C     C_R   0.634944 0.089241 0.468208 0.034998
C16   C     C_R   0.672100 0.022009 0.453464 0.129125
C17   C     C_R   0.528597 0.063745 0.455060 0.016118
C18   C     C_R   0.459980 0.965621 0.438179 0.029085
C19   C     C_R   0.498235 0.905948 0.411260 0.076171
C20   C     C_R   0.604002 0.932538 0.421929 0.077700
C21   C     C_R   0.488247 0.133669 0.456495 -0.196306
C22   C     C_R   0.384087 0.104277 0.451904 -0.233181
C23   C     C_R   0.120188 0.687774 0.484547 0.791683
C24   C     C_R   0.317508 0.003299 0.451323 0.150564
C25   C     C_R   0.355202 0.932355 0.447055 0.125862
C26   C     C_R   0.214147 0.971629 0.458204 -0.204968
C27   C     C_R   0.149156 0.869112 0.467117 -0.188540
C28   C     C_R   0.289295 0.829259 0.460826 -0.219038
C29   C     C_R   0.704177 0.640206 0.332787 -0.317854
C30   C     C_R   0.791826 0.623805 0.366510 0.046093
C31   C     C_R   0.712765 0.511825 0.490193 0.279184
C32   C     C_R   0.618053 0.517335 0.454099 -0.003964
C33   C     C_R   0.617206 0.587372 0.376229 0.129902
C34   C     C_R   0.000392 0.500045 0.340637 0.826548
C35   C     C_R   0.525753 0.460001 0.494307 0.076472
C36   C     C_R   0.443058 0.489598 0.467151 0.080456
C37   C     C_R   0.444208 0.556546 0.387026 -0.212492
C38   C     C_R   0.529353 0.603745 0.342204 -0.229365
C39   C     C_R   0.509844 0.369982 0.555717 -0.198528
C40   C     C_R   0.422193 0.319603 0.597606 -0.214662
C41   C     C_R   0.348618 0.358671 0.581796 0.119128
C42   C     C_R   0.359037 0.445668 0.517927 0.000743
C43   C     C_R   0.264851 0.311938 0.629421 -0.326164
C44   C     C_R   0.192494 0.352275 0.614322 0.044437
C45   C     C_3   0.986632 0.393889 0.972815 0.032662
C46   C     C_R   0.288138 0.488354 0.511284 0.283913
C47   C     C_3   0.902547 0.521155 0.927631 0.027727
C48   C     C_3   0.897802 0.511023 0.027883 0.012627
C49   C     C_1   0.000229 0.499024 0.251246 -0.178460
C50   C     C_3   0.992334 0.497159 0.916007 0.263713
Cu1   Cu    Cu3+1 0.081750 0.475690 0.522550 0.929105
Cu2   Cu    Cu3+1 0.918250 0.524310 0.477450 0.926470
H1    H     H_    0.923633 0.330994 0.099970 0.199152
H2    H     H_    0.055384 0.384412 0.965483 0.135307
H3    H     H_    0.058793 0.384728 0.108599 0.144330
H4    H     H_    0.318035 0.773291 0.468207 0.174946
H5    H     H_    0.070037 0.846308 0.473944 0.157335
H6    H     H_    0.356183 0.159880 0.453589 0.151299
H7    H     H_    0.808403 0.997963 0.456532 0.169676
H8    H     H_    0.681276 0.230546 0.514058 0.138018
H9    H     H_    0.535115 0.212656 0.458605 0.143128
H10   H     H_    0.184267 0.025846 0.459351 0.134890
H11   H     H_    0.526879 0.654792 0.281069 0.140322
H12   H     H_    0.125647 0.313346 0.648369 0.138958
H13   H     H_    0.413087 0.250722 0.644162 0.147414
H14   H     H_    0.703780 0.692534 0.272145 0.142733
H15   H     H_    0.857318 0.661157 0.330739 0.139248
H16   H     H_    0.920030 0.601710 0.897224 0.081761
H17   H     H_    0.377572 0.569150 0.354878 0.170320
H18   H     H_    0.561511 0.333533 0.568685 0.163161
H19   H     H_    0.254602 0.243770 0.677221 0.144453
H20   H     H_    0.898152 0.582114 0.038803 0.104004
H21   H     H_    0.159167 0.567385 0.943232 0.172586
H22   H     H_    0.102697 0.656021 0.908215 0.183699
H23   H     H_    0.159648 0.568624 0.085662 0.159455
N1    N     N_R   0.795410 0.560790 0.443550 -0.190677
N2    N     N_R   0.204590 0.439170 0.556520 -0.189483
O1    O     O_R   0.977910 0.338120 0.529720 -0.588104
O2    O     O_R   0.839850 0.379180 0.491640 -0.592236
O3    O     O_R   0.069060 0.479460 0.639610 -0.569359
O4    O     O_R   0.931000 0.520530 0.601530 -0.595003
O5    O     O_R   0.160150 0.620820 0.508360 -0.597762
O6    O     O_R   0.022090 0.661880 0.470280 -0.581228
O7    O     O_R   0.069000 0.479470 0.398470 -0.583696
O8    O     O_R   0.930940 0.520540 0.360390 -0.578066
N3    N     N_3   0.107100 0.683094 0.059814 -0.592531
H24   H     H_    0.180655 0.735086 0.047071 0.223957
H25   H     H_    0.056656 0.707677 0.014335 0.214718
N4    N     N_3   0.642885 0.869176 0.400022 -0.617051
H26   H     H_    0.612973 0.797396 0.438148 0.235036
H27   H     H_    0.619713 0.862600 0.334005 0.220294
H28   H     H_    0.927230 0.160297 0.496909 0.156320
N5    N     N_3   0.896977 0.308085 0.942519 -0.566922
H29   H     H_    0.906758 0.241676 0.971634 0.203082
H30   H     H_    0.831882 0.301815 0.964133 0.281801
N6    N     N_3   0.431056 0.826544 0.362794 -0.613621
H31   H     H_    0.441626 0.760685 0.391656 0.236243
H32   H     H_    0.450361 0.847347 0.299058 0.222803
N7    N     N_3   0.313678 0.590159 0.469090 -0.639094
H33   H     H_    0.329084 0.632370 0.517923 0.233810
H34   H     H_    0.254737 0.594962 0.421123 0.259611
N8    N     N_3   0.725003 0.466332 0.579684 -0.622818
H35   H     H_    0.775101 0.522505 0.616062 0.239930
H36   H     H_    0.750504 0.410104 0.584981 0.249847
N9    N     N_3   0.804508 0.458871 0.882428 -0.551164
H37   H     H_    0.810357 0.470930 0.815771 0.221691
H38   H     H_    0.751204 0.486512 0.884650 0.206146
N10   N     N_3   0.803455 0.426851 0.056480 -0.570522
H39   H     H_    0.742711 0.447674 0.030882 0.215782
H40   H     H_    0.805889 0.417645 0.124202 0.216581

loop_
_geom_bond_atom_site_label_1
_geom_bond_atom_site_label_2
_ccdc_geom_bond_type
C10   C27   A    
C46   N7    S    
N5    H29   S    
C23   O5    A    
C37   H17   S    
C41   C42   A    
C36   C42   A    
C19   C20   A    
C9    C14   A    
C3    C6    S    
C45   N5    S    
C28   H4    S    
C7    C8    T    
C44   H12   S    
C25   C28   A    
N9    H38   S    
C26   C27   A    
C29   C30   A    
C23   O6    A    
C44   N2    A    
C24   C26   A    
C2    H3    S    
N3    H25   S    
C4    N3    S    
C15   C16   A    
C29   C33   A    
C3    C48   S    
N10   H39   S    
C18   C19   A    
C42   C46   A    
C5    H22   S    
C9    C13   A    
Cu1   O3    S    
C4    H23   S    
C31   C32   A    
C47   N9    S    
N6    H32   S    
N4    H27   S    
Cu2   O2    S    
C21   H9    S    
C30   H15   S    
C16   C20   A    
N5    H30   S    
C21   C22   A    
C1    O1    A    
C41   C43   A    
N8    H35   S    
C18   C25   A    
C34   O7    A    
C48   H20   S    
C11   H7    S    
C47   C50   S    
C2    C45   S    
Cu1   Cu2   S    
C31   N8    S    
C1    C9    S    
C24   C25   A    
C27   H5    S    
C39   C40   A    
N3    H24   S    
C17   C21   A    
C34   O8    A    
Cu2   O6    S    
C35   C39   A    
C43   C44   A    
Cu1   N2    S    
C37   C38   A    
C30   N1    A    
C11   C16   A    
C47   C48   S    
C8    C12   S    
N6    H31   S    
C17   C18   A    
N8    H36   S    
Cu1   O5    S    
C40   C41   A    
N7    H34   S    
Cu2   O8    S    
C45   H2    S    
C40   H13   S    
C13   H28   S    
C1    O2    A    
C22   C24   A    
C5    C50   S    
C3    C4    S    
C47   H16   S    
C38   H11   S    
N9    H37   S    
C10   C28   A    
C15   C17   A    
C36   C37   A    
C34   C49   S    
C43   H19   S    
C32   C35   A    
C7    C50   S    
C4    C5    S    
Cu2   N1    S    
C2    H1    S    
C22   H6    S    
C46   N2    A    
C10   C23   S    
C14   H8    S    
C20   N4    S    
C33   C38   A    
N7    H33   S    
C32   C33   A    
C2    C3    S    
C26   H10   S    
Cu1   O1    S    
C11   C13   A    
C31   N1    A    
C48   N10   S    
C45   C50   S    
C12   O3    A    
C39   H18   S    
N10   H40   S    
C12   O4    A    
C6    C49   T    
C5    H21   S    
Cu2   O4    S    
C29   H14   S    
C14   C15   A    
C35   C36   A    
N4    H26   S    
Cu1   O7    S    
C19   N6    S    
