data_mof_unit_21649.cif
_audit_creation_date              2012-12-10T19:45:02-0500
_audit_creation_method            fapswitch 2.2
_symmetry_space_group_name_H-M    P1
_symmetry_Int_Tables_number       1
_space_group_crystal_system       triclinic
_cell_length_a                    15.079917
_cell_length_b                    10.844442
_cell_length_c                    13.74008
_cell_angle_alpha                 89.588287
_cell_angle_beta                  90.512576
_cell_angle_gamma                 88.726456
_cell_volume                      2246.25419858

loop_
_atom_site_label
_atom_site_type_symbol
_atom_type_description
_atom_site_fract_x
_atom_site_fract_y
_atom_site_fract_z
_atom_type_partial_charge
C1    C     C_R   0.497049 0.262327 0.499949 0.801100
C2    C     C_R   0.573335 0.876928 0.671350 0.132458
C3    C     C_R   0.467292 0.108773 0.237647 -0.159172
C4    C     C_R   0.532705 0.891228 0.762354 -0.159173
C5    C     C_R   0.430788 0.167141 0.155026 -0.135378
C6    C     C_R   0.569208 0.832860 0.844976 -0.135379
C7    C     C_R   0.353508 0.239824 0.162551 -0.112827
C8    C     C_R   0.646488 0.760178 0.837452 -0.112825
C9    C     C_R   0.473597 0.934986 0.417858 -0.223127
C10   C     C_R   0.526403 0.065014 0.582142 -0.223126
C11   C     C_R   0.505404 0.871589 0.500501 -0.087498
C12   C     C_R   0.502951 0.737673 0.500050 0.801100
C13   C     C_R   0.494596 0.128411 0.499499 -0.087498
C14   C     C_R   0.533588 0.937269 0.583450 -0.005679
C15   C     C_R   0.466411 0.062731 0.416550 -0.005679
C16   C     C_R   0.328535 0.500041 0.499717 0.819178
C17   C     C_R   0.671465 0.499959 0.500283 0.819179
C18   C     C_R   0.558577 0.423832 0.794723 0.105487
C19   C     C_R   0.441423 0.576168 0.205277 0.105488
C20   C     C_R   0.441911 0.575143 0.792226 0.007876
C21   C     C_R   0.558089 0.424857 0.207774 0.007875
C22   C     C_R   0.440694 0.576771 0.894845 0.000002
C23   C     C_R   0.047954 0.495444 0.677257 -0.211158
C24   C     C_R   0.559306 0.423229 0.105155 0.000001
C25   C     C_R   0.500144 0.499689 0.948213 0.081501
C26   C     C_R   0.499856 0.500311 0.051787 0.081501
C27   C     C_R   0.559870 0.422058 0.898163 -0.049225
C28   C     C_R   0.440130 0.577942 0.101837 -0.049225
C29   C     C_R   0.381543 0.654132 0.945019 -0.220714
C30   C     C_R   0.618457 0.345868 0.054981 -0.220714
C31   C     C_R   0.381110 0.654876 0.046956 -0.211372
C32   C     C_R   0.618890 0.345124 0.953044 -0.211372
C33   C     C_R   0.813904 0.502349 0.411881 -0.249834
C34   C     C_R   0.952045 0.504556 0.322742 -0.211156
C35   C     C_R   0.186096 0.497652 0.588119 -0.249837
C36   C     C_R   0.768334 0.499983 0.500499 -0.072543
C37   C     C_R   0.231666 0.500018 0.499501 -0.072543
C38   C     C_R   0.815537 0.497466 0.588908 -0.236988
C39   C     C_R   0.184462 0.502536 0.411092 -0.236985
C40   C     C_R   0.907938 0.497658 0.589351 0.105145
C41   C     C_R   0.092062 0.502344 0.410650 0.105145
C42   C     C_R   0.953521 0.500014 0.500106 0.064335
C43   C     C_R   0.046479 0.499990 0.499895 0.064335
C44   C     C_R   0.906245 0.502322 0.411061 0.107991
C45   C     C_R   0.311965 0.253056 0.252505 -0.119424
C46   C     C_R   0.093754 0.497680 0.588939 0.107991
C47   C     C_R   0.955497 0.495431 0.677460 -0.211032
C48   C     C_R   0.044503 0.504569 0.322539 -0.211030
C49   C     C_1   0.619804 0.344778 0.742735 0.271560
C50   C     C_1   0.380196 0.655222 0.257265 0.271560
C51   C     C_R   0.688033 0.746944 0.747499 -0.119425
C52   C     C_R   0.348062 0.194607 0.335325 -0.085120
C53   C     C_R   0.651936 0.805393 0.664678 -0.085119
C54   C     C_R   0.426663 0.123072 0.328651 0.132458
Cu1   Cu    Cu3+1 0.500010 0.499980 0.597420 0.955858
Cu2   Cu    Cu3+1 0.499990 0.500020 0.402580 0.955858
H1    H     H_    0.777660 0.504193 0.343346 0.154988
H2    H     H_    0.665879 0.283667 0.917771 0.151870
H3    H     H_    0.780553 0.495023 0.657412 0.157881
H4    H     H_    0.219446 0.504977 0.342587 0.157880
H5    H     H_    0.921193 0.493695 0.746415 0.141105
H6    H     H_    0.078807 0.506302 0.253584 0.141103
H7    H     H_    0.083637 0.493701 0.746084 0.141602
H8    H     H_    0.916363 0.506296 0.253915 0.141600
H9    H     H_    0.325769 0.285728 0.098651 0.127104
H10   H     H_    0.674227 0.714274 0.901353 0.127104
H11   H     H_    0.251725 0.308498 0.257977 0.117373
H12   H     H_    0.222340 0.495807 0.656653 0.154989
H13   H     H_    0.748273 0.691503 0.742028 0.117373
H14   H     H_    0.315374 0.205882 0.404680 0.103073
H15   H     H_    0.684626 0.794118 0.595323 0.103073
H16   H     H_    0.527743 0.053779 0.231010 0.123236
H17   H     H_    0.472254 0.946222 0.768990 0.123236
H18   H     H_    0.462793 0.156795 0.085267 0.138302
H19   H     H_    0.537201 0.843207 0.914733 0.138302
H20   H     H_    0.451316 0.884817 0.354662 0.174895
H21   H     H_    0.548683 0.115183 0.645338 0.174895
H22   H     H_    0.396700 0.634470 0.750723 0.132395
H23   H     H_    0.603300 0.365530 0.249276 0.132394
H24   H     H_    0.335504 0.714419 0.905379 0.137881
H25   H     H_    0.664496 0.285581 0.094621 0.137881
H26   H     H_    0.334121 0.716333 0.082229 0.151870
N1    N     N_R   0.499960 0.499900 0.743810 -0.202417
N2    N     N_R   0.500040 0.500100 0.256190 -0.202417
N3    N     N_1   0.669572 0.281069 0.702220 -0.323501
N4    N     N_1   0.330428 0.718931 0.297780 -0.323501
O1    O     O_R   0.500000 0.319630 0.582270 -0.583131
O2    O     O_R   0.500000 0.680370 0.417730 -0.583131
O3    O     O_R   0.499990 0.319660 0.417730 -0.577571
O4    O     O_R   0.500010 0.680340 0.582270 -0.577571
O5    O     O_R   0.370260 0.499960 0.582280 -0.597012
O6    O     O_R   0.629740 0.500040 0.417720 -0.597012
O7    O     O_R   0.370250 0.499990 0.417740 -0.579474
O8    O     O_R   0.629750 0.500010 0.582260 -0.579474

loop_
_geom_bond_atom_site_label_1
_geom_bond_atom_site_label_2
_ccdc_geom_bond_type
C1    O1    A    
C40   C47   A    
C38   C40   A    
Cu1   Cu2   S    
C8    H10   S    
C22   C29   A    
C32   H2    S    
C6    H19   S    
C39   C41   A    
C16   O7    A    
C31   H26   S    
C7    C45   A    
C12   O4    A    
C35   C37   A    
C24   C26   A    
Cu1   O4    S    
C3    C54   A    
Cu2   O2    S    
C33   C36   A    
C5    H18   S    
Cu1   O5    S    
C22   C25   A    
C45   H11   S    
C1    O3    A    
C9    H20   S    
C16   C37   S    
C40   C42   A    
C23   C46   A    
C41   C43   A    
C17   O6    A    
C42   C44   A    
Cu1   O8    S    
C10   H21   S    
C52   C54   A    
Cu2   N2    S    
Cu2   O7    S    
C23   C47   A    
C12   O2    A    
C15   C54   S    
C49   N3    T    
C34   C44   A    
C4    C6    A    
C10   C14   A    
C5    C7    A    
C6    C8    A    
C45   C52   A    
C25   C26   A    
C2    C53   A    
C51   C53   A    
C2    C4    A    
C7    H9    S    
C48   H6    S    
C21   N2    A    
C21   H23   S    
C34   H8    S    
C18   N1    A    
C19   C28   A    
C9    C11   A    
C8    C51   A    
C4    H17   S    
Cu2   O3    S    
C17   C36   S    
C20   C22   A    
C13   C15   A    
C21   C24   A    
C1    C13   S    
C42   C43   A    
Cu1   N1    S    
C19   N2    A    
C53   H15   S    
C33   H1    S    
C27   C32   A    
C33   C44   A    
C28   C31   A    
C18   C27   A    
C3    C5    A    
C10   C13   A    
C47   H5    S    
C11   C12   S    
C25   C27   A    
C26   C28   A    
C20   H22   S    
C30   H25   S    
C36   C38   A    
C3    H16   S    
C9    C15   A    
C37   C39   A    
C30   C32   A    
C19   C50   S    
C29   H24   S    
C35   H12   S    
C39   H4    S    
C23   H7    S    
C11   C14   A    
C41   C48   A    
Cu1   O1    S    
C2    C14   S    
C43   C46   A    
C24   C30   A    
C52   H14   S    
C50   N4    T    
C38   H3    S    
Cu2   O6    S    
C34   C48   A    
C16   O5    A    
C29   C31   A    
C20   N1    A    
C17   O8    A    
C51   H13   S    
C35   C46   A    
C18   C49   S    
