data_mof_unit_19362.cif
_audit_creation_date              2013-03-05T15:49:56-0500
_audit_creation_method            fapswitch 2.2
_symmetry_space_group_name_H-M    P1
_symmetry_Int_Tables_number       1
_space_group_crystal_system       triclinic
_cell_length_a                    12.018255
_cell_length_b                    12.840244
_cell_length_c                    14.971776
_cell_angle_alpha                 90.384824
_cell_angle_beta                  86.001449
_cell_angle_gamma                 93.816532
_cell_volume                      2299.66419474

loop_
_atom_site_label
_atom_site_type_symbol
_atom_site_description
_atom_site_fract_x
_atom_site_fract_y
_atom_site_fract_z
_atom_type_partial_charge
O1    O     O_R   0.421700 0.658830 0.504450 -0.578419
O2    O     O_R   0.578300 0.341170 0.495550 -0.578933
O3    O     O_R   0.609310 0.646410 0.493750 -0.625284
O4    O     O_R   0.390690 0.353590 0.506250 -0.621380
C1    C     C_R   0.522596 0.700191 0.496170 1.023602
C2    C     C_R   0.477446 0.299787 0.504130 1.004780
O5    O     O_R   0.406180 0.506230 0.637500 -0.560247
O6    O     O_R   0.593820 0.493770 0.362500 -0.568181
O7    O     O_R   0.593800 0.493820 0.626800 -0.609474
O8    O     O_R   0.406200 0.506180 0.373200 -0.605055
C3    C     C_R   0.499449 0.497670 0.672741 0.992267
C4    C     C_R   0.500022 0.500623 0.327083 1.004878
Zn1   Zn    Zn3+2 0.374730 0.508290 0.507150 1.100131
Zn2   Zn    Zn3+2 0.625270 0.491710 0.492850 1.094759
C5    C     C_R   0.426556 0.429935 0.190557 0.271959
C6    C     C_R   0.552355 0.583231 0.809849 0.274219
C7    C     C_R   0.498706 0.502534 0.231506 -0.259074
C8    C     C_R   0.497420 0.498988 0.768173 -0.258245
C9    C     C_R   0.564664 0.579559 0.182557 0.249674
C10   C     C_R   0.437405 0.418142 0.816787 0.247283
C11   C     C_R   0.553086 0.588303 0.090198 -0.087389
C12   C     C_R   0.424588 0.426101 0.910440 -0.078761
C13   C     C_R   0.487228 0.509384 0.047269 0.008940
C14   C     C_R   0.486919 0.507411 0.953539 0.006607
C15   C     C_R   0.423134 0.431193 0.097776 -0.025953
C16   C     C_R   0.550025 0.586196 0.902999 -0.025984
C17   C     C_R   0.605489 0.672595 0.039012 0.303426
C18   C     C_R   0.352752 0.354734 0.962546 0.307260
C19   C     C_R   0.605468 0.669130 0.946349 -0.145754
C20   C     C_R   0.355965 0.355927 0.054917 -0.151357
H1    H     H_    0.646701 0.734080 0.908639 0.232810
H2    H     H_    0.302781 0.298401 0.092946 0.234750
C21   C     C_R   0.462282 0.188261 0.506723 -0.193537
C22   C     C_R   0.538132 0.811634 0.493654 -0.182693
C23   C     C_R   0.636779 0.966877 0.544004 0.496243
C24   C     C_R   0.364209 0.032814 0.456085 0.494961
C25   C     C_R   0.628622 0.860107 0.533677 -0.202399
C26   C     C_R   0.371619 0.139507 0.467105 -0.202996
C27   C     C_R   0.459400 0.869030 0.455335 0.438548
C28   C     C_R   0.542023 0.131096 0.544150 0.437357
C29   C     C_R   0.455468 0.975002 0.476934 -0.134055
C30   C     C_R   0.545853 0.025017 0.522760 -0.131511
H3    H     H_    0.305838 0.184767 0.444686 0.225289
H4    H     H_    0.693768 0.814558 0.556803 0.222209
N1    N     N_R   0.207800 0.519350 0.516680 -0.169050
N2    N     N_R   0.792200 0.480650 0.483320 -0.168796
C31   C     C_R   0.954151 0.393294 0.425592 -0.240382
C32   C     C_R   0.045853 0.606690 0.574463 -0.246102
C33   C     C_R   0.838350 0.404465 0.430716 0.466630
C34   C     C_R   0.161685 0.595639 0.569190 0.464701
C35   C     C_R   0.859003 0.547469 0.530775 -0.012293
C36   C     C_R   0.140936 0.452338 0.469475 -0.005361
C37   C     C_R   0.975992 0.539092 0.526632 0.018179
C38   C     C_R   0.023974 0.460807 0.473525 0.016752
H5    H     H_    0.178808 0.392582 0.428622 0.187259
H6    H     H_    0.821059 0.606944 0.571974 0.180511
H7    H     H_    0.988981 0.332536 0.383832 0.208688
H8    H     H_    0.011048 0.667492 0.616184 0.206313
N3    N     N_R   0.361916 0.351306 0.243293 0.201502
O9    O     O_R   0.253600 0.352786 0.252804 -0.374559
O10   O     O_R   0.411876 0.282067 0.285983 -0.376561
N4    N     N_R   0.609980 0.665545 0.756907 0.194518
O11   O     O_R   0.718707 0.674031 0.749009 -0.365042
O12   O     O_R   0.553443 0.729789 0.714209 -0.369244
N5    N     N_R   0.648366 0.642818 0.225833 0.242876
O13   O     O_R   0.753629 0.635250 0.201664 -0.283115
O14   O     O_R   0.620271 0.703751 0.292223 -0.336051
N6    N     N_R   0.404312 0.322607 0.771991 0.221037
O15   O     O_R   0.444029 0.235487 0.794650 -0.274271
O16   O     O_R   0.332721 0.321445 0.710651 -0.315388
N7    N     N_R   0.649753 0.766754 0.079395 0.247309
O17   O     O_R   0.585109 0.819142 0.133792 -0.256842
O18   O     O_R   0.744824 0.811084 0.047930 -0.262398
N8    N     N_R   0.268639 0.287166 0.924206 0.250056
O19   O     O_R   0.196529 0.326794 0.875514 -0.271218
O20   O     O_R   0.249935 0.191457 0.952212 -0.260468
Cl1   Cl    Cl    0.621383 0.192153 0.628162 -0.405803
Cl2   Cl    Cl    0.382522 0.808775 0.369472 -0.405885
Cl3   Cl    Cl    0.767750 0.019869 0.575463 -0.371907
Cl4   Cl    Cl    0.233574 0.979034 0.424583 -0.373529
N9    N     N_R   0.230335 0.665342 0.619786 0.226307
O21   O     O_R   0.241397 0.763577 0.598015 -0.311998
O22   O     O_R   0.252037 0.638581 0.700019 -0.317185
N10   N     N_R   0.769761 0.334975 0.379891 0.224659
O23   O     O_R   0.748350 0.361987 0.299651 -0.315420
O24   O     O_R   0.758608 0.236673 0.401434 -0.313700

loop_
_geom_bond_atom_site_label_1
_geom_bond_atom_site_label_2
_geom_bond_distance
_ccdc_geom_bond_type
C20   H2    1.081834 S    
C3    C8    1.427301 S    
C17   C19   1.387757 A    
C22   C25   1.387413 A    
C29   C30   1.438153 A    
Zn2   N2    2.015720 S    
C18   N8    1.435832 S    
N9    O21   1.300802 A    
C27   C29   1.399593 A    
C37   C38   1.406288 A    
O5    C3    1.283206 A    
N2    C33   1.373247 A    
N8    O20   1.301386 A    
O1    C1    1.289182 A    
C33   N10   1.426583 S    
C23   C25   1.376375 A    
N10   O24   1.300816 A    
C5    C15   1.392796 A    
C35   H6    1.082784 S    
C23   Cl3   1.766058 S    
O4    Zn1   2.008158 S    
C23   C30   1.418768 A    
N4    O12   1.301196 A    
N6    O15   1.301182 A    
N5    O14   1.300797 A    
C4    C7    1.432543 S    
C13   C14   1.403614 A    
C36   H5    1.082286 S    
C28   C30   1.400127 A    
C11   C17   1.417200 A    
N3    O9    1.301017 A    
C12   C18   1.415637 A    
C24   C29   1.417962 A    
O2    C2    1.288978 A    
C6    N4    1.436054 S    
N9    O22   1.300102 A    
C36   C38   1.414141 A    
C6    C16   1.393257 A    
C32   C37   1.396296 A    
N3    O10   1.300631 A    
C21   C28   1.394717 A    
N8    O19   1.301244 A    
C22   C27   1.393494 A    
C27   Cl2   1.778188 S    
N10   O23   1.300112 A    
C31   C33   1.405307 A    
C24   Cl4   1.766007 S    
N7    O18   1.301309 A    
N1    C36   1.365503 A    
N2    C35   1.365707 A    
C35   C37   1.414263 A    
O7    Zn2   2.015078 S    
N4    O11   1.301156 A    
C31   H7    1.084055 S    
O5    Zn1   2.014221 S    
O6    C4    1.287203 A    
C1    C22   1.431122 S    
O7    C3    1.288242 A    
O3    Zn2   2.008158 S    
O8    C4    1.286356 A    
C31   C38   1.396237 A    
O4    C2    1.287010 A    
C10   C12   1.403652 A    
C11   C13   1.421921 A    
C12   C14   1.421905 A    
O1    Zn1   1.977188 S    
C17   N7    1.435174 S    
C15   C20   1.399097 A    
C5    C7    1.398428 A    
O6    Zn2   2.014222 S    
C9    C11   1.405364 A    
C5    N3    1.437694 S    
C10   N6    1.440123 S    
C14   C16   1.413958 A    
O3    C1    1.286261 A    
O8    Zn1   2.015078 S    
C32   H8    1.084037 S    
C21   C26   1.387566 A    
C2    C21   1.431936 S    
C25   H4    1.084626 S    
C24   C26   1.376486 A    
N7    O17   1.301271 A    
C19   H1    1.082641 S    
Zn1   N1    2.015720 S    
N1    C34   1.373299 A    
C32   C34   1.405382 A    
C7    C9    1.402835 A    
C18   C20   1.386140 A    
C9    N5    1.437546 S    
C8    C10   1.401744 A    
C13   C15   1.413925 A    
O2    Zn2   1.977188 S    
C26   H3    1.084511 S    
C16   C19   1.398496 A    
C6    C8    1.395920 A    
N5    O13   1.301097 A    
N6    O16   1.300845 A    
C28   Cl1   1.777900 S    
C34   N9    1.426646 S    
