data_mof_unit_41511.cif
_audit_creation_date              2012-12-11T14:23:00-0500
_audit_creation_method            fapswitch 2.2
_symmetry_space_group_name_H-M    P1
_symmetry_Int_Tables_number       1
_space_group_crystal_system       triclinic
_cell_length_a                    10.785201
_cell_length_b                    10.994019
_cell_length_c                    18.832618
_cell_angle_alpha                 90.437158
_cell_angle_beta                  90.306196
_cell_angle_gamma                 61.120473
_cell_volume                      1955.26751844

loop_
_atom_site_label
_atom_site_type_symbol
_atom_type_description
_atom_site_fract_x
_atom_site_fract_y
_atom_site_fract_z
_atom_type_partial_charge
C1    C     C_R   0.234974 0.644989 0.609511 0.526105
C2    C     C_3   0.727367 0.504436 0.805003 -0.235010
C3    C     C_3   0.687247 0.659002 0.816991 0.053486
C4    C     C_3   0.647220 0.616629 0.683899 0.040676
C5    C     C_3   0.747516 0.680306 0.688927 -0.226477
C6    C     C_3   0.712229 0.478492 0.725752 -0.234700
C7    C     C_R   0.721284 0.084745 0.812208 -0.003173
C8    C     C_R   0.819881 0.114483 0.776233 0.023588
C9    C     C_R   0.810722 0.127345 0.700908 0.019054
C10   C     C_R   0.602020 0.098472 0.700563 -0.154442
C11   C     C_R   0.617994 0.071868 0.772164 -0.161630
C12   C     C_R   0.627737 0.588267 0.608613 0.561585
C13   C     C_R   0.925305 0.134635 0.811138 -0.122719
C14   C     C_R   0.028321 0.147653 0.772597 -0.162875
C15   C     C_R   0.029294 0.140602 0.698940 -0.151002
C16   C     C_R   0.921785 0.130507 0.663259 -0.103405
C17   C     C_R   0.689599 0.138381 0.665487 -0.007447
C18   C     C_R   0.177083 0.673382 0.833465 -0.012073
C19   C     C_R   0.209415 0.546497 0.799863 0.016599
C20   C     C_R   0.202032 0.540955 0.724529 0.017825
C21   C     C_R   0.161036 0.778876 0.719437 -0.169259
C22   C     C_R   0.160873 0.785262 0.792404 -0.163778
C23   C     C_R   0.633107 0.220510 0.600245 0.545892
C24   C     C_R   0.250391 0.424777 0.839785 -0.079775
C25   C     C_R   0.272211 0.302610 0.806960 -0.120572
C26   C     C_R   0.251039 0.300271 0.734351 -0.131763
C27   C     C_R   0.212974 0.418391 0.693584 -0.083685
C28   C     C_R   0.185601 0.657492 0.683821 -0.016695
C29   C     C_R   0.659209 0.645081 0.165846 0.000593
C30   C     C_R   0.773858 0.546139 0.207301 0.012757
C31   C     C_R   0.777896 0.572619 0.279760 0.003822
C32   C     C_R   0.523817 0.720525 0.274552 -0.145522
C33   C     C_R   0.530258 0.722391 0.199890 -0.177307
C34   C     C_R   0.219415 0.648226 0.402742 0.529119
C35   C     C_R   0.889428 0.427267 0.177974 -0.085796
C36   C     C_R   0.020221 0.366142 0.212197 0.227789
C37   C     C_R   0.028022 0.407662 0.281242 -0.073911
C38   C     C_R   0.909280 0.510131 0.314907 -0.136967
C39   C     C_R   0.649314 0.651297 0.315476 0.004332
C40   C     C_R   0.656286 0.119979 0.181858 0.017913
C41   C     C_R   0.552451 0.107899 0.222836 0.020907
C42   C     C_R   0.508972 0.180422 0.287300 0.039632
C43   C     C_R   0.677119 0.268823 0.269759 -0.167370
C44   C     C_R   0.709297 0.207820 0.203562 -0.134316
C45   C     C_R   0.640373 0.621027 0.390925 0.537253
C46   C     C_R   0.485695 0.030468 0.199772 -0.078595
C47   C     C_R   0.373226 0.032599 0.236000 -0.063128
C48   C     C_R   0.329099 0.103393 0.298571 -0.091449
C49   C     C_R   0.390306 0.181018 0.322213 -0.082361
C50   C     C_R   0.586691 0.247777 0.313931 0.003901
C51   C     C_R   0.122102 0.700787 0.189692 0.002866
C52   C     C_R   0.079609 0.819324 0.236296 0.029946
C53   C     C_R   0.070954 0.799653 0.309105 0.023050
C54   C     C_R   0.209576 0.551375 0.288975 -0.156972
C55   C     C_R   0.185848 0.567954 0.217166 -0.146416
C56   C     C_R   0.577505 0.292501 0.387533 0.560693
C57   C     C_R   0.055276 0.953496 0.215785 -0.099369
C58   C     C_R   0.009223 0.061965 0.264851 -0.152116
C59   C     C_R   0.978061 0.044583 0.333894 -0.112707
C60   C     C_R   0.005083 0.914389 0.355837 -0.076129
C61   C     C_R   0.150987 0.665846 0.335115 -0.006152
C62   C     C_R   0.726488 0.048124 0.888091 0.559069
C63   C     C_R   0.718310 0.683900 0.890689 0.533587
C64   C     C_R   0.118987 0.706690 0.905770 0.531438
C65   C     C_R   0.694671 0.055889 0.112412 0.550332
C66   C     C_R   0.693621 0.684823 0.095825 0.527819
C67   C     C_3   0.528989 0.749432 0.797064 -0.240310
C68   C     C_R   0.084949 0.717205 0.115119 0.545737
C69   C     C_3   0.504362 0.717908 0.719855 -0.234811
C70   C     C_3   0.780009 0.693867 0.767119 -0.227356
Cr1   Cr    Cr6+3 0.392940 0.397950 0.502230 0.977317
Cr2   Cr    Cr6+3 0.398400 0.708500 0.501260 0.997700
Cr3   Cr    Cr6+3 0.708640 0.393530 0.496460 0.980866
Cr4   Cr    Cr6+3 0.937880 0.938320 0.007620 0.987244
Cr5   Cr    Cr6+3 0.625560 0.937220 0.994510 0.993335
Cr6   Cr    Cr6+3 0.938080 0.625010 0.001190 1.006186
H1    H     H_    0.496527 0.861473 0.802276 0.119618
H2    H     H_    0.818424 0.407126 0.703913 0.164439
H3    H     H_    0.894201 0.621798 0.777601 0.144678
H4    H     H_    0.848789 0.614272 0.660600 0.138003
H5    H     H_    0.515037 0.095176 0.673331 0.135292
H6    H     H_    0.931684 0.142382 0.867709 0.152659
H7    H     H_    0.545876 0.042726 0.796675 0.129216
H8    H     H_    0.110167 0.158774 0.800392 0.111964
H9    H     H_    0.112879 0.142819 0.668749 0.103799
H10   H     H_    0.929274 0.120973 0.606090 0.135789
H11   H     H_    0.152517 0.867046 0.690724 0.159492
H12   H     H_    0.461450 0.727791 0.833699 0.121020
H13   H     H_    0.269885 0.422028 0.896318 0.134142
H14   H     H_    0.144629 0.880648 0.817019 0.157236
H15   H     H_    0.304224 0.209820 0.838134 0.108177
H16   H     H_    0.267192 0.205269 0.709276 0.090226
H17   H     H_    0.188990 0.411773 0.638533 0.141209
H18   H     H_    0.421239 0.773204 0.300083 0.152427
H19   H     H_    0.880529 0.386481 0.126786 0.115911
H20   H     H_    0.436402 0.781426 0.168268 0.110169
H21   H     H_    0.125106 0.360889 0.309947 0.114800
H22   H     H_    0.436469 0.668001 0.720016 0.135510
H23   H     H_    0.921099 0.539780 0.368435 0.137485
H24   H     H_    0.727129 0.328647 0.287607 0.133848
H25   H     H_    0.514984 0.969443 0.152983 0.167844
H26   H     H_    0.779834 0.226102 0.170076 0.130124
H27   H     H_    0.314511 0.984766 0.214245 0.117880
H28   H     H_    0.239711 0.106812 0.326293 0.110200
H29   H     H_    0.330784 0.248318 0.365266 0.135436
H30   H     H_    0.280321 0.449234 0.308055 0.132014
H31   H     H_    0.081298 0.977829 0.164697 0.154369
H32   H     H_    0.225357 0.477421 0.182790 0.174184
H33   H     H_    0.448101 0.817251 0.690216 0.136264
H34   H     H_    0.993289 0.161524 0.248642 0.137350
H35   H     H_    0.939528 0.130393 0.371087 0.142180
H36   H     H_    0.987185 0.900753 0.411078 0.121207
H37   H     H_    0.762802 0.800106 0.777593 0.118842
H38   H     H_    0.697088 0.784422 0.663531 0.131265
H39   H     H_    0.838486 0.434185 0.821663 0.152163
H40   H     H_    0.657727 0.477910 0.837329 0.122733
H41   H     H_    0.645026 0.427687 0.719910 0.122544
O1    O     O_R   0.507340 0.255690 0.581430 -0.516169
O2    O     O_R   0.524510 0.695820 0.424050 -0.493602
O3    O     O_R   0.736370 0.504260 0.414810 -0.534777
O4    O     O_R   0.691220 0.277270 0.422180 -0.508459
O5    O     O_3   0.499990 0.499990 0.499980 -0.273296
O6    O     O_R   0.089570 0.825450 0.930590 -0.534762
O7    O     O_R   0.818700 0.054260 0.929860 -0.511529
O8    O     O_R   0.606310 0.077010 0.915520 -0.517278
O9    O     O_R   0.646730 0.806540 0.917560 -0.523344
O10   O     O_R   0.837290 0.593240 0.915240 -0.524589
O11   O     O_R   0.065320 0.635310 0.931580 -0.503016
O12   O     O_R   0.280360 0.527380 0.578910 -0.514133
O13   O     O_R   0.068470 0.828620 0.091850 -0.551867
O14   O     O_R   0.799150 0.057200 0.079350 -0.505368
O15   O     O_R   0.585220 0.080180 0.076770 -0.516751
O16   O     O_R   0.627170 0.809480 0.067050 -0.532989
O17   O     O_R   0.816200 0.596410 0.076500 -0.520046
O18   O     O_R   0.045770 0.638240 0.081070 -0.485129
O19   O     O_3   0.833840 0.833520 0.001110 -0.267844
O20   O     O_R   0.260600 0.739610 0.584580 -0.534449
O21   O     O_R   0.532370 0.695050 0.573830 -0.502887
O22   O     O_R   0.744850 0.503430 0.576380 -0.528435
O23   O     O_R   0.699080 0.276500 0.571950 -0.522962
O24   O     O_R   0.498860 0.256520 0.419860 -0.539817
O25   O     O_R   0.272490 0.528150 0.429140 -0.536722
O26   O     O_R   0.252110 0.740440 0.423010 -0.517221
O27   O     O_3   0.140973 0.267658 0.179120 -0.728052
H42   H     H_    0.117001 0.250897 0.130401 0.311309

loop_
_geom_bond_atom_site_label_1
_geom_bond_atom_site_label_2
_ccdc_geom_bond_type
Cr2   O26   S    
Cr4   O7    S    
C21   H11   S    
C8    C13   A    
C5    H38   S    
C41   C42   A    
C54   C55   A    
Cr1   O5    S    
C32   H18   S    
C35   C36   A    
C67   H1    S    
C14   H8    S    
C24   H13   S    
C23   O1    A    
C37   H21   S    
Cr6   O19   S    
C7    C8    A    
Cr5   O15   S    
C7    C11   A    
C26   C27   A    
C17   C23   S    
C30   C35   A    
C21   C22   A    
C36   C37   A    
C9    C16   A    
C1    O12   A    
C30   C31   A    
C6    H2    S    
C10   C17   A    
C26   H16   S    
C15   C16   A    
C48   H28   S    
C29   C33   A    
C18   C19   A    
C32   C39   A    
C66   O17   A    
C2    H40   S    
Cr6   O18   S    
C34   O25   A    
C19   C20   A    
C8    C9    A    
C64   O11   A    
Cr4   O19   S    
C1    C28   S    
C59   H35   S    
C41   C46   A    
C4    C12   S    
C6    H41   S    
C39   C45   S    
C69   H22   S    
C45   O2    A    
Cr2   O21   S    
Cr4   O6    S    
C59   C60   A    
Cr3   O3    S    
C18   C22   A    
C13   C14   A    
C16   H10   S    
C2    C6    S    
C69   H33   S    
C62   O7    A    
C4    C69   S    
C65   O14   A    
C53   C60   A    
C54   C61   A    
C70   H37   S    
Cr1   O24   S    
C46   H25   S    
C34   O26   A    
C25   H15   S    
C47   H27   S    
C54   H30   S    
C51   C52   A    
C23   O23   A    
C3    C70   S    
C43   H24   S    
C4    C6    S    
C10   C11   A    
C44   H26   S    
Cr5   O19   S    
O27   H42   S    
C49   H29   S    
C20   C28   A    
C11   H7    S    
C58   C59   A    
C13   H6    S    
C34   C61   S    
C50   C56   S    
Cr5   O8    S    
C37   C38   A    
C43   C44   A    
C7    C62   S    
C29   C30   A    
C60   H36   S    
Cr1   O12   S    
C66   O16   A    
C2    H39   S    
C47   C48   A    
C40   C44   A    
C22   H14   S    
C12   O22   A    
C24   C25   A    
C5    H4    S    
C68   O13   A    
C42   C50   A    
Cr1   O25   S    
C56   O24   A    
C45   O3    A    
C9    C17   A    
C40   C41   A    
Cr3   O23   S    
C21   C28   A    
Cr3   O4    S    
C40   C65   S    
Cr4   O13   S    
Cr6   O11   S    
C12   O21   A    
C27   H17   S    
C53   C61   A    
C33   H20   S    
C65   O15   A    
C1    O20   A    
C52   C53   A    
C46   C47   A    
Cr2   O20   S    
Cr6   O17   S    
Cr1   O1    S    
Cr2   O5    S    
C70   H3    S    
C58   H34   S    
C68   O18   A    
C3    C67   S    
C38   H23   S    
C5    C70   S    
C62   O8    A    
Cr5   O16   S    
C43   C50   A    
C67   H12   S    
C20   C27   A    
C3    C63   S    
C64   O6    A    
Cr3   O22   S    
C10   H5    S    
C31   C38   A    
C15   H9    S    
C55   H32   S    
Cr5   O9    S    
C32   C33   A    
C19   C24   A    
C25   C26   A    
C56   O4    A    
C18   C64   S    
C57   C58   A    
C48   C49   A    
Cr2   O2    S    
C31   C39   A    
C2    C3    S    
C51   C55   A    
C51   C68   S    
C36   O27   S    
C63   O9    A    
C52   C57   A    
C42   C49   A    
C29   C66   S    
C4    C5    S    
Cr3   O5    S    
C57   H31   S    
Cr6   O10   S    
C14   C15   A    
C67   C69   S    
Cr4   O14   S    
C63   O10   A    
C35   H19   S    
