data_mof_unit_57641.cif
_audit_creation_date              2012-12-11T14:56:25-0500
_audit_creation_method            fapswitch 2.2
_symmetry_space_group_name_H-M    P1
_symmetry_Int_Tables_number       1
_space_group_crystal_system       triclinic
_cell_length_a                    10.60942
_cell_length_b                    10.673927
_cell_length_c                    17.142252
_cell_angle_alpha                 80.53949
_cell_angle_beta                  89.940119
_cell_angle_gamma                 119.65987
_cell_volume                      1656.26635305

loop_
_atom_site_label
_atom_site_type_symbol
_atom_type_description
_atom_site_fract_x
_atom_site_fract_y
_atom_site_fract_z
_atom_type_partial_charge
C1    C     C_R   0.224762 0.855492 0.129136 0.530675
C2    C     C_R   0.797120 0.439405 0.261751 -0.110805
C3    C     C_R   0.787520 0.421839 0.183456 0.115032
C4    C     C_R   0.649496 0.336811 0.158619 0.056228
C5    C     C_1   0.636492 0.871422 0.211210 -0.038020
C6    C     C_1   0.662575 0.855151 0.278835 -0.037570
C7    C     C_1   0.182368 0.826691 0.211564 -0.060199
C8    C     C_1   0.152280 0.820284 0.280003 -0.052012
C9    C     C_1   0.644055 0.323203 0.778098 -0.029214
C10   C     C_1   0.651705 0.345572 0.707560 -0.029275
C11   C     C_R   0.527428 0.762106 0.780884 -0.124053
C12   C     C_R   0.636091 0.278739 0.086816 0.562817
C13   C     C_R   0.527040 0.759895 0.701484 -0.135636
C14   C     C_R   0.654267 0.854394 0.651840 0.030935
C15   C     C_R   0.773700 0.968436 0.679812 -0.129426
C16   C     C_R   0.771838 0.974594 0.760054 -0.143399
C17   C     C_R   0.651055 0.866324 0.811409 0.032263
C18   C     C_R   0.100116 0.900020 0.786856 -0.132836
C19   C     C_R   0.089072 0.899060 0.707301 -0.125755
C20   C     C_R   0.116956 0.804427 0.671956 0.034044
C21   C     C_R   0.145500 0.702596 0.718801 -0.137493
C22   C     C_R   0.160345 0.706243 0.799066 -0.128423
C23   C     C_R   0.602283 0.881840 0.131166 0.561754
C24   C     C_R   0.146732 0.811831 0.831757 0.031908
C25   C     C_R   0.683748 0.812874 0.358360 0.550273
C26   C     C_R   0.688826 0.395637 0.395075 0.545872
C27   C     C_R   0.103831 0.810404 0.359208 0.549998
C28   C     C_R   0.675343 0.806575 0.581549 0.545352
C29   C     C_R   0.679216 0.383153 0.624515 0.553512
C30   C     C_R   0.089682 0.798905 0.589648 0.549311
C31   C     C_R   0.215478 0.857488 0.902677 0.552571
C32   C     C_R   0.637232 0.283990 0.860890 0.554836
C33   C     C_R   0.636937 0.871547 0.894403 0.560437
C34   C     C_R   0.522522 0.281062 0.210463 -0.162187
C35   C     C_R   0.533458 0.298236 0.288817 -0.151727
C36   C     C_R   0.671034 0.371103 0.315080 0.012793
Cr1   Cr    Cr6+3 0.402240 0.783890 0.019450 1.003592
Cr2   Cr    Cr6+3 0.382360 0.097900 0.991800 1.019354
Cr3   Cr    Cr6+3 0.715380 0.118170 0.988700 1.027183
Cr4   Cr    Cr6+3 0.936650 0.882420 0.465510 1.021561
Cr5   Cr    Cr6+3 0.605770 0.565620 0.493360 1.029986
Cr6   Cr    Cr6+3 0.921340 0.550490 0.496380 1.022418
H1    H     H_    0.414899 0.215416 0.192187 0.151047
H2    H     H_    0.159319 0.623409 0.693191 0.120532
H3    H     H_    0.435784 0.251165 0.329201 0.136392
H4    H     H_    0.429719 0.680006 0.818315 0.135741
H5    H     H_    0.432146 0.673788 0.680876 0.130469
H6    H     H_    0.871952 0.045445 0.641157 0.126595
H7    H     H_    0.865075 0.060000 0.782066 0.123004
H8    H     H_    0.084012 0.978944 0.811411 0.132869
O1    O     O_R   0.521780 0.757110 0.108900 -0.498966
O2    O     O_R   0.513330 0.228330 0.898660 -0.495015
O3    O     O_R   0.739230 0.266130 0.888050 -0.511176
O4    O     O_R   0.712580 0.991850 0.918770 -0.498424
O5    O     O_3   0.499990 0.999980 0.999980 -0.276206
O6    O     O_R   0.083770 0.911170 0.376030 -0.507323
O7    O     O_R   0.808770 0.880340 0.383890 -0.496098
O8    O     O_R   0.584340 0.689460 0.394160 -0.508267
O9    O     O_R   0.614320 0.443940 0.423590 -0.496607
O10   O     O_R   0.805020 0.410040 0.421340 -0.524468
O11   O     O_R   0.049240 0.685450 0.403290 -0.503974
O12   O     O_R   0.275160 0.783810 0.101120 -0.522017
O13   O     O_R   0.077520 0.903010 0.551800 -0.527655
O14   O     O_R   0.802980 0.872780 0.546830 -0.512099
O15   O     O_R   0.578090 0.681300 0.569920 -0.521733
O16   O     O_R   0.608530 0.436370 0.586530 -0.496392
O17   O     O_R   0.798770 0.401880 0.597100 -0.512092
O18   O     O_R   0.043450 0.677890 0.566230 -0.502661
O19   O     O_3   0.821250 0.666180 0.485090 -0.255541
O20   O     O_R   0.237900 0.972600 0.090980 -0.508719
O21   O     O_R   0.511190 0.220540 0.061620 -0.520819
O22   O     O_R   0.736920 0.257720 0.063840 -0.494766
O23   O     O_R   0.710450 0.984050 0.081720 -0.493844
O24   O     O_R   0.524090 0.765520 0.933110 -0.524085
O25   O     O_R   0.277300 0.791600 0.938160 -0.511356
O26   O     O_R   0.240210 0.981010 0.915190 -0.516803
H9    H     H_    0.058644 0.973439 0.673606 0.136078
H10   H     H_    0.190841 0.633182 0.834125 0.121791
H11   H     H_    0.903552 0.506290 0.281017 0.139819
N1    N     N_2   0.915453 0.489718 0.129582 -0.498526
H12   H     H_    0.965086 0.602523 0.118194 0.253075
C37   C     C_3   0.016992 0.437958 0.147799 -0.255658
H13   H     H_    0.101928 0.482560 0.097082 0.157940
H14   H     H_    0.070985 0.475437 0.201598 0.129678
H15   H     H_    0.959951 0.316111 0.157501 0.169584

loop_
_geom_bond_atom_site_label_1
_geom_bond_atom_site_label_2
_ccdc_geom_bond_type
Cr1   O24   S    
Cr2   O20   S    
C19   C20   A    
C1    O12   A    
Cr1   O12   S    
C7    C8    T    
Cr2   O26   S    
Cr4   O13   S    
C25   O7    A    
C18   C24   A    
Cr3   O4    S    
Cr5   O8    S    
C18   C19   A    
C5    C6    T    
Cr1   O1    S    
C6    C25   S    
Cr2   O2    S    
C15   C16   A    
C34   C35   A    
C19   H9    S    
C32   O2    A    
C2    H11   S    
C27   O11   A    
C9    C32   S    
C29   O17   A    
C23   O1    A    
Cr3   O5    S    
Cr2   O5    S    
C35   C36   A    
C16   C17   A    
Cr4   O6    S    
Cr3   O22   S    
C13   C14   A    
C4    C12   S    
C26   O9    A    
C12   O22   A    
C21   C22   A    
Cr6   O18   S    
C17   C33   S    
C15   H6    S    
C23   O23   A    
C3    N1    S    
C4    C34   A    
Cr4   O19   S    
C16   H7    S    
C22   H10   S    
N1    C37   S    
Cr6   O10   S    
C13   H5    S    
C27   O6    A    
Cr5   O15   S    
Cr6   O19   S    
C21   H2    S    
C31   O25   A    
C5    C23   S    
Cr6   O11   S    
Cr5   O9    S    
C28   O14   A    
C26   C36   S    
C12   O21   A    
C37   H14   S    
Cr6   O17   S    
C22   C24   A    
C25   O8    A    
C3    C4    A    
C35   H3    S    
C32   O3    A    
C18   H8    S    
Cr5   O19   S    
C9    C10   T    
C2    C36   A    
C33   O4    A    
Cr2   O21   S    
C11   C17   A    
Cr4   O7    S    
C1    C7    S    
C34   H1    S    
N1    H12   S    
Cr5   O16   S    
C37   H15   S    
C1    O20   A    
Cr4   O14   S    
C28   O15   A    
C24   C31   S    
C20   C30   S    
C11   C13   A    
C10   C29   S    
C31   O26   A    
Cr3   O3    S    
C2    C3    A    
Cr3   O23   S    
Cr1   O25   S    
C29   O16   A    
Cr1   O5    S    
C33   O24   A    
C20   C21   A    
C37   H13   S    
C8    C27   S    
C14   C15   A    
C11   H4    S    
C14   C28   S    
C30   O13   A    
C26   O10   A    
C30   O18   A    
