data_mof_unit_21091.cif
_audit_creation_date              2012-12-11T14:01:11-0500
_audit_creation_method            fapswitch 2.2
_symmetry_space_group_name_H-M    P1
_symmetry_Int_Tables_number       1
_space_group_crystal_system       triclinic
_cell_length_a                    19.141879
_cell_length_b                    10.872208
_cell_length_c                    18.744124
_cell_angle_alpha                 90.111206
_cell_angle_beta                  90.130995
_cell_angle_gamma                 89.949532
_cell_volume                      3900.90476567

loop_
_atom_site_label
_atom_site_type_symbol
_atom_type_description
_atom_site_fract_x
_atom_site_fract_y
_atom_site_fract_z
_atom_type_partial_charge
C1    C     C_R   0.271788 0.043623 0.853523 0.565989
C2    C     C_R   0.727770 0.044444 0.147929 0.580535
C3    C     C_R   0.771788 0.543624 0.853522 0.566002
C4    C     C_R   0.227768 0.544439 0.147926 0.580534
C5    C     C_R   0.493776 0.069759 0.068061 0.111699
C6    C     C_R   0.520528 0.068283 0.920557 0.112971
C7    C     C_R   0.993779 0.569759 0.068060 0.111695
C8    C     C_R   0.020529 0.568286 0.920555 0.112971
C9    C     C_R   0.999188 0.679415 0.029613 -0.150903
C10   C     C_R   0.013742 0.678769 0.957623 -0.135032
C11   C     C_R   0.499185 0.179414 0.029614 -0.150905
C12   C     C_R   0.513739 0.178767 0.957624 -0.135038
C13   C     C_2   0.253403 0.574115 0.919110 0.025351
C14   C     C_2   0.750815 0.563130 0.081514 -0.026118
C15   C     C_2   0.753399 0.074096 0.919101 0.025365
C16   C     C_2   0.250816 0.063129 0.081514 -0.026099
C17   C     C_2   0.252656 0.600636 0.083253 -0.068803
C18   C     C_2   0.747436 0.587152 0.923923 -0.111416
C19   C     C_2   0.752662 0.100654 0.083261 -0.068795
C20   C     C_2   0.247435 0.087151 0.923923 -0.111424
C21   C     C_2   0.297614 0.543880 0.039832 0.061892
C22   C     C_2   0.696597 0.526096 0.960553 0.110813
C23   C     C_2   0.797600 0.043882 0.039828 0.061887
C24   C     C_2   0.196596 0.026094 0.960554 0.110812
C25   C     C_2   0.304098 0.593348 0.968444 0.078151
C26   C     C_2   0.695712 0.522673 0.041248 0.119434
C27   C     C_2   0.804081 0.093361 0.968442 0.078156
C28   C     C_2   0.195712 0.022672 0.041249 0.119441
C29   C     C_2   0.499219 0.833042 0.577060 -0.061003
C30   C     C_2   0.496503 0.833629 0.420821 -0.066896
C31   C     C_2   0.999226 0.333044 0.577063 -0.060959
C32   C     C_2   0.996506 0.333630 0.420823 -0.066895
C33   C     C_2   0.489298 0.730840 0.460323 0.075530
C34   C     C_2   0.505794 0.730458 0.537174 0.074305
C35   C     C_2   0.989303 0.230841 0.460326 0.075522
C36   C     C_2   0.005801 0.230461 0.537177 0.074298
C37   C     C_2   0.242233 0.546952 0.591133 -0.047466
C38   C     C_2   0.757027 0.547070 0.409025 -0.063823
C39   C     C_2   0.742243 0.046961 0.591126 -0.047459
C40   C     C_2   0.257025 0.047072 0.409026 -0.063823
C41   C     C_2   0.223999 0.537461 0.432254 0.104986
C42   C     C_2   0.775924 0.537233 0.567567 0.105983
C43   C     C_2   0.723996 0.037463 0.432254 0.104992
C44   C     C_2   0.275924 0.037237 0.567567 0.105979
C45   C     C_R   0.473956 0.823728 0.851466 0.590066
C46   C     C_R   0.530469 0.823352 0.144933 0.580073
C47   C     C_R   0.973956 0.323728 0.851466 0.590066
C48   C     C_R   0.030471 0.323352 0.144932 0.580075
C49   C     C_2   0.179750 0.498797 0.483283 -0.161134
C50   C     C_2   0.819510 0.496127 0.516355 -0.150073
C51   C     C_2   0.679753 0.998783 0.483285 -0.161133
C52   C     C_2   0.319506 0.996120 0.516354 -0.150082
C53   C     C_2   0.181815 0.551046 0.555053 0.073573
C54   C     C_2   0.818134 0.546496 0.443978 0.078300
C55   C     C_2   0.681819 0.051023 0.555058 0.073560
C56   C     C_2   0.318132 0.046490 0.443978 0.078297
C57   C     C_R   0.261002 0.633603 0.850190 0.593519
C58   C     C_R   0.738900 0.633245 0.148626 0.562793
C59   C     C_R   0.760999 0.133594 0.850185 0.593527
C60   C     C_R   0.238900 0.133244 0.148627 0.562806
C61   C     C_R   0.290369 0.000331 0.639658 0.595683
C62   C     C_R   0.709544 0.000241 0.360267 0.599728
C63   C     C_R   0.790369 0.500331 0.639658 0.595680
C64   C     C_R   0.209545 0.500242 0.360267 0.599729
C65   C     C_R   0.471894 0.823785 0.648639 0.570712
C66   C     C_R   0.527336 0.824001 0.350713 0.567745
C67   C     C_R   0.971895 0.323785 0.648640 0.570722
C68   C     C_R   0.027337 0.324001 0.350714 0.567748
C69   C     C_R   0.259220 0.631142 0.648912 0.551410
C70   C     C_R   0.740789 0.630966 0.350958 0.547712
C71   C     C_R   0.759221 0.131144 0.648910 0.551415
C72   C     C_R   0.240789 0.130966 0.350959 0.547713
C73   C     C_R   0.511695 0.836316 0.069094 0.005047
C74   C     C_R   0.511359 0.839040 0.919561 0.019874
C75   C     C_R   0.011700 0.336317 0.069092 0.005066
C76   C     C_R   0.011361 0.339042 0.919560 0.019875
C77   C     C_R   0.505229 0.953221 0.033000 0.028371
C78   C     C_R   0.512038 0.953735 0.956799 0.033213
C79   C     C_R   0.005233 0.453222 0.032998 0.028373
C80   C     C_R   0.012041 0.453737 0.956797 0.033218
C81   C     C_R   0.525296 0.731153 0.956087 -0.180075
C82   C     C_R   0.522693 0.728889 0.028991 -0.175080
C83   C     C_R   0.025301 0.231156 0.956085 -0.180094
C84   C     C_R   0.022702 0.228892 0.028989 -0.175074
Cr1   Cr    Cr6+3 0.230530 0.836340 0.748870 1.050549
Cr2   Cr    Cr6+3 0.769470 0.836340 0.251130 1.056609
Cr3   Cr    Cr6+3 0.730530 0.336340 0.748870 1.050559
Cr4   Cr    Cr6+3 0.269470 0.336340 0.251130 1.056606
Cr5   Cr    Cr6+3 0.387420 0.989430 0.750820 1.020564
Cr6   Cr    Cr6+3 0.612580 0.989430 0.249180 1.009439
Cr7   Cr    Cr6+3 0.887420 0.489430 0.750820 1.020568
Cr8   Cr    Cr6+3 0.112580 0.489430 0.249180 1.009437
Cr9   Cr    Cr6+3 0.385640 0.677860 0.749230 1.031956
Cr10  Cr    Cr6+3 0.614360 0.677860 0.250770 1.027634
Cr11  Cr    Cr6+3 0.885640 0.177860 0.749230 1.031965
Cr12  Cr    Cr6+3 0.114360 0.177860 0.250770 1.027644
H1    H     H_    0.529554 0.644209 0.928216 0.129716
H2    H     H_    0.530324 0.640072 0.053878 0.178020
H3    H     H_    0.029555 0.144211 0.928214 0.129731
H4    H     H_    0.030336 0.140076 0.053876 0.178033
H5    H     H_    0.136414 0.438486 0.469710 0.093002
H6    H     H_    0.861824 0.433681 0.529999 0.086798
H7    H     H_    0.636425 0.938457 0.469713 0.093000
H8    H     H_    0.361814 0.933662 0.529997 0.086800
H9    H     H_    0.284042 0.487420 0.572282 0.077178
H10   H     H_    0.714087 0.491537 0.428996 0.075489
H11   H     H_    0.784060 0.987457 0.572267 0.077178
H12   H     H_    0.214083 0.991544 0.428999 0.075482
H13   H     H_    0.991731 0.766954 0.056278 0.114372
H14   H     H_    0.019792 0.765490 0.929995 0.118096
H15   H     H_    0.491728 0.266953 0.056278 0.114365
H16   H     H_    0.519790 0.265487 0.929995 0.118083
H17   H     H_    0.225566 0.682977 0.064968 0.078463
H18   H     H_    0.780527 0.653621 0.950642 0.073724
H19   H     H_    0.725582 0.183012 0.064987 0.078449
H20   H     H_    0.280526 0.153619 0.950643 0.073744
H21   H     H_    0.501738 0.923899 0.444319 0.041609
H22   H     H_    0.491794 0.922623 0.553560 0.034239
H23   H     H_    0.001740 0.423900 0.444321 0.041601
H24   H     H_    0.991802 0.422624 0.553562 0.034229
O1    O     O_R   0.215090 0.709860 0.828130 -0.511638
O2    O     O_R   0.784910 0.709860 0.171870 -0.506266
O3    O     O_R   0.715090 0.209860 0.828130 -0.511634
O4    O     O_R   0.284910 0.209860 0.171870 -0.506258
O5    O     O_R   0.445660 0.919250 0.676780 -0.532162
O6    O     O_R   0.554340 0.919250 0.323220 -0.533175
O7    O     O_R   0.945660 0.419250 0.676780 -0.532158
O8    O     O_R   0.054340 0.419250 0.323220 -0.533174
O9    O     O_R   0.456260 0.718170 0.670000 -0.473299
O10   O     O_R   0.543740 0.718170 0.330000 -0.469094
O11   O     O_R   0.956260 0.218170 0.670000 -0.473310
O12   O     O_R   0.043740 0.218170 0.330000 -0.469092
O13   O     O_R   0.320940 0.626760 0.674370 -0.524739
O14   O     O_R   0.679060 0.626760 0.325630 -0.521426
O15   O     O_R   0.820940 0.126760 0.674370 -0.524748
O16   O     O_R   0.179060 0.126760 0.325630 -0.521428
O17   O     O_3   0.334530 0.834540 0.749640 -0.284134
O18   O     O_3   0.665470 0.834540 0.250360 -0.287738
O19   O     O_3   0.834530 0.334540 0.749640 -0.284136
O20   O     O_3   0.165470 0.334540 0.250360 -0.287739
O21   O     O_R   0.236990 0.958390 0.823710 -0.458347
O22   O     O_R   0.763010 0.958390 0.176290 -0.444792
O23   O     O_R   0.736990 0.458390 0.823710 -0.458327
O24   O     O_R   0.263010 0.458390 0.176290 -0.444789
O25   O     O_R   0.332380 0.074750 0.830850 -0.516353
O26   O     O_R   0.667620 0.074750 0.169150 -0.534387
O27   O     O_R   0.832380 0.574750 0.830850 -0.516356
O28   O     O_R   0.167620 0.574750 0.169150 -0.534389
O29   O     O_R   0.445800 0.917770 0.825070 -0.471782
O30   O     O_R   0.554200 0.917770 0.174930 -0.469981
O31   O     O_R   0.945800 0.417770 0.825070 -0.471782
O32   O     O_R   0.054200 0.417770 0.174930 -0.469985
O33   O     O_R   0.456410 0.716580 0.829970 -0.512765
O34   O     O_R   0.543590 0.716580 0.170030 -0.513447
O35   O     O_R   0.956410 0.216580 0.829970 -0.512760
O36   O     O_R   0.043590 0.216580 0.170030 -0.513437
O37   O     O_R   0.321080 0.625290 0.822650 -0.470260
O38   O     O_R   0.678920 0.625290 0.177350 -0.490815
O39   O     O_R   0.821080 0.125290 0.822650 -0.470252
O40   O     O_R   0.178920 0.125290 0.177350 -0.490812
O41   O     O_R   0.214930 0.711450 0.668160 -0.477158
O42   O     O_R   0.785070 0.711450 0.331840 -0.478926
O43   O     O_R   0.714930 0.211450 0.668160 -0.477155
O44   O     O_R   0.285070 0.211450 0.331840 -0.478927
O45   O     O_R   0.236850 0.959870 0.675420 -0.476673
O46   O     O_R   0.763150 0.959870 0.324580 -0.470868
O47   O     O_R   0.736850 0.459870 0.675420 -0.476668
O48   O     O_R   0.263150 0.459870 0.324580 -0.470861
O49   O     O_R   0.332230 0.076350 0.670880 -0.501837
O50   O     O_R   0.667770 0.076350 0.329120 -0.507251
O51   O     O_R   0.832230 0.576350 0.670880 -0.501843
O52   O     O_R   0.167770 0.576350 0.329120 -0.507261
N1    N     N_3   0.122340 0.617668 0.581054 -0.577320
H25   H     H_    0.080467 0.556661 0.583959 0.224497
H26   H     H_    0.109594 0.685174 0.543548 0.231476
N2    N     N_3   0.879661 0.603464 0.415129 -0.577807
H27   H     H_    0.919556 0.602454 0.453328 0.219745
H28   H     H_    0.896648 0.548915 0.372557 0.236152
N3    N     N_3   0.622332 0.117586 0.581079 -0.577364
H29   H     H_    0.580496 0.056521 0.584040 0.224526
H30   H     H_    0.609524 0.185028 0.543564 0.231480
N4    N     N_3   0.379660 0.103454 0.415129 -0.577809
H31   H     H_    0.419555 0.102441 0.453327 0.219748
H32   H     H_    0.396646 0.048904 0.372557 0.236151
N5    N     N_3   0.275172 0.632633 0.443240 -0.600159
H33   H     H_    0.251396 0.708837 0.467198 0.233163
H34   H     H_    0.314690 0.599928 0.476430 0.213902
N6    N     N_3   0.725880 0.634388 0.556747 -0.598904
H35   H     H_    0.750019 0.708503 0.531270 0.241546
H36   H     H_    0.684856 0.602187 0.525282 0.213212
N7    N     N_3   0.775154 0.132661 0.443236 -0.600161
H37   H     H_    0.751369 0.208849 0.467201 0.233176
H38   H     H_    0.814685 0.099974 0.476416 0.213907
N8    N     N_3   0.225891 0.134408 0.556749 -0.598905
H39   H     H_    0.250039 0.208516 0.531275 0.241549
H40   H     H_    0.184864 0.102226 0.525282 0.213213
N9    N     N_3   0.472177 0.080702 0.141144 -0.603987
H41   H     H_    0.427032 0.134389 0.144027 0.225733
H42   H     H_    0.510491 0.131339 0.168166 0.246872
N10   N     N_3   0.542596 0.074135 0.847509 -0.610735
H43   H     H_    0.589049 0.124208 0.845325 0.241325
H44   H     H_    0.505482 0.125250 0.819161 0.243003
N11   N     N_3   0.972179 0.580703 0.141143 -0.603983
H45   H     H_    0.927035 0.634390 0.144026 0.225734
H46   H     H_    0.010493 0.631339 0.168166 0.246874
N12   N     N_3   0.042592 0.574141 0.847506 -0.610730
H47   H     H_    0.089042 0.624221 0.845318 0.241322
H48   H     H_    0.005475 0.625252 0.819161 0.243005
N13   N     N_3   0.335115 0.434415 0.059293 -0.579438
H49   H     H_    0.322117 0.365180 0.022863 0.218980
H50   H     H_    0.388472 0.452258 0.053843 0.216131
N14   N     N_3   0.642189 0.462800 0.921166 -0.577373
H51   H     H_    0.597002 0.455040 0.951687 0.214140
H52   H     H_    0.625684 0.520530 0.879817 0.225565
N15   N     N_3   0.835081 0.934388 0.059272 -0.579388
H53   H     H_    0.821986 0.865121 0.022890 0.218985
H54   H     H_    0.888443 0.952148 0.053721 0.216106
N16   N     N_3   0.142188 0.962795 0.921171 -0.577392
H55   H     H_    0.096997 0.955078 0.951685 0.214131
H56   H     H_    0.125694 0.020503 0.879808 0.225582
N17   N     N_3   0.362862 0.670580 0.954133 -0.579674
H57   H     H_    0.364232 0.740505 0.992504 0.218157
H58   H     H_    0.406916 0.615384 0.961013 0.232294
N18   N     N_3   0.636590 0.464932 0.075799 -0.619602
H59   H     H_    0.629656 0.378580 0.052260 0.217260
H60   H     H_    0.649400 0.438683 0.127765 0.241397
N19   N     N_3   0.862809 0.170684 0.954151 -0.579697
H61   H     H_    0.864099 0.240642 0.992497 0.218124
H62   H     H_    0.906887 0.115591 0.961101 0.232307
N20   N     N_3   0.136587 0.964941 0.075801 -0.619590
H63   H     H_    0.129642 0.878597 0.052257 0.217270
H64   H     H_    0.149401 0.938676 0.127764 0.241389
C85   C     C_3   0.193061 0.488087 0.932033 -0.424716
H65   H     H_    0.212458 0.397987 0.951635 0.128670
H66   H     H_    0.157325 0.528362 0.972276 0.150314
H67   H     H_    0.164237 0.469728 0.881831 0.148626
C86   C     C_3   0.824757 0.534582 0.060515 -0.425458
H68   H     H_    0.828030 0.470776 0.014344 0.134474
H69   H     H_    0.852545 0.621170 0.047878 0.147312
H70   H     H_    0.850260 0.486075 0.105543 0.154470
C87   C     C_3   0.693058 0.988069 0.932020 -0.424741
H71   H     H_    0.712448 0.897989 0.951646 0.128639
H72   H     H_    0.657312 0.028366 0.972240 0.150328
H73   H     H_    0.664248 0.969679 0.881815 0.148616
C88   C     C_3   0.324757 0.034574 0.060515 -0.425451
H74   H     H_    0.328027 0.970762 0.014347 0.134497
H75   H     H_    0.352545 0.121159 0.047875 0.147310
H76   H     H_    0.350259 0.986070 0.105545 0.154465
N21   N     N_3   0.472363 0.615581 0.426303 -0.569588
H77   H     H_    0.429603 0.576951 0.452299 0.225120
H78   H     H_    0.514642 0.555399 0.431774 0.234093
N22   N     N_3   0.523943 0.615297 0.570411 -0.573845
H79   H     H_    0.567133 0.578333 0.544123 0.221200
H80   H     H_    0.482227 0.554072 0.564709 0.233939
N23   N     N_3   0.972366 0.115582 0.426308 -0.569593
H81   H     H_    0.929606 0.076955 0.452304 0.225110
H82   H     H_    0.014644 0.055398 0.431779 0.234093
N24   N     N_3   0.023950 0.115300 0.570414 -0.573851
H83   H     H_    0.067141 0.078337 0.544125 0.221198
H84   H     H_    0.982235 0.054074 0.564712 0.233941

loop_
_geom_bond_atom_site_label_1
_geom_bond_atom_site_label_2
_ccdc_geom_bond_type
C46   O30   A    
C16   C28   D    
N8    H40   S    
N11   H45   S    
N23   H82   S    
C3    O27   A    
C37   C69   S    
Cr8   O28   S    
Cr3   O19   S    
Cr1   O41   S    
C73   C82   A    
Cr3   O43   S    
C35   C36   S    
Cr2   O46   S    
Cr4   O4    S    
C43   C51   D    
N18   H59   S    
C18   H18   S    
N20   H64   S    
C38   C70   S    
C81   C82   A    
N16   H55   S    
C53   N1    S    
Cr12  O16   S    
C23   N15   S    
C77   C78   A    
Cr5   O25   S    
N11   H46   S    
N21   H77   S    
C50   C54   S    
C71   O43   A    
Cr11  O39   S    
C7    C79   A    
C61   O45   A    
C69   O41   A    
C47   C76   S    
C5    C11   A    
Cr9   O13   S    
N15   H54   S    
C71   O15   A    
C70   O14   A    
C49   C53   S    
C75   C84   A    
N5    H34   S    
C13   C57   S    
C51   H7    S    
C4    O28   A    
C70   O42   A    
C19   C23   D    
C3    C18   S    
C68   O12   A    
C87   H71   S    
C16   C60   S    
C54   N2    S    
N9    H42   S    
N19   H61   S    
C73   C77   A    
N4    H31   S    
Cr4   O20   S    
C7    N11   S    
N13   H50   S    
C19   H19   S    
C59   O39   A    
C1    O21   A    
C39   C55   D    
C20   C24   D    
N6    H36   S    
Cr9   O37   S    
N10   H43   S    
C40   C56   D    
C22   N14   S    
Cr2   O2    S    
C25   N17   S    
Cr2   O42   S    
C36   N24   S    
C85   H65   S    
C68   O8    A    
Cr11  O35   S    
Cr6   O30   S    
Cr12  O12   S    
C62   O50   A    
C37   C53   D    
C44   C52   D    
Cr5   O29   S    
N8    H39   S    
C48   O36   A    
C43   N7    S    
Cr10  O38   S    
N1    H25   S    
C88   H74   S    
N3    H30   S    
C35   N23   S    
C82   H2    S    
C48   C75   S    
C13   C25   D    
N20   H63   S    
C45   O33   A    
C55   N3    S    
Cr9   O9    S    
Cr8   O8    S    
C76   C83   A    
C41   C49   D    
C63   O47   A    
Cr6   O18   S    
N13   H49   S    
N1    H26   S    
C59   O3    A    
C15   C27   D    
C14   C58   S    
Cr3   O47   S    
C58   O2    A    
N21   H78   S    
C11   H15   S    
N7    H37   S    
C84   H4    S    
C32   C35   D    
C76   C80   A    
C3    O23   A    
C79   C80   A    
C45   O29   A    
C21   C25   S    
C58   O38   A    
Cr1   O21   S    
C20   H20   S    
N12   H47   S    
C5    N9    S    
Cr6   O26   S    
Cr4   O48   S    
C37   H9    S    
C16   C88   S    
C29   C34   D    
Cr11  O11   S    
C17   C21   D    
Cr7   O27   S    
C66   O6    A    
C45   C74   S    
C87   H72   S    
C9    H13   S    
C65   O5    A    
C64   O52   A    
C31   C67   S    
N15   H53   S    
N7    H38   S    
Cr8   O32   S    
N17   H57   S    
C67   O7    A    
C81   H1    S    
N22   H80   S    
C63   O51   A    
C83   C84   A    
C38   C54   D    
Cr7   O31   S    
Cr10  O34   S    
C38   H10   S    
Cr6   O50   S    
Cr11  O15   S    
C33   C34   S    
Cr6   O6    S    
C41   N5    S    
Cr10  O10   S    
C14   C26   D    
C8    N12   S    
C85   H66   S    
C4    O24   A    
C17   H17   S    
C22   C26   S    
Cr7   O7    S    
C42   C50   D    
Cr7   O19   S    
C4    C17   S    
C30   C66   S    
C46   O34   A    
C8    C10   A    
N2    H27   S    
C62   O46   A    
C47   O31   A    
C50   H6    S    
C83   H3    S    
C23   C27   S    
C88   H75   S    
C48   O32   A    
C26   N18   S    
Cr10  O18   S    
C29   C65   S    
Cr11  O19   S    
C6    N10   S    
C61   O49   A    
C1    O25   A    
C74   C81   A    
C5    C77   A    
N23   H81   S    
Cr8   O20   S    
C6    C12   A    
Cr1   O17   S    
N24   H84   S    
C12   H16   S    
Cr2   O22   S    
C13   C85   S    
C9    C10   A    
C42   N6    S    
C7    C9    A    
C57   O37   A    
C86   H70   S    
C52   H8    S    
C1    C20   S    
C69   O13   A    
C40   C72   S    
C30   C33   D    
Cr12  O40   S    
C2    C19   S    
C18   C22   D    
C15   C59   S    
C67   O11   A    
C24   C28   S    
N14   H52   S    
C56   N4    S    
C72   O16   A    
N18   H60   S    
Cr12  O20   S    
C14   C86   S    
C65   O9    A    
C11   C12   A    
C60   O4    A    
C72   O44   A    
C30   H21   S    
C44   C61   S    
C2    O26   A    
C29   H22   S    
C6    C78   A    
Cr5   O17   S    
Cr7   O51   S    
N16   H56   S    
Cr5   O5    S    
C87   H73   S    
Cr1   O45   S    
Cr1   O1    S    
N22   H79   S    
C86   H69   S    
N24   H83   S    
Cr5   O49   S    
N17   H58   S    
N19   H62   S    
Cr4   O44   S    
C32   C68   S    
Cr3   O3    S    
C27   N19   S    
N5    H33   S    
Cr12  O36   S    
C47   O35   A    
Cr8   O52   S    
C2    O22   A    
C33   N21   S    
N2    H28   S    
C44   N8    S    
Cr10  O14   S    
C21   N13   S    
C10   H14   S    
C28   N20   S    
C51   C55   S    
C46   C73   S    
N9    H41   S    
C39   H11   S    
C85   H67   S    
N4    H32   S    
C31   H24   S    
Cr9   O17   S    
Cr2   O18   S    
C57   O1    A    
N3    H29   S    
Cr9   O33   S    
C40   H12   S    
Cr3   O23   S    
N14   H51   S    
C43   C62   S    
C64   O48   A    
C74   C78   A    
C88   H76   S    
C8    C80   A    
C39   C71   S    
C31   C36   D    
N6    H35   S    
C34   N22   S    
C32   H23   S    
C41   C64   S    
C60   O40   A    
C86   H68   S    
N12   H48   S    
C75   C79   A    
C42   C63   S    
Cr4   O24   S    
N10   H44   S    
C52   C56   S    
C49   H5    S    
C15   C87   S    
C66   O10   A    
C24   N16   S    
