data_mof_unit_41126.cif
_audit_creation_date              2012-12-11T16:48:27-0500
_audit_creation_method            fapswitch 2.2
_symmetry_space_group_name_H-M    P1
_symmetry_Int_Tables_number       1
_space_group_crystal_system       triclinic
_cell_length_a                    17.382981
_cell_length_b                    24.62453
_cell_length_c                    14.938493
_cell_angle_alpha                 90.359335
_cell_angle_beta                  125.82492
_cell_angle_gamma                 89.800369
_cell_volume                      5184.52740735

loop_
_atom_site_label
_atom_site_type_symbol
_atom_type_description
_atom_site_fract_x
_atom_site_fract_y
_atom_site_fract_z
_atom_type_partial_charge
C1    C     C_R   0.312954 0.371447 0.906638 0.532922
C2    C     C_R   0.556464 0.500458 0.731899 0.084222
C3    C     C_R   0.054570 0.844799 0.911080 0.138950
C4    C     C_R   0.319418 0.353595 0.998189 -0.029309
C5    C     C_R   0.617762 0.316433 0.994832 -0.069115
C6    C     C_R   0.816073 0.855229 0.995658 -0.053214
C7    C     C_R   0.111320 0.813711 0.005299 -0.126163
C8    C     C_3   0.183459 0.342020 0.736940 -0.293027
C9    C     C_3   0.658281 0.329714 0.242663 -0.307658
C10   C     C_3   0.803387 0.825974 0.765308 -0.360880
C11   C     C_3   0.141788 0.810019 0.231688 -0.272082
C12   C     C_3   0.557554 0.264541 0.702432 -0.234793
C13   C     C_R   0.063612 0.001349 0.367592 0.068251
C14   C     C_3   0.153636 0.386139 0.111021 -0.261522
C15   C     C_3   0.960597 0.671217 0.844398 -0.316638
C16   C     C_3   0.662160 0.885981 0.106001 -0.260744
C17   C     C_3   0.449088 0.711226 0.339287 -0.887189
C18   C     C_3   0.809609 0.595771 0.051328 -0.884509
C19   C     C_3   0.768471 0.064933 0.190527 -0.879923
C20   C     C_3   0.349431 0.107129 0.014773 -0.894384
C21   C     C_3   0.430086 0.409236 0.427106 -0.880779
C22   C     C_3   0.754864 0.384571 0.846928 -0.817111
C23   C     C_3   0.895779 0.943056 0.403522 -0.907034
C24   C     C_R   0.056143 0.001992 0.731672 0.057956
C25   C     C_3   0.241196 0.860701 0.733780 -0.889268
C26   C     C_3   0.454011 0.297076 0.227524 -1.008195
C27   C     C_3   0.420745 0.282426 0.806777 -0.956048
C28   C     C_3   0.951831 0.808608 0.239390 -1.026317
C29   C     C_3   0.956739 0.824246 0.709736 -0.943702
C30   C     C_R   0.206399 0.500097 0.627577 0.079879
C31   C     C_R   0.825853 0.500502 0.287730 0.122418
C32   C     C_R   0.692165 0.000667 0.637344 0.111285
C33   C     C_R   0.322490 0.999737 0.266099 0.112620
C34   C     C_2   0.980901 0.459704 0.362715 -0.121273
C35   C     C_2   0.081957 0.456786 0.455018 -0.108334
C36   C     C_2   0.477705 0.957032 0.356918 -0.104044
C37   C     C_R   0.648552 0.347840 0.087521 0.539482
C38   C     C_2   0.576599 0.960445 0.454793 -0.109876
C39   C     C_2   0.928417 0.502860 0.350781 -0.183304
C40   C     C_2   0.132417 0.501434 0.509162 -0.197491
C41   C     C_2   0.423293 0.001411 0.313043 -0.201795
C42   C     C_2   0.606765 0.002796 0.524803 -0.187559
C43   C     C_R   0.299244 0.711445 0.103006 0.070735
C44   C     C_R   0.751143 0.717313 0.014936 0.142712
C45   C     C_R   0.716119 0.173697 0.060089 0.137074
C46   C     C_R   0.186784 0.227704 0.930428 0.021924
C47   C     C_R   0.256467 0.675345 0.013996 -0.046099
C48   C     C_R   0.815027 0.869357 0.906914 0.591745
C49   C     C_R   0.670600 0.726568 0.011117 -0.064966
C50   C     C_R   0.735443 0.167884 0.982482 -0.044865
C51   C     C_R   0.153709 0.230519 0.994707 -0.002569
C52   C     C_R   0.157506 0.675777 0.936617 -0.397605
C53   C     C_R   0.643537 0.779143 0.017936 -0.405691
C54   C     C_R   0.690808 0.203490 0.892471 -0.396709
C55   C     C_R   0.162364 0.278516 0.050801 -0.435562
C56   C     C_R   0.645181 0.250038 0.891316 0.623002
C57   C     C_R   0.212188 0.323119 0.047616 0.644193
C58   C     C_R   0.103490 0.717742 0.940723 0.628909
C59   C     C_R   0.140288 0.847173 0.092282 0.543617
C60   C     C_R   0.692031 0.823661 0.014081 0.623041
C61   C     C_R   0.647007 0.262276 0.985581 -0.095535
C62   C     C_R   0.255794 0.315253 0.993071 -0.029661
C63   C     C_R   0.153212 0.760867 0.016320 -0.130304
C64   C     C_R   0.760285 0.812842 0.994264 -0.018578
C65   C     C_R   0.404615 0.624555 0.093225 -0.154432
C66   C     C_R   0.558806 0.650897 0.911438 -0.168005
C67   C     C_R   0.899076 0.122769 0.089545 -0.140651
C68   C     C_R   0.053873 0.150824 0.909171 -0.148780
C69   C     C_R   0.674541 0.220646 0.063189 0.079261
C70   C     C_R   0.317708 0.640908 0.003063 0.122884
C71   C     C_R   0.237923 0.268759 0.930786 0.014039
C72   C     C_R   0.248861 0.754475 0.101750 0.160198
C73   C     C_R   0.792159 0.760140 0.000919 0.064912
C74   C     C_3   0.725357 0.216167 0.185719 -0.496930
C75   C     C_3   0.301093 0.231246 0.921450 -0.587620
C76   C     C_3   0.329298 0.793766 0.145861 -0.471998
C77   C     C_3   0.806532 0.728762 0.925935 -0.596442
C78   C     C_3   0.386441 0.746091 0.149780 -0.019713
C79   C     C_3   0.764927 0.680145 0.945336 0.003254
C80   C     C_3   0.769931 0.163821 0.181099 -0.062155
C81   C     C_R   0.619870 0.680841 0.005035 0.143085
C82   C     C_3   0.244089 0.184910 0.922463 0.075626
C83   C     C_R   0.633922 0.457539 0.648056 0.065288
C84   C     C_R   0.622181 0.456720 0.548557 0.085116
C85   C     C_R   0.117883 0.953757 0.637512 0.116834
C86   C     C_R   0.108681 0.954032 0.539064 0.084954
C87   C     C_R   0.604822 0.503275 0.677249 0.040505
C88   C     C_R   0.598558 0.503193 0.483898 0.040100
C89   C     C_R   0.103762 0.002068 0.676305 0.021534
C90   C     C_R   0.099374 0.002087 0.484368 0.034187
C91   C     C_R   0.603657 0.552831 0.628958 -0.193871
C92   C     C_R   0.808499 0.133332 0.995102 0.119564
C93   C     C_R   0.600566 0.552741 0.533057 -0.199199
C94   C     C_R   0.115077 0.051156 0.636762 -0.188725
C95   C     C_R   0.113415 0.051120 0.541469 -0.200518
C96   C     C_3   0.607741 0.396462 0.534972 -0.150999
C97   C     C_3   0.627683 0.396709 0.649576 -0.065346
C98   C     C_3   0.059505 0.900022 0.502833 -0.103522
C99   C     C_3   0.074737 0.897768 0.613579 -0.106177
C100  C     C_R   0.551505 0.455665 0.306013 -0.122572
C101  C     C_R   0.525376 0.454609 0.757300 -0.182467
C102  C     C_R   0.052796 0.955831 0.306365 -0.071309
C103  C     C_R   0.113235 0.182161 0.000267 0.124616
C104  C     C_R   0.030588 0.956638 0.763153 -0.171613
C105  C     C_R   0.248677 0.544876 0.694252 -0.160328
C106  C     C_R   0.768646 0.545603 0.257729 -0.138231
C107  C     C_R   0.742874 0.045176 0.698831 -0.160650
C108  C     C_R   0.266986 0.045051 0.243752 -0.132621
C109  C     C_R   0.546315 0.545603 0.302102 -0.140719
C110  C     C_R   0.522754 0.545359 0.755725 -0.123504
C111  C     C_R   0.045886 0.045743 0.302077 -0.161369
C112  C     C_R   0.019926 0.046331 0.752354 -0.104207
C113  C     C_R   0.253137 0.455163 0.691332 0.060132
C114  C     C_R   0.563039 0.501233 0.367329 0.070094
C115  C     C_R   0.769269 0.454479 0.256081 -0.142328
C116  C     C_R   0.741642 0.955277 0.697620 -0.066951
C117  C     C_R   0.266900 0.954192 0.243276 -0.107555
C118  C     C_R   0.311256 0.626766 0.908346 -0.135070
C119  C     C_R   0.649030 0.650116 0.094764 -0.167731
C120  C     C_R   0.807662 0.118882 0.905599 -0.124728
C121  C     C_R   0.146484 0.151510 0.092320 -0.142678
C122  C     C_R   0.407652 0.367510 0.090574 0.106640
C123  C     C_R   0.550222 0.347608 0.905973 0.156339
C124  C     C_R   0.903170 0.870613 0.088695 0.074907
H1    H     H_    0.960299 0.540257 0.396403 0.131545
H2    H     H_    0.289150 0.233902 0.840170 0.187372
H3    H     H_    0.428639 0.409318 0.500337 0.231605
H4    H     H_    0.770862 0.376472 0.720572 0.166858
H5    H     H_    0.814485 0.356721 0.903027 0.236452
H6    H     H_    0.698970 0.379023 0.860128 0.273820
H7    H     H_    0.781109 0.427079 0.868230 0.221983
H8    H     H_    0.928414 0.863635 0.391380 0.180614
H9    H     H_    0.828746 0.942752 0.319006 0.233913
H10   H     H_    0.926141 0.984298 0.418901 0.268540
H11   H     H_    0.877844 0.934583 0.462152 0.237565
H12   H     H_    0.115153 0.816631 0.656714 0.171892
H13   H     H_    0.314734 0.824722 0.083794 0.154574
H14   H     H_    0.280023 0.824967 0.786585 0.237485
H15   H     H_    0.270764 0.897497 0.786962 0.257295
H16   H     H_    0.252754 0.862746 0.668240 0.244780
H17   H     H_    0.414376 0.376116 0.230845 0.241723
H18   H     H_    0.392805 0.283679 0.227004 0.262072
H19   H     H_    0.520096 0.290313 0.311213 0.247619
H20   H     H_    0.457447 0.271686 0.168381 0.249120
H21   H     H_    0.425914 0.357798 0.750213 0.159695
H22   H     H_    0.463639 0.244813 0.833282 0.257978
H23   H     H_    0.354559 0.274629 0.723414 0.232141
H24   H     H_    0.758679 0.741978 0.838798 0.222744
H25   H     H_    0.403132 0.291887 0.865357 0.235419
H26   H     H_    0.887626 0.883670 0.210935 0.206545
H27   H     H_    0.890233 0.792193 0.235043 0.250626
H28   H     H_    0.014716 0.808345 0.326781 0.250044
H29   H     H_    0.966865 0.781398 0.191856 0.266722
H30   H     H_    0.098640 0.805112 0.824383 0.187971
H31   H     H_    0.966423 0.811633 0.645497 0.232939
H32   H     H_    0.916240 0.862762 0.681476 0.235042
H33   H     H_    0.917366 0.791062 0.715675 0.292897
H34   H     H_    0.675746 0.210565 0.209028 0.186506
H35   H     H_    0.376605 0.232927 0.993885 0.199090
H36   H     H_    0.355059 0.810938 0.227858 0.224956
H37   H     H_    0.882934 0.725008 0.960358 0.208587
H38   H     H_    0.407595 0.750738 0.092812 0.100319
H39   H     H_    0.698320 0.664330 0.869353 0.114873
H40   H     H_    0.848311 0.166591 0.230336 0.114272
H41   H     H_    0.109435 0.541233 0.471618 0.133556
H42   H     H_    0.201287 0.161141 0.844176 0.110277
H43   H     H_    0.592873 0.591356 0.654930 0.119340
H44   H     H_    0.588641 0.591126 0.492150 0.126054
H45   H     H_    0.113174 0.089907 0.669866 0.115857
H46   H     H_    0.112034 0.089818 0.506811 0.121522
H47   H     H_    0.661598 0.375287 0.529699 0.097087
H48   H     H_    0.569091 0.379318 0.648752 0.150000
H49   H     H_    0.099428 0.868866 0.491255 0.107637
H50   H     H_    0.007385 0.895334 0.605160 0.139537
H51   H     H_    0.432171 0.628641 0.178846 0.115862
H52   H     H_    0.455041 0.041367 0.328437 0.128949
H53   H     H_    0.518428 0.664977 0.827064 0.099976
H54   H     H_    0.926536 0.130097 0.174300 0.095563
H55   H     H_    0.010339 0.163984 0.824079 0.086919
H56   H     H_    0.577641 0.415746 0.339284 0.117592
H57   H     H_    0.541457 0.413021 0.754697 0.118609
H58   H     H_    0.080046 0.915956 0.339613 0.108438
H59   H     H_    0.061713 0.918254 0.774276 0.161519
H60   H     H_    0.239143 0.586422 0.666414 0.098062
H61   H     H_    0.790534 0.587624 0.272116 0.092731
H62   H     H_    0.731646 0.086361 0.668696 0.091457
H63   H     H_    0.564584 0.039296 0.504004 0.131196
H64   H     H_    0.288457 0.086906 0.251421 0.099507
H65   H     H_    0.564673 0.587283 0.329426 0.088374
H66   H     H_    0.534066 0.587555 0.748453 0.087436
H67   H     H_    0.062166 0.087607 0.328787 0.090057
H68   H     H_    0.027756 0.088586 0.740691 0.084136
H69   H     H_    0.250848 0.415125 0.659931 0.071556
H70   H     H_    0.793244 0.413087 0.271076 0.165572
H71   H     H_    0.725655 0.915043 0.663887 0.136636
H72   H     H_    0.288671 0.912713 0.249784 0.152890
H73   H     H_    0.252958 0.634353 0.823402 0.102883
H74   H     H_    0.124262 0.646005 0.870636 0.160266
H75   H     H_    0.692206 0.662919 0.180323 0.095804
H76   H     H_    0.748784 0.121222 0.819916 0.099527
H77   H     H_    0.189487 0.165295 0.177254 0.090452
H78   H     H_    0.946835 0.422381 0.317626 0.123677
H79   H     H_    0.108127 0.416827 0.490335 0.108174
H80   H     H_    0.446467 0.916786 0.335410 0.122733
H81   H     H_    0.619167 0.923887 0.478224 0.117755
H82   H     H_    0.135392 0.320703 0.750911 0.167318
H83   H     H_    0.234434 0.313874 0.739050 0.125632
H84   H     H_    0.137000 0.357914 0.651629 0.158500
H85   H     H_    0.583344 0.785077 0.020946 0.159432
H86   H     H_    0.592280 0.305419 0.191143 0.168447
H87   H     H_    0.643122 0.371252 0.256989 0.165540
H88   H     H_    0.703322 0.309692 0.324275 0.167016
H89   H     H_    0.856232 0.795501 0.823860 0.189060
H90   H     H_    0.841452 0.858226 0.755484 0.168369
H91   H     H_    0.753324 0.805967 0.684146 0.182445
H92   H     H_    0.094060 0.777510 0.173002 0.141361
H93   H     H_    0.101447 0.842449 0.238822 0.180929
H94   H     H_    0.189355 0.791182 0.314214 0.172543
H95   H     H_    0.515212 0.229387 0.698129 0.129802
H96   H     H_    0.702578 0.200683 0.829293 0.158044
H97   H     H_    0.601205 0.252316 0.673543 0.140047
H98   H     H_    0.505839 0.295284 0.644008 0.157062
H99   H     H_    0.158696 0.363535 0.178395 0.137852
H100  H     H_    0.083026 0.380155 0.030829 0.140273
H101  H     H_    0.160197 0.429950 0.132084 0.178487
H102  H     H_    0.989672 0.648179 0.922005 0.140800
H103  H     H_    0.964683 0.646833 0.784537 0.160435
H104  H     H_    0.884281 0.678531 0.806004 0.171703
H105  H     H_    0.721752 0.866359 0.183287 0.119408
H106  H     H_    0.592725 0.872037 0.085145 0.149524
H107  H     H_    0.134290 0.279789 0.099049 0.153489
H108  H     H_    0.666919 0.930290 0.122289 0.174608
H109  H     H_    0.519939 0.711650 0.264958 0.157256
H110  H     H_    0.517300 0.708735 0.422660 0.233663
H111  H     H_    0.417826 0.669888 0.314330 0.235519
H112  H     H_    0.400940 0.738387 0.344747 0.265807
H113  H     H_    0.864050 0.623625 0.968577 0.173502
H114  H     H_    0.865146 0.563780 0.089061 0.241375
H115  H     H_    0.741057 0.577176 0.984037 0.250349
H116  H     H_    0.804505 0.612182 0.116820 0.257019
H117  H     H_    0.746123 0.118742 0.280197 0.179487
H118  H     H_    0.781848 0.246892 0.234367 0.233185
H119  H     H_    0.736106 0.031084 0.206569 0.239401
H120  H     H_    0.846951 0.061880 0.249221 0.242691
H121  H     H_    0.746741 0.060728 0.104570 0.264698
H122  H     H_    0.338013 0.172996 0.094814 0.184237
H123  H     H_    0.405718 0.122822 0.008054 0.252516
H124  H     H_    0.299824 0.080899 0.942285 0.253875
H125  H     H_    0.382883 0.082075 0.090444 0.245101
H126  H     H_    0.502704 0.337552 0.448233 0.178122
H127  H     H_    0.363615 0.389919 0.357583 0.254074
H128  H     H_    0.430677 0.451533 0.402729 0.265167
N1    N     N_R   0.395410 0.396350 0.944340 -0.116949
N2    N     N_R   0.474920 0.471030 0.794350 -0.051901
N3    N     N_R   0.025080 0.971030 0.205650 -0.044502
N4    N     N_R   0.974920 0.971030 0.794350 -0.041329
N5    N     N_R   0.320260 0.527820 0.794570 -0.043101
N6    N     N_R   0.679740 0.527820 0.205430 -0.038897
N7    N     N_R   0.820260 0.027820 0.794570 -0.041894
N8    N     N_R   0.179740 0.027820 0.205430 -0.044194
N9    N     N_R   0.524590 0.527840 0.205200 -0.036080
N10   N     N_R   0.475410 0.527840 0.794800 -0.039778
N11   N     N_R   0.024590 0.027840 0.205200 -0.038529
N12   N     N_R   0.604590 0.396350 0.055660 -0.116090
N13   N     N_R   0.975410 0.027840 0.794800 -0.039269
N14   N     N_R   0.320750 0.471000 0.795020 -0.033215
N15   N     N_R   0.679250 0.471000 0.204980 -0.046610
N16   N     N_R   0.820750 0.971000 0.795020 -0.053452
N17   N     N_R   0.179250 0.971000 0.204980 -0.042350
N18   N     N_R   0.393620 0.602490 0.942710 -0.039670
N19   N     N_R   0.606380 0.602490 0.057290 -0.037330
N20   N     N_R   0.893620 0.102490 0.942710 -0.043945
N21   N     N_R   0.106380 0.102490 0.057290 -0.037619
N22   N     N_R   0.451720 0.396350 0.057510 -0.107745
N23   N     N_R   0.895410 0.896350 0.944340 -0.131638
N24   N     N_R   0.548280 0.396350 0.942490 -0.121121
N25   N     N_R   0.951720 0.896350 0.057510 -0.106430
N26   N     N_R   0.048280 0.896350 0.942490 -0.102609
N27   N     N_2   0.466491 0.732010 0.261847 -0.093588
N28   N     N_2   0.836238 0.638592 0.008719 -0.094351
N29   N     N_2   0.736089 0.116217 0.205054 -0.089133
N30   N     N_2   0.298606 0.151727 0.021190 -0.090754
N31   N     N_2   0.511098 0.378975 0.448165 -0.102603
N32   N     N_2   0.719100 0.372618 0.733743 -0.090570
N33   N     N_2   0.958940 0.901661 0.410358 -0.101244
N34   N     N_R   0.104590 0.896350 0.055660 -0.114114
N35   N     N_2   0.140949 0.855259 0.685604 -0.107802
N36   N     N_2   0.445884 0.354316 0.201417 -0.102982
N37   N     N_2   0.471203 0.327611 0.802197 -0.072084
N38   N     N_2   0.932891 0.863832 0.198516 -0.102827
N39   N     N_2   0.048389 0.832142 0.813452 -0.101052
N40   N     N_R   0.449930 0.602500 0.055880 -0.042658
N41   N     N_R   0.550070 0.602500 0.944120 -0.040148
N42   N     N_R   0.949930 0.102500 0.055880 -0.042426
N43   N     N_R   0.050070 0.102500 0.944120 -0.037600
N44   N     N_R   0.525080 0.471030 0.205650 -0.042551
Ni1   Ni    Ni4+2 0.435420 0.434270 0.870230 0.197979
Ni2   Ni    Ni4+2 0.564580 0.434270 0.129770 0.200563
Ni3   Ni    Ni4+2 0.935420 0.934270 0.870230 0.194770
Ni4   Ni    Ni4+2 0.064580 0.934270 0.129770 0.216032
Ni5   Ni    Ni4+2 0.563430 0.564580 0.128740 0.206410
Ni6   Ni    Ni4+2 0.436570 0.564580 0.871260 0.209826
Ni7   Ni    Ni4+2 0.063430 0.064580 0.128740 0.207899
Ni8   Ni    Ni4+2 0.936570 0.064580 0.871260 0.206959
O1    O     O_3   0.227557 0.386329 0.810220 -0.607412
O2    O     O_3   0.708190 0.330854 0.195273 -0.654014
O3    O     O_3   0.751960 0.848535 0.801958 -0.619575
O4    O     O_3   0.197718 0.833062 0.202403 -0.649051
O5    O     O_3   0.615846 0.288295 0.809080 -0.616215
O6    O     O_3   0.228957 0.371693 0.104737 -0.629427
O7    O     O_3   0.005758 0.721906 0.864291 -0.626597
O8    O     O_3   0.667619 0.877158 0.016406 -0.605820

loop_
_geom_bond_atom_site_label_1
_geom_bond_atom_site_label_2
_ccdc_geom_bond_type
C111  H67   S    
C39   H1    S    
C5    C37   A    
N24   Ni1   S    
C90   C95   A    
N16   Ni3   S    
C124  N38   S    
C122  N22   A    
C13   C90   S    
C10   H91   S    
N15   Ni2   S    
C102  N3    A    
N8    N17   A    
C116  H71   S    
H17   N36   S    
C19   H119  S    
C11   H92   S    
C29   H31   S    
C80   N29   S    
C22   H6    S    
C7    C59   A    
N23   Ni3   S    
C77   C79   S    
H109  N27   S    
C87   C91   A    
C45   C69   A    
C102  H58   S    
C25   H16   S    
C14   H101  S    
C86   C90   A    
C97   N32   S    
C8    O1    S    
C110  H66   S    
C15   H103  S    
C4    C122  A    
C69   C74   S    
C32   C116  A    
C11   H94   S    
N42   Ni7   S    
C52   C58   A    
C41   H52   S    
N3    N11   A    
C55   C57   A    
C52   H74   S    
N19   Ni5   S    
C103  C121  A    
C75   H35   S    
N10   Ni6   S    
C25   H15   S    
C108  H64   S    
C44   C79   S    
C84   C88   A    
C60   O8    S    
C117  N17   A    
C10   H89   S    
C47   C52   A    
C119  N19   A    
C81   C119  A    
C120  N20   A    
C60   C64   A    
C75   H2    S    
C35   C40   D    
C21   N31   S    
C121  H77   S    
N2    Ni1   S    
C22   N32   S    
C99   H50   S    
C45   C50   A    
C49   C53   A    
C67   C92   A    
C45   C80   S    
C51   C55   A    
C105  H60   S    
C74   H118  S    
C104  H59   S    
C98   C99   S    
C73   C77   S    
C43   C47   A    
C30   C113  A    
C42   H63   S    
H126  N31   S    
C24   C112  A    
C68   C103  A    
N20   Ni8   S    
C76   H13   S    
N12   N24   A    
C91   H43   S    
C76   C78   S    
C34   C35   S    
N1    N22   A    
C49   C81   S    
C65   C70   A    
C16   H105  S    
C89   C94   A    
C107  N7    A    
N7    N16   A    
C46   C82   S    
C80   H40   S    
C9    O2    S    
H8    N33   S    
C79   N28   S    
C64   C73   A    
N1    Ni1   S    
C94   C95   A    
C33   C108  A    
C123  N37   S    
C31   C115  A    
C53   C60   A    
C18   H116  S    
C19   N29   S    
C66   H53   S    
C34   C39   D    
C14   H99   S    
C2    C87   S    
C100  C114  A    
C98   H49   S    
C1    O1    S    
C46   C51   A    
C96   H47   S    
C8    H83   S    
C85   C99   S    
C83   C84   A    
C9    H86   S    
C7    C63   S    
C5    C61   S    
N40   Ni5   S    
C12   H98   S    
C40   H41   S    
C109  C114  A    
C65   N40   A    
C115  H70   S    
C30   C105  A    
C28   H29   S    
H26   N38   S    
H4    N32   S    
C26   H19   S    
C100  H56   S    
C101  H57   S    
C17   H112  S    
C23   H10   S    
C48   O3    S    
C116  N16   A    
C67   H54   S    
C75   C82   S    
C78   H38   S    
C68   H55   S    
C92   C120  A    
C37   N12   A    
C13   C111  A    
C70   C118  A    
C10   O3    S    
C67   N42   A    
C62   C71   A    
C95   H46   S    
N2    N10   A    
C28   H27   S    
N3    Ni4   S    
H12   N35   S    
C112  N13   A    
N17   Ni4   S    
C65   H51   S    
C18   H114  S    
N20   N42   A    
C118  N18   A    
C82   N30   S    
C83   C87   A    
N4    N13   A    
C38   H81   S    
C22   H7    S    
C100  N44   A    
C21   H128  S    
C123  N24   A    
C43   C78   S    
C107  H62   S    
C50   C54   A    
C97   H48   S    
C119  H75   S    
C14   O6    S    
C78   N27   S    
C3    C7    A    
N18   N40   A    
N5    Ni6   S    
C9    H88   S    
C51   C103  S    
C68   N43   A    
C4    C62   S    
N7    Ni8   S    
N21   N43   A    
C6    C64   S    
C113  N14   A    
N19   N41   A    
C20   H123  S    
C93   H44   S    
C1    N1    A    
C32   C107  A    
C6    C124  A    
C11   H93   S    
C98   N33   S    
N44   Ni2   S    
C74   C80   S    
N14   Ni1   S    
C36   C41   D    
C20   N30   S    
C115  N15   A    
C77   H37   S    
C96   N31   S    
C74   H34   S    
C55   H107  S    
H117  N29   S    
C85   C89   A    
C10   H90   S    
C29   H33   S    
C85   C86   A    
C25   N35   S    
C26   N36   S    
C112  H68   S    
N25   Ni4   S    
N26   Ni3   S    
C27   N37   S    
C8    H82   S    
C77   H24   S    
C46   C71   A    
C17   N27   S    
H21   N37   S    
C19   H120  S    
N4    Ni3   S    
C29   H32   S    
C18   N28   S    
C22   H5    S    
C109  N9    A    
C82   H42   S    
C2    C110  A    
C105  N5    A    
N26   N34   A    
C113  H69   S    
N5    N14   A    
C106  H61   S    
N12   Ni2   S    
C58   O7    S    
C124  N25   A    
C17   H110  S    
C99   N35   S    
C23   H11   S    
C15   H104  S    
C33   C41   S    
C36   C38   S    
C101  N2    A    
C66   C81   A    
C20   H125  S    
C27   H22   S    
C16   H106  S    
C120  H76   S    
H122  N30   S    
C88   C114  S    
C44   C73   A    
C86   C98   S    
C121  N21   A    
C63   C72   A    
N13   Ni8   S    
C53   H85   S    
C83   C97   S    
C32   C42   S    
C56   C61   A    
N8    Ni7   S    
C44   C49   A    
C16   O8    S    
C33   C117  A    
C43   C72   A    
H30   N39   S    
C3    N39   S    
C72   C76   S    
C24   C89   S    
C57   C62   A    
N18   Ni6   S    
C6    C48   A    
C14   H100  S    
C57   O6    S    
N23   N25   A    
C34   H78   S    
C38   C42   D    
N22   Ni2   S    
C94   H45   S    
C91   C93   A    
C84   C96   S    
C8    H84   S    
C122  N36   S    
C109  H65   S    
C21   H3    S    
C29   N39   S    
C12   H95   S    
C27   H25   S    
C37   O2    S    
N34   Ni4   S    
C26   H20   S    
N6    N15   A    
C59   O4    S    
C17   H111  S    
N6    Ni5   S    
C59   N34   A    
C54   C56   A    
C23   H9    S    
C15   H102  S    
H113  N28   S    
C3    N26   A    
C66   N41   A    
N9    Ni5   S    
C16   H108  S    
C24   C104  A    
N11   Ni7   S    
C47   C70   S    
C96   C97   S    
C30   C40   S    
C111  N11   A    
C23   N33   S    
C50   C92   S    
C28   H28   S    
C31   C106  A    
C108  N8    A    
C18   H115  S    
C19   H121  S    
C61   C69   A    
C58   C63   A    
C88   C93   A    
C76   H36   S    
C11   O4    S    
N21   Ni7   S    
C79   H39   S    
C21   H127  S    
C54   H96   S    
C36   H80   S    
C5    C123  A    
C12   O5    S    
C104  N4    A    
C1    C4    A    
C25   H14   S    
C13   C102  A    
C28   N38   S    
C117  H72   S    
C71   C75   S    
C35   H79   S    
C9    H87   S    
C31   C39   S    
C12   H97   S    
C110  N10   A    
C56   O5    S    
C48   N23   A    
C20   H124  S    
C27   H23   S    
N9    N44   A    
C106  N6    A    
C2    C101  A    
N41   Ni6   S    
C26   H18   S    
C118  H73   S    
N43   Ni8   S    
C15   O7    S    
