data_mof_unit_5269.cif
_audit_creation_date              2012-12-10T17:10:21-0500
_audit_creation_method            fapswitch 2.2
_symmetry_space_group_name_H-M    P1
_symmetry_Int_Tables_number       1
_space_group_crystal_system       triclinic
_cell_length_a                    15.666498
_cell_length_b                    10.379781
_cell_length_c                    10.174764
_cell_angle_alpha                 90.430224
_cell_angle_beta                  86.812956
_cell_angle_gamma                 91.202565
_cell_volume                      1651.61118473

loop_
_atom_site_label
_atom_site_type_symbol
_atom_type_description
_atom_site_fract_x
_atom_site_fract_y
_atom_site_fract_z
_atom_type_partial_charge
C1    C     C_R   0.499458 0.259620 0.498903 0.942513
C2    C     C_2   0.435412 0.854756 0.509601 -0.183255
C3    C     C_2   0.462028 0.055723 0.389466 0.467211
C4    C     C_R   0.338258 0.500800 0.503162 0.875553
C5    C     C_2   0.486723 0.120745 0.497554 -0.533075
C6    C     C_2   0.563786 0.538840 0.921224 -0.097135
C7    C     C_2   0.558664 0.558603 0.069337 0.076571
C8    C     C_R   0.483445 0.734637 0.502068 0.883030
C9    C     C_R   0.661823 0.499429 0.496821 0.903511
C10   C     C_3   0.965823 0.427018 0.598364 -0.175853
C11   C     C_3   0.029760 0.382395 0.487367 0.130121
C12   C     C_3   0.083041 0.505720 0.506019 0.130000
C13   C     C_1   0.249267 0.504920 0.509826 -0.191914
C14   C     C_1   0.751085 0.496939 0.490174 -0.202128
C15   C     C_3   0.020306 0.551668 0.616762 -0.209486
C16   C     C_3   0.068871 0.248794 0.474805 -0.428028
C17   C     C_3   0.000634 0.143688 0.455583 -0.334549
C18   C     C_3   0.040645 0.010921 0.444695 -0.902050
C19   C     C_3   0.428282 0.430362 0.919520 -0.250858
C20   C     C_3   0.351352 0.387412 0.843285 -0.289901
C21   C     C_3   0.289235 0.304000 0.929440 -0.999492
C22   C     C_3   0.629524 0.639914 0.125638 -0.343239
C23   C     C_3   0.969959 0.621450 0.512320 -0.175175
C24   C     C_3   0.646688 0.769368 0.055924 -0.408284
C25   C     C_3   0.717966 0.845372 0.120554 -0.915392
C26   C     C_3   0.074358 0.658821 0.292715 -0.427133
C27   C     C_3   0.006479 0.707152 0.203154 -0.337093
C28   C     C_3   0.045951 0.796326 0.096878 -0.893579
C29   C     C_3   0.390852 0.858207 0.277239 -0.321436
C30   C     C_3   0.312662 0.927306 0.229425 -0.345919
C31   C     C_3   0.282056 0.864582 0.103810 -0.926097
C32   C     C_3   0.381046 0.880201 0.636629 -0.396786
C33   C     C_3   0.302679 0.964653 0.620238 -0.332274
C34   C     C_3   0.917516 0.496714 0.493344 0.160428
C35   C     C_3   0.249376 0.977225 0.749668 -0.915147
C36   C     C_3   0.553066 0.085366 0.210430 0.124422
C37   C     C_3   0.556779 0.113774 0.063807 -0.863348
C38   C     C_3   0.033743 0.574159 0.402427 0.131157
C39   C     C_3   0.979860 0.450128 0.381921 -0.214797
C40   C     C_1   0.173885 0.507213 0.510734 -0.096949
C41   C     C_1   0.826620 0.495548 0.489174 -0.077946
C42   C     C_2   0.425414 0.922706 0.399166 0.008295
H1    H     H_    0.487939 0.075011 0.592279 0.147128
H2    H     H_    0.990080 0.936881 0.428900 0.248113
H3    H     H_    0.952711 0.144130 0.540351 0.218601
H4    H     H_    0.967263 0.162513 0.364268 0.220608
H5    H     H_    0.116300 0.248835 0.389390 0.204270
H6    H     H_    0.102843 0.229292 0.565404 0.203203
H7    H     H_    0.321099 0.216088 0.962148 0.276364
H8    H     H_    0.265149 0.359078 0.017453 0.272621
H9    H     H_    0.233812 0.273944 0.872102 0.265383
H10   H     H_    0.314777 0.473314 0.817697 0.242161
H11   H     H_    0.371524 0.326750 0.757753 0.269669
H12   H     H_    0.621142 0.572805 0.866953 0.149357
H13   H     H_    0.452889 0.337606 0.953165 0.174461
H14   H     H_    0.397843 0.492919 0.996873 0.181237
H15   H     H_    0.700108 0.864748 0.225897 0.251902
H16   H     H_    0.778133 0.790302 0.113686 0.266618
H17   H     H_    0.729950 0.938561 0.069443 0.251571
H18   H     H_    0.667516 0.755035 0.951044 0.224461
H19   H     H_    0.587237 0.825824 0.059962 0.227773
H20   H     H_    0.614420 0.662073 0.229761 0.269412
H21   H     H_    0.688948 0.583001 0.118912 0.186847
H22   H     H_    0.074890 0.883101 0.142522 0.265587
H23   H     H_    0.489566 0.406396 0.127873 0.186836
H24   H     H_    0.095720 0.745400 0.035616 0.262433
H25   H     H_    0.995538 0.827666 0.032306 0.248733
H26   H     H_    0.974984 0.623770 0.154959 0.218164
H27   H     H_    0.956808 0.760393 0.262414 0.219558
H28   H     H_    0.108001 0.741913 0.337947 0.210240
H29   H     H_    0.122134 0.601588 0.233868 0.201898
H30   H     H_    0.334301 0.865671 0.025333 0.267517
H31   H     H_    0.260530 0.763468 0.123022 0.267278
H32   H     H_    0.227720 0.919132 0.068531 0.259134
H33   H     H_    0.259730 0.922864 0.306709 0.203156
H34   H     H_    0.935773 0.365777 0.677845 0.130110
H35   H     H_    0.328016 0.030184 0.208594 0.268034
H36   H     H_    0.442110 0.855497 0.197442 0.206486
H37   H     H_    0.369797 0.757286 0.298830 0.219766
H38   H     H_    0.224456 0.881213 0.782957 0.265030
H39   H     H_    0.288754 0.020358 0.826685 0.272037
H40   H     H_    0.194354 0.040481 0.735632 0.249960
H41   H     H_    0.322927 0.062715 0.587003 0.227733
H42   H     H_    0.261779 0.920433 0.545606 0.221155
H43   H     H_    0.356182 0.785826 0.675244 0.219358
H44   H     H_    0.421787 0.921692 0.712862 0.198659
H45   H     H_    0.961477 0.408307 0.286553 0.124269
H46   H     H_    0.569564 0.982685 0.222858 0.128296
H47   H     H_    0.601991 0.146755 0.257472 0.152162
H48   H     H_    0.554412 0.218914 0.048185 0.237587
H49   H     H_    0.617598 0.079208 0.016472 0.214047
H50   H     H_    0.502497 0.064810 0.016727 0.255695
H51   H     H_    0.943075 0.719364 0.522016 0.129383
H52   H     H_    0.038872 0.593285 0.712128 0.145555
H53   H     H_    0.088651 0.007704 0.360243 0.260062
H54   H     H_    0.072188 0.987896 0.536548 0.262794
N1    N     N_2   0.500900 0.501330 0.852150 -0.084340
N2    N     N_2   0.500930 0.501360 0.147810 -0.234985
O1    O     O_R   0.499990 0.319060 0.613040 -0.622332
O2    O     O_R   0.500010 0.319100 0.386900 -0.551090
O3    O     O_R   0.376760 0.499970 0.613050 -0.650452
O4    O     O_R   0.376790 0.500010 0.386910 -0.607495
O5    O     O_R   0.499990 0.680900 0.613100 -0.603693
O6    O     O_R   0.500010 0.680940 0.386960 -0.641349
O7    O     O_R   0.623210 0.499990 0.613090 -0.605876
O8    O     O_R   0.623240 0.500030 0.386950 -0.635833
O9    O     O_3   0.470484 0.111736 0.265940 -0.594817
Zn1   Zn    Zn3+2 0.499980 0.499970 0.650990 0.918367
Zn2   Zn    Zn3+2 0.500020 0.500030 0.349010 0.918932

loop_
_geom_bond_atom_site_label_1
_geom_bond_atom_site_label_2
_ccdc_geom_bond_type
C36   H47   S    
C19   H14   S    
C3    C42   S    
C24   H19   S    
C26   H29   S    
C7    N2    D    
C29   C42   S    
C18   H54   S    
C19   C20   S    
C39   H45   S    
C16   H6    S    
C15   H52   S    
C21   H7    S    
C19   N1    S    
C36   H46   S    
O1    Zn1   S    
C26   C27   S    
C37   H48   S    
C1    C5    S    
C36   C37   S    
C17   H3    S    
H23   N2    S    
C10   C15   S    
C30   C31   S    
C31   H31   S    
C9    O7    A    
C35   H38   S    
C16   H5    S    
C2    C32   S    
C4    C13   S    
C13   C40   T    
C27   H26   S    
C22   H21   S    
N1    Zn1   S    
C10   H34   S    
C29   H36   S    
C16   C17   S    
C4    O4    A    
O5    Zn1   S    
C27   H27   S    
O3    Zn1   S    
C15   C23   S    
C5    H1    S    
O2    Zn2   S    
N2    Zn2   S    
C36   O9    S    
C18   H53   S    
C30   H35   S    
C1    O1    A    
C34   C41   S    
C25   H15   S    
C6    H12   S    
C1    O2    A    
C21   H8    S    
C8    O5    A    
C35   H40   S    
C35   H39   S    
O7    Zn1   S    
C37   H49   S    
C34   C39   S    
C6    N1    D    
C28   H25   S    
C24   C25   S    
C26   C38   S    
C31   H32   S    
C3    O9    S    
C9    O8    A    
C23   H51   S    
C12   C40   S    
C28   H24   S    
C9    C14   S    
C29   C30   S    
C18   H2    S    
C22   H20   S    
C33   H41   S    
C11   C16   S    
C29   H37   S    
C12   C15   S    
C24   H18   S    
C23   C34   S    
C32   H44   S    
C4    O3    A    
C17   C18   S    
C10   C34   S    
C17   H4    S    
C11   C39   S    
C8    O6    A    
C14   C41   T    
C28   H22   S    
C31   H30   S    
C26   H28   S    
C22   C24   S    
C25   H16   S    
C23   C38   S    
C21   H9    S    
C19   H13   S    
C37   H50   S    
C2    C8    S    
C20   H11   S    
C3    C5    D    
C11   C12   S    
C6    C7    S    
C7    C22   S    
C32   C33   S    
C20   H10   S    
C30   H33   S    
C38   C39   S    
C2    C42   D    
C32   H43   S    
C33   C35   S    
C12   C38   S    
C33   H42   S    
C10   C11   S    
C20   C21   S    
C27   C28   S    
O6    Zn2   S    
O4    Zn2   S    
C25   H17   S    
O8    Zn2   S    
