data_mof_unit_24577.cif
_audit_creation_date              2012-12-10T18:58:47-0500
_audit_creation_method            fapswitch 2.2
_symmetry_space_group_name_H-M    P1
_symmetry_Int_Tables_number       1
_space_group_crystal_system       triclinic
_cell_length_a                    13.06494
_cell_length_b                    10.885624
_cell_length_c                    9.546351
_cell_angle_alpha                 89.611212
_cell_angle_beta                  95.237667
_cell_angle_gamma                 92.236336
_cell_volume                      1350.9765847

loop_
_atom_site_label
_atom_site_type_symbol
_atom_type_description
_atom_site_fract_x
_atom_site_fract_y
_atom_site_fract_z
_atom_type_partial_charge
C1    C     C_R   0.497420 0.262476 0.499888 0.836489
C2    C     C_R   0.025963 0.504023 0.567800 -0.020120
C3    C     C_R   0.972362 0.508880 0.432246 0.057001
C4    C     C_R   0.864901 0.506643 0.420783 -0.239864
C5    C     C_R   0.865431 0.461460 0.670337 0.406060
C6    C     C_R   0.971377 0.478647 0.685374 -0.196155
C7    C     C_R   0.515682 0.063566 0.622602 0.077863
C8    C     C_R   0.494399 0.129313 0.498613 -0.139844
C9    C     C_R   0.465158 0.065615 0.373449 -0.169667
C10   C     C_R   0.457066 0.937592 0.372269 0.124982
C11   C     C_R   0.487274 0.870857 0.496773 -0.127505
C12   C     C_R   0.300769 0.505324 0.474913 0.856646
C13   C     C_R   0.513248 0.935829 0.622192 0.073783
C14   C     C_3   0.457181 0.932069 0.753542 -0.059917
C15   C     C_3   0.460063 0.070822 0.751590 -0.422831
C16   C     C_R   0.584569 0.542859 0.083693 0.226429
C17   C     C_R   0.425286 0.438107 0.066789 -0.121758
C18   C     C_R   0.426582 0.434948 0.918530 0.437273
C19   C     C_R   0.584728 0.542771 0.936485 0.289426
C20   C     C_3   0.636273 0.667467 0.937043 -0.104506
C21   C     C_3   0.637712 0.666421 0.097265 -0.535176
C22   C     C_R   0.493940 0.737302 0.498656 0.801988
C23   C     C_R   0.698890 0.494150 0.525541 0.849162
C24   C     C_R   0.810929 0.486977 0.539894 -0.164130
C25   C     C_R   0.188194 0.513584 0.462100 -0.117694
C26   C     C_R   0.027612 0.516135 0.312274 0.397437
C27   C     C_R   0.134445 0.513578 0.327998 -0.284916
C28   C     C_R   0.133504 0.519309 0.582617 0.135432
Cu1   Cu    Cu3+1 0.499990 0.499980 0.640670 1.051359
Cu2   Cu    Cu3+1 0.500010 0.500020 0.359330 0.955525
H1    H     H_    0.822718 0.519407 0.319204 0.215525
H2    H     H_    0.501597 0.896133 0.847916 0.156429
H3    H     H_    0.383150 0.110302 0.730118 0.246796
H4    H     H_    0.509271 0.112784 0.841212 0.211228
H5    H     H_    0.364782 0.388765 0.116514 0.179357
H6    H     H_    0.587055 0.735876 0.882601 0.167334
H7    H     H_    0.715437 0.662001 0.154601 0.216458
H8    H     H_    0.589899 0.737190 0.137073 0.190713
H9    H     H_    0.010125 0.464379 0.788740 0.200292
H10   H     H_    0.175512 0.512665 0.234422 0.201715
H11   H     H_    0.442529 0.115288 0.277491 0.184750
N1    N     N_R   0.500660 0.500930 0.148010 -0.219384
N2    N     N_R   0.500660 0.500890 0.852110 -0.239786
O1    O     O_R   0.500000 0.319640 0.618810 -0.532399
O2    O     O_R   0.500010 0.319680 0.381230 -0.593024
O3    O     O_R   0.348990 0.499960 0.599490 -0.497216
O4    O     O_R   0.349000 0.500000 0.361910 -0.615384
O5    O     O_R   0.499990 0.680320 0.618770 -0.568158
O6    O     O_R   0.500000 0.680360 0.381190 -0.599052
O7    O     O_R   0.651000 0.500000 0.638090 -0.519598
O8    O     O_R   0.651010 0.500040 0.400510 -0.589361
Cl1   Cl    Cl    0.337214 0.334183 0.827026 -0.663253
N3    N     N_3   0.738607 0.666999 0.886416 -0.509657
H12   H     H_    0.769624 0.756962 0.893408 0.231196
H13   H     H_    0.787129 0.613323 0.952490 0.306297
Cl2   Cl    Cl    0.807347 0.394206 0.813669 -0.573284
Cl3   Cl    Cl    0.966806 0.520441 0.139684 -0.642756
N4    N     N_3   0.186652 0.548311 0.717510 -0.522555
H14   H     H_    0.174941 0.476340 0.787502 0.268993
H15   H     H_    0.156166 0.627561 0.755714 0.222824
N5    N     N_3   0.406860 0.880135 0.248556 -0.580731
H16   H     H_    0.348663 0.819034 0.277551 0.233340
H17   H     H_    0.459959 0.832489 0.197799 0.232751
N6    N     N_3   0.353084 0.875991 0.731307 -0.552916
H18   H     H_    0.315197 0.892985 0.820660 0.242482
H19   H     H_    0.311708 0.917761 0.646002 0.237261

loop_
_geom_bond_atom_site_label_1
_geom_bond_atom_site_label_2
_ccdc_geom_bond_type
C8    C9    A    
C22   O5    A    
C23   C24   S    
C13   C14   S    
C15   H4    S    
Cu1   Cu2   S    
C28   N4    S    
C25   C27   A    
C1    C8    S    
C17   H5    S    
C9    C10   A    
Cu1   O3    S    
Cu2   O2    S    
C9    H11   S    
C19   C20   S    
C14   C15   S    
C12   C25   S    
Cu2   O8    S    
C14   N6    S    
N6    H18   S    
N5    H16   S    
C7    C15   S    
C17   C18   A    
C18   Cl1   S    
C7    C8    A    
N3    H12   S    
Cu1   N2    S    
C25   C28   A    
C11   C13   A    
C1    O2    A    
C26   C27   A    
C2    C6    A    
C5    C24   A    
C22   O6    A    
Cu2   O6    S    
C19   N2    A    
C2    C3    A    
C5    Cl2   S    
Cu1   O7    S    
C12   O4    A    
Cu1   O1    S    
C16   C19   A    
C5    C6    A    
C4    C24   A    
C26   Cl3   S    
C4    H1    S    
C10   C11   A    
C21   H8    S    
Cu1   O5    S    
N4    H15   S    
C3    C4    A    
C10   N5    S    
C16   N1    A    
Cu2   O4    S    
C7    C13   A    
C21   H7    S    
C20   C21   S    
C11   C22   S    
C12   O3    A    
C17   N1    A    
N5    H17   S    
C20   H6    S    
C6    H9    S    
Cu2   N1    S    
C23   O7    A    
C2    C28   A    
C1    O1    A    
C27   H10   S    
N4    H14   S    
C18   N2    A    
N3    H13   S    
C16   C21   S    
C15   H3    S    
C3    C26   A    
C23   O8    A    
C14   H2    S    
C20   N3    S    
N6    H19   S    
