data_mof_unit_38358.cif
_audit_creation_date              2012-10-26T18:54:55-0400
_audit_creation_method            fapswitch 2.2
_symmetry_space_group_name_H-M    P1
_symmetry_Int_Tables_number       1
_space_group_crystal_system       triclinic
_cell_length_a                    10.774935
_cell_length_b                    9.524228
_cell_length_c                    10.7994
_cell_angle_alpha                 89.990999
_cell_angle_beta                  91.514966
_cell_angle_gamma                 88.209148
_cell_volume                      1107.33709631

loop_
_atom_site_label
_atom_site_type_symbol
_atom_type_description
_atom_site_fract_x
_atom_site_fract_y
_atom_site_fract_z
_atom_type_partial_charge
C1    C     C_R   0.261184 0.501647 0.495834 0.599661
C2    C     C_R   0.530466 0.624412 0.936860 0.023582
C3    C     C_R   0.522817 0.499198 0.129984 0.018573
C4    C     C_R   0.520121 0.498909 0.871201 0.011240
C5    C     C_R   0.536408 0.371632 0.065536 -0.180498
C6    C     C_R   0.533014 0.371280 0.936449 -0.163719
C7    C     C_3   0.455392 0.758771 0.928445 -0.272822
C8    C     C_3   0.456683 0.759062 0.069191 -0.271683
C9    C     C_R   0.062867 0.385552 0.527256 0.264547
C10   C     C_R   0.940478 0.365273 0.484651 0.207356
C11   C     C_R   0.870523 0.490881 0.463503 -0.010035
C12   C     C_R   0.737386 0.497466 0.487877 0.550875
C13   C     C_R   0.125456 0.502025 0.481832 -0.001076
C14   C     C_R   0.928542 0.603073 0.405708 0.086721
C15   C     C_R   0.058848 0.603153 0.408106 0.051645
C16   C     C_3   0.109451 0.156438 0.592305 0.025831
C17   C     C_3   0.201195 0.072299 0.674693 -0.360180
C18   C     C_3   0.855304 0.157385 0.415072 -0.006630
C19   C     C_3   0.761205 0.142121 0.308629 -0.320828
C20   C     C_3   0.328514 0.105200 0.221046 -0.033017
C21   C     C_3   0.254911 0.213471 0.142945 -0.335986
C22   C     C_3   0.734161 0.071691 0.737597 -0.060696
C23   C     C_R   0.427991 0.078127 0.415079 0.329498
C24   C     C_3   0.818851 0.172351 0.805983 -0.359632
C25   C     C_R   0.572345 0.072998 0.585296 0.318315
C26   C     C_R   0.431090 0.927891 0.414596 -0.006917
C27   C     C_R   0.569666 0.922286 0.585308 -0.012492
C28   C     C_R   0.504755 0.499923 0.262342 0.554148
C29   C     C_R   0.503729 0.499856 0.737879 0.553628
C30   C     C_R   0.531405 0.624591 0.064187 0.059725
Cu1   Cu    Cu3+1 0.500000 0.640660 0.500000 0.966631
Cu2   Cu    Cu3+1 0.500000 0.359340 0.500000 1.054102
H1    H     H_    0.541176 0.272117 0.113858 0.126074
H2    H     H_    0.014750 0.123379 0.614392 0.111365
H3    H     H_    0.179170 0.088822 0.773637 0.145337
H4    H     H_    0.195703 0.958692 0.652754 0.111852
H5    H     H_    0.297206 0.106117 0.659300 0.179578
H6    H     H_    0.806747 0.168378 0.503764 0.168472
H7    H     H_    0.912590 0.058577 0.421206 0.156378
H8    H     H_    0.809659 0.111254 0.222836 0.166620
H9    H     H_    0.694119 0.060455 0.331061 0.115012
H10   H     H_    0.709920 0.243119 0.291461 0.182102
H11   H     H_    0.273400 0.009062 0.220257 0.151382
H12   H     H_    0.533746 0.271337 0.888656 0.163415
H13   H     H_    0.419915 0.083433 0.178180 0.102453
H14   H     H_    0.299631 0.316650 0.147536 0.176541
H15   H     H_    0.249641 0.178236 0.044963 0.099247
H16   H     H_    0.159214 0.226412 0.178032 0.189363
H17   H     H_    0.792556 0.007357 0.674058 0.107785
H18   H     H_    0.691729 0.003524 0.807512 0.125462
H19   H     H_    0.766606 0.230821 0.877723 0.158537
H20   H     H_    0.897468 0.112573 0.851740 0.113695
H21   H     H_    0.856328 0.248755 0.740023 0.167864
H22   H     H_    0.508514 0.845459 0.888718 0.129312
H23   H     H_    0.363482 0.745624 0.107946 0.164209
H24   H     H_    0.361408 0.744956 0.885956 0.150338
H25   H     H_    0.510770 0.845610 0.110605 0.139759
H26   H     H_    0.377500 0.870661 0.348010 0.144427
H27   H     H_    0.622281 0.859871 0.652907 0.118592
H28   H     H_    0.130498 0.131713 0.494046 0.201144
I1    I     I_    0.821531 0.755210 0.297712 -0.386661
I2    I     I_    0.149604 0.741179 0.288233 -0.436788
N1    N     N_R   0.500000 0.852070 0.500000 -0.268226
N2    N     N_R   0.500000 0.147940 0.500000 -0.210821
O1    O     O_R   0.319640 0.618740 0.499990 -0.494332
O2    O     O_3   0.933497 0.268861 0.388549 -0.575294
O3    O     O_3   0.343529 0.157773 0.342533 -0.520933
O4    O     O_3   0.640727 0.150224 0.671573 -0.540367
O5    O     O_R   0.680360 0.618740 0.500010 -0.481825
O6    O     O_R   0.319620 0.381170 0.499990 -0.417311
O7    O     O_R   0.680380 0.381170 0.500010 -0.490906
O8    O     O_R   0.499990 0.618810 0.319660 -0.486635
O9    O     O_R   0.500010 0.618810 0.680340 -0.518025
O10   O     O_R   0.499960 0.381240 0.319650 -0.496969
O11   O     O_R   0.500040 0.381240 0.680350 -0.454917
O12   O     O_3   0.121595 0.300692 0.617656 -0.566168

loop_
_geom_bond_atom_site_label_1
_geom_bond_atom_site_label_2
_ccdc_geom_bond_type
C24   H20   S    
C12   O5    A    
C20   O3    S    
C2    C7    S    
C26   N1    A    
C28   O10   A    
Cu2   O11   S    
C7    C8    S    
C3    C28   S    
Cu2   O10   S    
C5    C6    A    
C11   C14   A    
Cu1   O9    S    
C29   O9    A    
C18   C19   S    
C16   H28   S    
C23   C26   A    
C23   O3    S    
C9    C13   A    
C16   H2    S    
C16   C17   S    
C5    H1    S    
C1    O1    A    
C17   H4    S    
C9    C10   A    
C4    C29   S    
C19   H10   S    
C22   H18   S    
C21   H16   S    
C24   H19   S    
C6    H12   S    
C28   O8    A    
C25   O4    S    
C7    H24   S    
C8    H23   S    
Cu2   O7    S    
C10   O2    S    
Cu1   N1    S    
Cu2   N2    S    
C4    C6    A    
C10   C11   A    
Cu2   O6    S    
C24   H21   S    
C14   I1    S    
C25   N2    A    
C3    C30   A    
C2    C4    A    
C18   H7    S    
C8    H25   S    
Cu1   Cu2   S    
C17   H5    S    
C26   H26   S    
C22   O4    S    
C27   N1    A    
C22   H17   S    
C23   N2    A    
C9    O12   S    
C12   O7    A    
C13   C15   A    
C25   C27   A    
C22   C24   S    
C1    C13   S    
C20   H11   S    
C21   H14   S    
Cu1   O1    S    
Cu1   O8    S    
C16   O12   S    
C20   H13   S    
C3    C5    A    
C11   C12   S    
C29   O11   A    
C18   O2    S    
C1    O6    A    
C2    C30   A    
C8    C30   S    
C18   H6    S    
C27   H27   S    
C15   I2    S    
C19   H8    S    
Cu1   O5    S    
C20   C21   S    
C14   C15   A    
C17   H3    S    
C7    H22   S    
C19   H9    S    
C21   H15   S    
