data_mof_unit_7265.cif
_audit_creation_date              2012-12-10T16:56:30-0500
_audit_creation_method            fapswitch 2.2
_symmetry_space_group_name_H-M    P1
_symmetry_Int_Tables_number       1
_space_group_crystal_system       triclinic
_cell_length_a                    7.947669
_cell_length_b                    8.591534
_cell_length_c                    15.70313
_cell_angle_alpha                 94.414211
_cell_angle_beta                  83.872413
_cell_angle_gamma                 92.540935
_cell_volume                      1062.25732102

loop_
_atom_site_label
_atom_site_type_symbol
_atom_type_description
_atom_site_fract_x
_atom_site_fract_y
_atom_site_fract_z
_atom_type_partial_charge
C1    C     C_R   0.543335 0.793258 0.497137 0.898086
C2    C     C_3   0.359811 0.428777 0.034001 -0.340938
C3    C     C_1   0.496554 0.504969 0.750682 -0.170746
C4    C     C_1   0.503925 0.500474 0.249388 -0.161438
C5    C     C_3   0.361369 0.577952 0.985049 0.152312
C6    C     C_3   0.637190 0.440099 0.015419 0.165424
C7    C     C_3   0.495844 0.510476 0.916981 -0.007167
C8    C     C_3   0.502619 0.506774 0.083594 -0.039121
C9    C     C_1   0.495189 0.508085 0.826121 0.045109
C10   C     C_1   0.504779 0.502975 0.174163 0.049790
C11   C     C_3   0.903691 0.318136 0.962174 -0.677163
C12   C     C_R   0.456667 0.206761 0.503058 0.898673
C13   C     C_3   0.226566 0.788369 0.922350 -0.647393
C14   C     C_3   0.606123 0.981354 0.327902 -0.734281
C15   C     C_3   0.393968 0.017893 0.672469 -0.756995
C16   C     C_3   0.943532 0.297177 0.347657 -0.675184
C17   C     C_3   0.056386 0.702434 0.652526 -0.685574
C18   C     C_R   0.499041 0.501500 0.661632 0.871310
C19   C     C_R   0.501001 0.498897 0.338338 0.871030
C20   C     C_2   0.559313 0.951959 0.480420 -0.002327
C21   C     C_2   0.440793 0.048091 0.519966 0.000556
C22   C     C_3   0.500741 0.656158 0.035909 0.421512
C23   C     C_3   0.497323 0.361648 0.965251 0.449479
C24   C     C_3   0.638924 0.589516 0.966758 -0.343649
Cl1   Cl    Cl    0.504989 0.849126 0.086462 -0.599839
Cl2   Cl    Cl    0.490193 0.167001 0.917131 -0.635331
H1    H     H_    0.752618 0.654045 0.938151 0.189151
H2    H     H_    0.270211 0.887850 0.964729 0.305914
H3    H     H_    0.791310 0.943206 0.406310 0.255070
H4    H     H_    0.702895 0.020386 0.276889 0.257818
H5    H     H_    0.494757 0.055866 0.330198 0.236622
H6    H     H_    0.567757 0.857776 0.311060 0.250202
H7    H     H_    0.208932 0.057248 0.594205 0.255488
H8    H     H_    0.297034 0.978952 0.723449 0.248675
H9    H     H_    0.432913 0.141260 0.689488 0.254794
H10   H     H_    0.504944 0.942866 0.670045 0.234725
H11   H     H_    0.147679 0.337344 0.414123 0.280037
H12   H     H_    0.246315 0.364959 0.063249 0.182564
H13   H     H_    0.009919 0.199179 0.309895 0.202563
H14   H     H_    0.953820 0.400068 0.308393 0.233232
H15   H     H_    0.810267 0.258711 0.361535 0.293812
H16   H     H_    0.852303 0.662672 0.585909 0.279879
H17   H     H_    0.989870 0.800216 0.690426 0.197864
H18   H     H_    0.189606 0.741119 0.638710 0.294254
H19   H     H_    0.046223 0.599371 0.691659 0.237271
H20   H     H_    0.845729 0.427478 0.083536 0.221719
H21   H     H_    0.008172 0.254596 0.983784 0.241523
H22   H     H_    0.958085 0.421846 0.929504 0.228935
H23   H     H_    0.839481 0.238481 0.915878 0.283780
H24   H     H_    0.118432 0.656808 0.021079 0.239080
H25   H     H_    0.102469 0.816347 0.902011 0.219415
H26   H     H_    0.317726 0.772792 0.864021 0.245839
N1    N     N_2   0.950320 0.457950 0.477300 0.024709
N2    N     N_2   0.049680 0.542050 0.522700 0.025666
N3    N     N_2   0.786631 0.365671 0.035518 -0.270404
N4    N     N_2   0.206856 0.647851 0.968063 -0.317780
N5    N     N_2   0.676114 0.995378 0.409733 -0.324928
N6    N     N_2   0.323918 0.004667 0.590641 -0.320137
N7    N     N_2   0.020063 0.334101 0.426217 -0.228571
N8    N     N_2   0.979933 0.665773 0.573904 -0.226423
O1    O     O_R   0.389250 0.738570 0.505570 -0.587149
O2    O     O_R   0.610750 0.261430 0.494430 -0.587325
O3    O     O_R   0.678390 0.711630 0.491020 -0.658412
O4    O     O_R   0.321610 0.288370 0.508980 -0.658057
O5    O     O_R   0.355460 0.513480 0.630490 -0.619136
O6    O     O_R   0.644540 0.486520 0.369510 -0.620601
O7    O     O_R   0.644600 0.486540 0.615950 -0.637452
O8    O     O_R   0.355400 0.513460 0.384050 -0.636992
Zn1   Zn    Zn3+2 0.306940 0.517990 0.509710 0.963715
Zn2   Zn    Zn3+2 0.693060 0.482010 0.490290 0.962920

loop_
_geom_bond_atom_site_label_1
_geom_bond_atom_site_label_2
_ccdc_geom_bond_type
H20   N3    S    
C8    C22   S    
C17   H17   S    
C13   H2    S    
C19   O8    A    
H7    N6    S    
C3    C9    T    
C20   N5    S    
C13   H26   S    
C12   O2    A    
C6    N3    S    
C5    N4    S    
C11   H21   S    
O3    Zn2   S    
C14   H5    S    
O7    Zn2   S    
C6    C24   S    
C13   N4    S    
C6    C8    S    
N1    N7    S    
C17   H18   S    
C21   N6    S    
C5    C22   S    
N2    N8    S    
N1    N2    D    
C18   O5    A    
C11   H22   S    
O6    Zn2   S    
N2    Zn1   S    
C16   H14   S    
O5    Zn1   S    
N1    Zn2   S    
C1    O3    A    
C15   H9    S    
C3    C18   S    
C22   Cl1   S    
C14   H4    S    
C22   C24   S    
O1    Zn1   S    
C12   O4    A    
C15   N6    S    
C7    C23   S    
C2    C5    S    
C6    C23   S    
C17   N8    S    
C4    C10   T    
C7    C24   S    
C15   H8    S    
C15   H10   S    
C24   H1    S    
C11   N3    S    
C20   C21   D    
O2    Zn2   S    
C19   O6    A    
C5    C7    S    
C23   Cl2   S    
H16   N8    S    
C2    C23   S    
C7    C9    S    
C14   N5    S    
C2    H12   S    
C1    C20   S    
C11   H23   S    
C16   H13   S    
C2    C8    S    
C18   O7    A    
C13   H25   S    
C4    C19   S    
C14   H6    S    
C12   C21   S    
O4    Zn1   S    
C8    C10   S    
H24   N4    S    
H11   N7    S    
C17   H19   S    
H3    N5    S    
O8    Zn1   S    
C16   H15   S    
C16   N7    S    
C1    O1    A    
