data_mof_unit_20366.cif
_audit_creation_date              2012-12-10T17:44:29-0500
_audit_creation_method            fapswitch 2.2
_symmetry_space_group_name_H-M    P1
_symmetry_Int_Tables_number       1
_space_group_crystal_system       triclinic
_cell_length_a                    9.939969
_cell_length_b                    10.610519
_cell_length_c                    15.490914
_cell_angle_alpha                 91.096296
_cell_angle_beta                  67.304319
_cell_angle_gamma                 90.252587
_cell_volume                      1507.00584966

loop_
_atom_site_label
_atom_site_type_symbol
_atom_type_description
_atom_site_fract_x
_atom_site_fract_y
_atom_site_fract_z
_atom_type_partial_charge
C1    C     C_R   0.500966 0.739255 0.498717 0.853092
C2    C     C_R   0.740827 0.513112 0.025899 0.145715
C3    C     C_R   0.596826 0.550363 0.083427 0.114081
C4    C     C_R   0.408303 0.501938 0.676068 0.853593
C5    C     C_R   0.839532 0.478687 0.065622 -0.213274
C6    C     C_R   0.796687 0.475163 0.162373 0.170498
C7    C     C_R   0.555652 0.547793 0.180441 -0.263888
C8    C     C_R   0.663677 0.866132 0.325640 -0.204128
C9    C     C_R   0.739545 0.931163 0.243472 0.220893
C10   C     C_R   0.739416 0.062427 0.244419 -0.130459
C11   C     C_R   0.662635 0.129104 0.327160 -0.212935
C12   C     C_R   0.426003 0.555084 0.908349 0.105734
C13   C     C_R   0.584288 0.064673 0.410677 0.086861
C14   C     C_R   0.585073 0.932644 0.410070 0.059840
C15   C     C_R   0.503903 0.871515 0.494216 -0.066046
C16   C     C_R   0.499637 0.260749 0.500193 0.869066
C17   C     C_R   0.421122 0.936775 0.576176 -0.187302
C18   C     C_R   0.420163 0.065805 0.576602 -0.179049
C19   C     C_R   0.502147 0.128371 0.495093 -0.082036
C20   C     C_R   0.790274 0.667734 0.620509 -0.199362
C21   C     C_R   0.824001 0.745574 0.682629 0.177887
C22   C     C_R   0.962281 0.742121 0.684249 -0.228124
C23   C     C_R   0.287094 0.607267 0.961042 0.173620
C24   C     C_R   0.067635 0.661476 0.623415 -0.213515
C25   C     C_R   0.037066 0.581027 0.559950 0.169333
C26   C     C_R   0.893214 0.582572 0.559079 0.134016
C27   C     C_R   0.961049 0.418705 0.445633 -0.070393
C28   C     C_R   0.592397 0.500000 0.323514 0.856734
C29   C     C_R   0.104494 0.419938 0.444586 -0.093199
C30   C     C_R   0.353049 0.522295 0.777253 -0.049440
C31   C     C_R   0.651793 0.507798 0.220853 -0.113470
C32   C     C_R   0.183443 0.618501 0.920378 -0.183900
C33   C     C_R   0.217490 0.578526 0.827856 -0.218430
C34   C     C_R   0.534886 0.552144 0.945912 0.076702
C35   C     C_R   0.451278 0.504014 0.819972 -0.232987
C36   C     C_R   0.495435 0.579163 0.042353 0.075555
C37   C     C_R   0.355665 0.631571 0.093967 -0.189228
C38   C     C_R   0.254518 0.647602 0.053037 -0.174227
C39   C     C_R   0.682369 0.524690 0.889589 -0.188490
C40   C     C_R   0.783919 0.506992 0.929204 -0.204198
H1    H     H_    0.149229 0.688877 0.094347 0.190981
H2    H     H_    0.988536 0.802043 0.732900 0.180417
H3    H     H_    0.184884 0.354318 0.399207 0.160793
H4    H     H_    0.078020 0.661052 0.959111 0.178457
H5    H     H_    0.140363 0.594747 0.795422 0.151837
H6    H     H_    0.549360 0.450848 0.781927 0.158322
H7    H     H_    0.322832 0.664862 0.165369 0.159096
H8    H     H_    0.722798 0.518502 0.814194 0.156053
H9    H     H_    0.665412 0.764276 0.322470 0.155675
H10   H     H_    0.171213 0.663376 0.628797 0.210035
H11   H     H_    0.895145 0.482934 0.884159 0.149289
H12   H     H_    0.949324 0.449862 0.021143 0.168112
H13   H     H_    0.358400 0.887485 0.639863 0.145402
H14   H     H_    0.797903 0.113042 0.180810 0.181711
H15   H     H_    0.663680 0.230896 0.324842 0.156025
H16   H     H_    0.356931 0.117179 0.640627 0.150431
H17   H     H_    0.933353 0.350560 0.402538 0.174692
H18   H     H_    0.682160 0.676636 0.623596 0.220023
H19   H     H_    0.445551 0.570760 0.226284 0.172726
I1    I     I_    0.851803 0.832028 0.117071 -0.421666
I2    I     I_    0.663239 0.866808 0.775712 -0.371057
I3    I     I_    0.959197 0.411829 0.208556 -0.427389
N1    N     N_R   0.856800 0.501200 0.500850 -0.111080
N2    N     N_R   0.142390 0.501280 0.500880 -0.118205
O1    O     O_R   0.385310 0.683220 0.500000 -0.625307
O2    O     O_R   0.614640 0.683250 0.500010 -0.623198
O3    O     O_R   0.319840 0.499980 0.632240 -0.633969
O4    O     O_R   0.549160 0.500000 0.632250 -0.631248
O5    O     O_R   0.385360 0.316750 0.499990 -0.608509
O6    O     O_R   0.614690 0.316780 0.500000 -0.604193
O7    O     O_R   0.450840 0.500000 0.367750 -0.612728
O8    O     O_R   0.680160 0.500020 0.367760 -0.580116
Zn1   Zn    Zn3+2 0.346880 0.499980 0.499990 0.941927
Zn2   Zn    Zn3+2 0.653120 0.500020 0.500010 0.961522

loop_
_geom_bond_atom_site_label_1
_geom_bond_atom_site_label_2
_ccdc_geom_bond_type
C27   C29   A    
C33   H5    S    
C12   C23   A    
C30   C35   A    
C36   C37   A    
C3    C7    A    
C5    C6    A    
O4    Zn2   S    
O2    Zn2   S    
O1    Zn1   S    
C18   C19   A    
C8    C9    A    
O6    Zn2   S    
C1    O1    A    
N2    Zn1   S    
C5    H12   S    
O5    Zn1   S    
C1    C15   S    
C37   H7    S    
C9    C10   A    
C21   I2    S    
C18   H16   S    
C6    C31   A    
C29   N2    A    
C13   C14   A    
C29   H3    S    
C28   O8    A    
C7    H19   S    
C1    O2    A    
C24   H10   S    
C7    C31   A    
C13   C19   A    
C34   C39   A    
C16   O6    A    
C24   C25   A    
C38   H1    S    
O8    Zn2   S    
C27   H17   S    
C39   C40   A    
C4    O4    A    
C25   C26   A    
C25   N2    A    
C26   N1    A    
C37   C38   A    
C17   C18   A    
C32   H4    S    
C12   C35   A    
C27   N1    A    
O3    Zn1   S    
C22   C24   A    
C28   O7    A    
C20   H18   S    
C40   H11   S    
C17   H13   S    
C11   H15   S    
O7    Zn1   S    
C15   C17   A    
C8    C14   A    
C30   C33   A    
C28   C31   S    
C16   O5    A    
C4    O3    A    
N1    Zn2   S    
C23   C38   A    
C9    I1    S    
C23   C32   A    
C6    I3    S    
C2    C3    A    
C32   C33   A    
C11   C13   A    
C22   H2    S    
C20   C26   A    
C3    C36   A    
C16   C19   S    
C34   C36   A    
C10   H14   S    
C10   C11   A    
C2    C5    A    
C2    C40   A    
C20   C21   A    
C14   C15   A    
C21   C22   A    
C35   H6    S    
C12   C34   A    
C8    H9    S    
C4    C30   S    
C39   H8    S    
