data_mof_unit_13855.cif
_audit_creation_date              2012-12-10T16:59:20-0500
_audit_creation_method            fapswitch 2.2
_symmetry_space_group_name_H-M    P1
_symmetry_Int_Tables_number       1
_space_group_crystal_system       triclinic
_cell_length_a                    7.817376
_cell_length_b                    8.657011
_cell_length_c                    27.250624
_cell_angle_alpha                 92.481993
_cell_angle_beta                  86.041755
_cell_angle_gamma                 93.798525
_cell_volume                      1834.35798355

loop_
_atom_site_label
_atom_site_type_symbol
_atom_type_description
_atom_site_fract_x
_atom_site_fract_y
_atom_site_fract_z
_atom_type_partial_charge
C1    C     C_R   0.545956 0.794766 0.501561 0.826279
C2    C     C_R   0.379012 0.664514 0.136176 -0.221265
C3    C     C_R   0.507748 0.492049 0.646488 -0.220663
C4    C     C_R   0.483470 0.479793 0.353124 -0.262317
C5    C     C_R   0.420737 0.656128 0.032638 -0.144266
C6    C     C_R   0.281885 0.390116 0.978737 -0.143908
C7    C     C_R   0.245536 0.408111 0.030310 0.137603
C8    C     C_R   0.465062 0.634656 0.981614 0.143624
C9    C     C_R   0.325238 0.534387 0.057034 0.006817
C10   C     C_R   0.388885 0.506615 0.954809 0.012931
C11   C     C_R   0.459421 0.797882 0.059645 0.316558
C12   C     C_R   0.455466 0.207134 0.505163 0.867031
C13   C     C_R   0.233720 0.250974 0.951350 0.322784
C14   C     C_R   0.436667 0.800504 0.111855 0.448507
C15   C     C_R   0.252066 0.250635 0.899126 0.462188
C16   C     C_R   0.502466 0.500030 0.593800 0.955553
C17   C     C_R   0.497008 0.497581 0.406028 0.935330
C18   C     C_R   0.596171 0.728574 0.957309 -0.166700
C19   C     C_R   0.124287 0.308618 0.056171 -0.142375
C20   C     C_2   0.571868 0.959395 0.508630 0.171851
C21   C     C_2   0.432110 0.046027 0.513916 0.244682
C22   C     C_R   0.601558 0.557915 0.830366 0.602075
C23   C     C_R   0.426691 0.491749 0.903698 -0.138230
C24   C     C_R   0.214034 0.417884 0.184817 0.543598
C25   C     C_R   0.351568 0.389273 0.824355 0.642717
C26   C     C_R   0.380999 0.651391 0.187579 0.623464
C27   C     C_R   0.501479 0.340532 0.719382 0.410295
C28   C     C_R   0.560069 0.553783 0.269929 0.427179
C29   C     C_R   0.517660 0.349006 0.667623 0.351657
C30   C     C_R   0.587737 0.569123 0.320128 0.418396
C31   C     C_R   0.512711 0.628544 0.675169 -0.492687
C32   C     C_R   0.366574 0.365627 0.335507 -0.447941
C33   C     C_R   0.527273 0.624761 0.726017 0.473374
C34   C     C_R   0.307969 0.538759 0.108798 -0.129562
C35   C     C_R   0.334654 0.352143 0.285189 0.520465
C36   C     C_R   0.507467 0.479714 0.748923 0.049468
C37   C     C_R   0.406850 0.471971 0.254359 -0.045003
C38   C     C_3   0.945797 0.319135 0.416047 -0.189297
C39   C     C_3   0.026209 0.645077 0.589138 -0.142128
C40   C     C_3   0.708341 0.843030 0.734878 0.148081
C41   C     C_3   0.778592 0.957727 0.773686 -0.721239
C42   C     C_3   0.144804 0.131851 0.293305 0.150043
C43   C     C_3   0.058368 0.001527 0.262777 -0.726734
C44   C     C_3   0.659566 0.815150 0.346136 -0.277887
C45   C     C_R   0.558810 0.585745 0.880530 0.006541
C46   C     C_3   0.706330 0.178658 0.634699 -0.293847
C47   C     C_3   0.752490 0.509684 0.204816 -0.214281
C48   C     C_3   0.361910 0.096202 0.724647 -0.116607
C49   C     C_3   0.304470 0.009831 0.143619 -0.220785
C50   C     C_3   0.356223 0.031310 0.862968 -0.272061
C51   C     C_3   0.613576 0.035671 0.046364 0.144120
C52   C     C_3   0.646724 0.153979 0.006598 -0.833736
C53   C     C_3   0.079709 0.012953 0.965489 0.144262
C54   C     C_3   0.053184 0.893775 0.005203 -0.837922
C55   C     C_3   0.860092 0.992326 0.480589 -0.155065
C56   C     C_R   0.209035 0.422066 0.133725 -0.006906
C57   C     C_3   0.205111 0.019338 0.570345 -0.263791
C58   C     C_R   0.646378 0.701367 0.907945 -0.204807
C59   C     C_R   0.106623 0.314838 0.107238 -0.248459
C60   C     C_R   0.337478 0.378458 0.875700 -0.208677
H1    H     H_    0.511444 0.738405 0.657635 0.164535
H2    H     H_    0.153768 0.707885 0.590256 0.176090
H3    H     H_    0.028291 0.524878 0.602021 0.139956
H4    H     H_    0.936652 0.707226 0.615179 0.114157
H5    H     H_    0.681566 0.909271 0.702634 0.125246
H6    H     H_    0.811919 0.763514 0.723430 0.148567
H7    H     H_    0.817644 0.897021 0.805669 0.269816
H8    H     H_    0.892777 0.025507 0.757518 0.203210
H9    H     H_    0.680816 0.038844 0.786776 0.272310
H10   H     H_    0.044830 0.211789 0.307146 0.139260
H11   H     H_    0.199384 0.076740 0.324301 0.118322
H12   H     H_    0.308209 0.283602 0.361384 0.171944
H13   H     H_    0.153181 0.916625 0.249784 0.273437
H14   H     H_    0.954412 0.940635 0.285622 0.219133
H15   H     H_    0.001555 0.047713 0.230665 0.271568
H16   H     H_    0.553553 0.813363 0.375610 0.126777
H17   H     H_    0.616863 0.864064 0.312226 0.213093
H18   H     H_    0.765761 0.893751 0.359405 0.157948
H19   H     H_    0.788574 0.263374 0.612606 0.195898
H20   H     H_    0.715001 0.062880 0.616002 0.206291
H21   H     H_    0.757108 0.171100 0.671645 0.160464
H22   H     H_    0.662666 0.470378 0.176317 0.138484
H23   H     H_    0.750384 0.774046 0.891077 0.171512
H24   H     H_    0.870778 0.561299 0.185501 0.193967
H25   H     H_    0.788277 0.408286 0.224775 0.191637
H26   H     H_    0.412450 0.018748 0.694388 0.169877
H27   H     H_    0.250789 0.155881 0.712553 0.147911
H28   H     H_    0.312089 0.020998 0.754994 0.200366
H29   H     H_    0.198711 0.934136 0.160953 0.158166
H30   H     H_    0.267870 0.044729 0.107227 0.178729
H31   H     H_    0.321290 0.115654 0.167470 0.240567
H32   H     H_    0.404067 0.995865 0.898057 0.188611
H33   H     H_    0.460793 0.096998 0.841699 0.182415
H34   H     H_    0.018123 0.231206 0.125744 0.173478
H35   H     H_    0.321359 0.924018 0.841185 0.205798
H36   H     H_    0.730681 0.971567 0.049235 0.112869
H37   H     H_    0.586954 0.103906 0.080991 0.201259
H38   H     H_    0.536983 0.228198 0.007198 0.286755
H39   H     H_    0.762701 0.229995 0.013682 0.187880
H40   H     H_    0.662533 0.095662 0.969640 0.247427
H41   H     H_    0.099514 0.945455 0.930412 0.201590
H42   H     H_    0.962808 0.078189 0.964536 0.116554
H43   H     H_    0.038517 0.951152 0.042317 0.240679
H44   H     H_    0.938696 0.815302 0.998962 0.190009
H45   H     H_    0.669042 0.817908 0.976566 0.169281
H46   H     H_    0.165139 0.821771 0.003593 0.289556
H47   H     H_    0.808811 0.987374 0.443422 0.085227
H48   H     H_    0.923147 0.885091 0.487216 0.239757
H49   H     H_    0.964042 0.084827 0.481597 0.238696
H50   H     H_    0.203512 0.146163 0.578488 0.181010
H51   H     H_    0.283884 0.966504 0.596901 0.146586
H52   H     H_    0.070490 0.971621 0.576181 0.193737
H53   H     H_    0.040532 0.226110 0.037548 0.166081
H54   H     H_    0.942417 0.422932 0.393588 0.197607
H55   H     H_    0.816360 0.265054 0.425396 0.182150
H56   H     H_    0.015023 0.231037 0.393422 0.093379
N1    N     N_R   0.487693 0.474135 0.802007 -0.322965
N2    N     N_R   0.333480 0.511677 0.208535 -0.326295
N3    N     N_2   0.950320 0.457960 0.486880 0.193234
N4    N     N_2   0.049680 0.542040 0.513120 0.196865
O1    O     O_R   0.389250 0.738570 0.503220 -0.580219
O2    O     O_2   0.093818 0.329508 0.209859 -0.586414
O3    O     O_2   0.428597 0.775713 0.216160 -0.487559
O4    O     O_2   0.227837 0.319294 0.797639 -0.519730
O5    O     O_3   0.036306 0.354876 0.458008 -0.532026
O6    O     O_3   0.966247 0.646930 0.541898 -0.524711
O7    O     O_3   0.555372 0.761750 0.753751 -0.606082
O8    O     O_3   0.276626 0.210364 0.263896 -0.563651
O9    O     O_3   0.721108 0.666635 0.336392 -0.576159
O10   O     O_3   0.533163 0.217061 0.637567 -0.643150
O11   O     O_3   0.682048 0.623844 0.237276 -0.551912
O12   O     O_R   0.610750 0.261430 0.496780 -0.612149
O13   O     O_3   0.495083 0.199219 0.741972 -0.625536
O14   O     O_3   0.461244 0.937287 0.139045 -0.590142
O15   O     O_3   0.209219 0.118071 0.871241 -0.605279
O16   O     O_3   0.470715 0.935448 0.034433 -0.580078
O17   O     O_3   0.225631 0.111613 0.975553 -0.581314
O18   O     O_3   0.734605 0.024932 0.518782 -0.627279
O19   O     O_3   0.264411 0.983716 0.521239 -0.610000
O20   O     O_R   0.678390 0.711630 0.494810 -0.586395
O21   O     O_R   0.321610 0.288370 0.505190 -0.579004
O22   O     O_R   0.355440 0.513440 0.575450 -0.671000
O23   O     O_R   0.644560 0.486560 0.424550 -0.634465
O24   O     O_R   0.644590 0.486500 0.567040 -0.587693
O25   O     O_R   0.355410 0.513500 0.432960 -0.581419
O26   O     O_2   0.755154 0.611853 0.810424 -0.566488
Zn1   Zn    Zn3+2 0.306940 0.517990 0.505620 1.038746
Zn2   Zn    Zn3+2 0.693060 0.482010 0.494380 1.034316

loop_
_geom_bond_atom_site_label_1
_geom_bond_atom_site_label_2
_ccdc_geom_bond_type
C51   H37   S    
C22   N1    A    
C49   O14   S    
C34   C56   A    
C23   C45   A    
C27   C29   A    
C15   C60   A    
C31   H1    S    
C17   O25   A    
C33   O7    S    
C49   H30   S    
O24   Zn2   S    
O20   Zn2   S    
C32   H12   S    
C53   C54   S    
C39   H4    S    
C55   O18   S    
C53   O17   S    
C47   H25   S    
C54   H44   S    
C44   H17   S    
C16   O24   A    
C5    C11   A    
C50   O15   S    
C46   H19   S    
C38   H54   S    
C11   C14   A    
N4    O6    S    
C50   H35   S    
C57   H52   S    
C15   O15   S    
C19   H53   S    
C42   H10   S    
C33   C36   A    
C12   O21   A    
C57   O19   S    
C3    C29   A    
C47   H22   S    
C20   O18   S    
C44   H16   S    
C43   H13   S    
C18   C58   A    
C37   N2    S    
C22   O26   S    
C53   H41   S    
C48   H28   S    
C25   C60   A    
C42   O8    S    
C51   H36   S    
C2    C34   A    
C43   H14   S    
C39   O6    S    
C40   H6    S    
C55   H49   S    
O23   Zn2   S    
C49   H31   S    
C24   O2    S    
O25   Zn1   S    
C41   H8    S    
C43   H15   S    
C23   C60   A    
C45   C58   A    
C31   C33   A    
C54   H46   S    
C51   C52   S    
O12   Zn2   S    
C32   C35   A    
C48   O13   S    
C41   H7    S    
C14   O14   S    
C19   C59   A    
C44   O9    S    
C40   O7    S    
C12   C21   S    
C52   H40   S    
C8    C18   A    
C55   H47   S    
C27   O13   S    
C16   O22   A    
C5    C9    A    
C46   H21   S    
C38   H56   S    
C51   O16   S    
C54   H43   S    
C29   O10   S    
C53   H42   S    
O1    Zn1   S    
C48   H27   S    
C2    C26   A    
C47   H24   S    
C3    C31   A    
C36   N1    S    
C4    C32   A    
C1    O20   A    
C4    C17   S    
N3    O5    S    
C50   H32   S    
C40   C41   S    
C59   H34   S    
C7    C19   A    
C40   H5    S    
C13   C15   A    
C9    C34   A    
C10   C23   A    
C48   H26   S    
C26   O3    S    
C21   O19   S    
C38   O5    S    
C41   H9    S    
C7    C9    A    
C39   H2    S    
C1    C20   S    
C12   O12   A    
C35   C37   A    
O22   Zn1   S    
C26   N2    A    
C49   H29   S    
C25   N1    A    
C46   O10   S    
C5    C8    A    
N3    N4    D    
C50   H33   S    
C6    C7    A    
C27   C36   A    
C24   C56   A    
C30   O9    S    
C39   H3    S    
C52   H39   S    
C24   N2    A    
C56   C59   A    
C55   H48   S    
C17   O23   A    
C28   O11   S    
C44   H18   S    
N3    Zn2   S    
C18   H45   S    
C28   C30   A    
C11   O16   S    
C6    C13   A    
C46   H20   S    
C38   H55   S    
C57   H51   S    
C28   C37   A    
C52   H38   S    
C42   H11   S    
C35   O8    S    
C2    C14   A    
C25   O4    S    
C1    O1    A    
C6    C10   A    
O21   Zn1   S    
C22   C45   A    
C20   C21   D    
N4    Zn1   S    
C8    C10   A    
C42   C43   S    
C47   O11   S    
C57   H50   S    
C58   H23   S    
C4    C30   A    
C3    C16   S    
C13   O17   S    
