data_mof_unit_44654.cif
_audit_creation_date              2012-12-11T14:10:38-0500
_audit_creation_method            fapswitch 2.2
_symmetry_space_group_name_H-M    P1
_symmetry_Int_Tables_number       1
_space_group_crystal_system       triclinic
_cell_length_a                    19.706172
_cell_length_b                    17.185171
_cell_length_c                    15.517535
_cell_angle_alpha                 90.000129
_cell_angle_beta                  52.38643
_cell_angle_gamma                 90.000028
_cell_volume                      4162.78142708

loop_
_atom_site_label
_atom_site_type_symbol
_atom_type_description
_atom_site_fract_x
_atom_site_fract_y
_atom_site_fract_z
_atom_type_partial_charge
C1    C     C_R   0.378110 0.197833 0.989200 -0.129748
C2    C     C_R   0.621900 0.802169 0.010787 -0.129725
C3    C     C_R   0.662058 0.173924 0.949583 -0.129871
C4    C     C_R   0.337944 0.826074 0.050412 -0.129865
C5    C     C_R   0.837944 0.673927 0.050411 -0.129860
C6    C     C_R   0.162056 0.326073 0.949589 -0.129879
C7    C     C_R   0.121895 0.697832 0.010793 -0.129737
C8    C     C_R   0.878115 0.302166 0.989193 -0.129748
C9    C     C_3   0.238685 0.218194 0.564130 -0.234086
C10   C     C_3   0.761344 0.781863 0.435838 -0.234079
C11   C     C_3   0.667776 0.272614 0.459765 -0.231747
C12   C     C_3   0.332152 0.727489 0.540318 -0.231726
C13   C     C_3   0.832136 0.772491 0.540334 -0.231746
C14   C     C_3   0.167818 0.227448 0.459716 -0.231738
C15   C     C_3   0.261339 0.718152 0.435845 -0.234086
C16   C     C_3   0.738712 0.281747 0.564102 -0.234089
C17   C     C_2   0.187360 0.744543 0.099103 -0.217666
C18   C     C_2   0.812641 0.255458 0.900892 -0.217715
C19   C     C_2   0.711476 0.686449 0.048399 -0.195851
C20   C     C_2   0.288526 0.313552 0.951601 -0.195895
C21   C     C_2   0.788535 0.186445 0.951579 -0.195885
C22   C     C_2   0.211473 0.813553 0.048404 -0.195868
C23   C     C_2   0.312649 0.244548 0.900889 -0.217722
C24   C     C_2   0.687361 0.755457 0.099099 -0.217752
C25   C     C_R   0.394097 0.801895 0.212464 0.037927
C26   C     C_R   0.605887 0.198107 0.787541 0.037908
C27   C     C_R   0.651446 0.827720 0.777094 0.062074
C28   C     C_R   0.348551 0.172276 0.222911 0.062060
C29   C     C_R   0.848548 0.327726 0.222918 0.062025
C30   C     C_R   0.151446 0.672280 0.777092 0.062085
C31   C     C_R   0.105899 0.301895 0.787536 0.037919
C32   C     C_R   0.894093 0.698104 0.212467 0.037920
C33   C     C_R   0.329395 0.913484 0.951753 -0.158085
C34   C     C_R   0.670607 0.086516 0.048244 -0.158079
C35   C     C_R   0.633793 0.889925 0.104048 -0.159444
C36   C     C_R   0.366212 0.110077 0.895946 -0.159426
C37   C     C_R   0.866210 0.389925 0.895947 -0.159429
C38   C     C_R   0.133792 0.610075 0.104050 -0.159436
C39   C     C_R   0.170604 0.413484 0.048248 -0.158092
C40   C     C_R   0.829396 0.586516 0.951752 -0.158082
C41   C     C_R   0.356563 0.078680 0.316633 -0.172227
C42   C     C_R   0.643444 0.921324 0.683371 -0.172244
C43   C     C_R   0.600501 0.105623 0.691307 -0.182501
C44   C     C_R   0.399483 0.894379 0.308701 -0.182526
C45   C     C_R   0.899478 0.605620 0.308704 -0.182520
C46   C     C_R   0.100513 0.394380 0.691300 -0.182519
C47   C     C_R   0.143440 0.578679 0.683369 -0.172207
C48   C     C_R   0.856572 0.421316 0.316637 -0.172253
C49   C     C_R   0.349704 0.186385 0.928623 0.161514
C50   C     C_R   0.650306 0.813618 0.071364 0.161493
C51   C     C_R   0.713825 0.147072 0.975195 0.154004
C52   C     C_R   0.286177 0.852927 0.024799 0.153996
C53   C     C_R   0.786178 0.647074 0.024797 0.154004
C54   C     C_R   0.213822 0.352926 0.975203 0.154007
C55   C     C_R   0.150302 0.686383 0.071370 0.161503
C56   C     C_R   0.849706 0.313616 0.928619 0.161503
C57   C     C_R   0.379069 0.818337 0.309211 0.040750
C58   C     C_R   0.620901 0.181668 0.690804 0.040798
C59   C     C_R   0.693366 0.861800 0.675626 0.019381
C60   C     C_R   0.306641 0.138203 0.324381 0.019376
C61   C     C_R   0.806649 0.361793 0.324389 0.019370
C62   C     C_R   0.193362 0.638202 0.675623 0.019388
C63   C     C_R   0.120924 0.318336 0.690792 0.040784
C64   C     C_R   0.879060 0.681661 0.309215 0.040794
C65   C     C_3   0.201436 0.148141 0.542000 -0.198104
C66   C     C_3   0.798621 0.851870 0.458002 -0.198120
C67   C     C_3   0.705095 0.202667 0.482217 -0.194659
C68   C     C_3   0.294781 0.797355 0.517811 -0.194734
C69   C     C_3   0.794755 0.702640 0.517818 -0.194709
C70   C     C_3   0.205171 0.297347 0.482197 -0.194705
C71   C     C_3   0.298607 0.648131 0.458001 -0.198039
C72   C     C_3   0.701496 0.351848 0.542004 -0.198125
C73   C     C_3   0.717986 0.752201 0.551016 0.111774
C74   C     C_3   0.281987 0.247844 0.448960 0.111779
C75   C     C_3   0.376404 0.698352 0.423054 0.095049
C76   C     C_3   0.623620 0.301729 0.577016 0.095051
C77   C     C_3   0.123607 0.198321 0.576974 0.095056
C78   C     C_3   0.876403 0.801631 0.423069 0.095065
C79   C     C_3   0.781960 0.252108 0.448939 0.111772
C80   C     C_3   0.217998 0.747812 0.551019 0.111784
C81   C     C_3   0.753425 0.820921 0.574604 0.153239
C82   C     C_3   0.246576 0.179078 0.425404 0.153241
C83   C     C_3   0.339927 0.766793 0.401236 0.149663
C84   C     C_3   0.660045 0.233210 0.598779 0.149689
C85   C     C_3   0.160065 0.266794 0.598767 0.149690
C86   C     C_3   0.839917 0.733204 0.401241 0.149707
C87   C     C_3   0.746581 0.320921 0.425414 0.153242
C88   C     C_3   0.253426 0.679077 0.574600 0.153226
H1    H     H_    0.392048 0.253567 0.006512 0.083555
H2    H     H_    0.607971 0.746435 0.993465 0.083540
H3    H     H_    0.673855 0.222066 0.898076 0.087927
H4    H     H_    0.326149 0.777927 0.101911 0.087929
H5    H     H_    0.826150 0.722074 0.101909 0.087929
H6    H     H_    0.173853 0.277926 0.898089 0.087932
H7    H     H_    0.107962 0.753566 0.993477 0.083543
H8    H     H_    0.892054 0.246432 0.006501 0.083549
H9    H     H_    0.309141 0.947159 0.912223 0.096719
H10   H     H_    0.690862 0.052841 0.087772 0.096721
H11   H     H_    0.637754 0.916637 0.163975 0.088501
H12   H     H_    0.362251 0.083363 0.836019 0.088501
H13   H     H_    0.862245 0.416641 0.836025 0.088500
H14   H     H_    0.137754 0.583362 0.163976 0.088499
H15   H     H_    0.190857 0.447159 0.087780 0.096721
H16   H     H_    0.809142 0.552841 0.912220 0.096716
H17   H     H_    0.345618 0.044248 0.382254 0.106690
H18   H     H_    0.654396 0.955757 0.617747 0.106704
H19   H     H_    0.595179 0.077367 0.633410 0.096790
H20   H     H_    0.404802 0.922632 0.366604 0.096803
H21   H     H_    0.904796 0.577368 0.366607 0.096801
H22   H     H_    0.095193 0.422633 0.633400 0.096800
H23   H     H_    0.154390 0.544246 0.617746 0.106687
H24   H     H_    0.845633 0.455747 0.382256 0.106689
H25   H     H_    0.198883 0.086492 0.565167 0.115109
H26   H     H_    0.801227 0.913528 0.434834 0.115132
H27   H     H_    0.708508 0.141323 0.457421 0.112863
H28   H     H_    0.291272 0.858713 0.542611 0.112875
H29   H     H_    0.791230 0.641278 0.542619 0.112879
H30   H     H_    0.208641 0.358699 0.457398 0.112872
H31   H     H_    0.301194 0.586477 0.434833 0.115124
H32   H     H_    0.698998 0.413488 0.565168 0.115098
H33   H     H_    0.268925 0.216440 0.605419 0.113693
H34   H     H_    0.731126 0.783666 0.394521 0.113683
H35   H     H_    0.638769 0.271184 0.416961 0.119996
H36   H     H_    0.361111 0.729003 0.583179 0.119982
H37   H     H_    0.861089 0.770961 0.583201 0.119986
H38   H     H_    0.138839 0.228929 0.416880 0.119989
H39   H     H_    0.231114 0.716366 0.394537 0.113684
H40   H     H_    0.768977 0.283452 0.605363 0.113703
H41   H     H_    0.208596 0.724638 0.145361 0.121456
H42   H     H_    0.791391 0.275371 0.854651 0.121470
H43   H     H_    0.688734 0.666008 0.004043 0.123680
H44   H     H_    0.311261 0.333989 0.995967 0.123688
H45   H     H_    0.811296 0.165995 0.995910 0.123690
H46   H     H_    0.188726 0.833995 0.004054 0.123679
H47   H     H_    0.291423 0.224648 0.854616 0.121472
H48   H     H_    0.708593 0.775361 0.145364 0.121473
N1    N     N_R   0.408680 0.130810 0.995780 -0.046277
N2    N     N_R   0.591320 0.869190 0.004220 -0.046280
N3    N     N_R   0.591320 0.130810 0.004220 -0.049255
N4    N     N_R   0.408680 0.869190 0.995780 -0.049255
N5    N     N_R   0.908680 0.630810 0.995780 -0.049254
N6    N     N_R   0.091320 0.369190 0.004220 -0.049256
N7    N     N_R   0.091320 0.630810 0.004220 -0.046282
N8    N     N_R   0.908680 0.369190 0.995780 -0.046274
N9    N     N_R   0.421410 0.867210 0.153620 -0.052788
N10   N     N_R   0.578590 0.132790 0.846380 -0.052790
N11   N     N_R   0.578590 0.867210 0.846380 -0.058983
N12   N     N_R   0.421410 0.132790 0.153620 -0.058986
N13   N     N_R   0.921410 0.367210 0.153620 -0.058990
N14   N     N_R   0.078590 0.632790 0.846380 -0.058983
N15   N     N_R   0.078590 0.367210 0.846380 -0.052788
N16   N     N_R   0.921410 0.632790 0.153620 -0.052789
N17   N     N_R   0.403840 0.921910 0.935760 -0.040402
N18   N     N_R   0.596160 0.078090 0.064240 -0.040402
N19   N     N_R   0.596160 0.921910 0.064240 -0.036259
N20   N     N_R   0.403840 0.078090 0.935760 -0.036261
N21   N     N_R   0.903840 0.421910 0.935760 -0.036260
N22   N     N_R   0.096160 0.578090 0.064240 -0.036260
N23   N     N_R   0.096160 0.421910 0.064240 -0.040404
N24   N     N_R   0.903840 0.578090 0.935760 -0.040400
N25   N     N_R   0.426250 0.076100 0.213650 -0.044173
N26   N     N_R   0.573750 0.923900 0.786350 -0.044174
N27   N     N_R   0.573750 0.076100 0.786350 -0.036540
N28   N     N_R   0.426250 0.923900 0.213650 -0.036534
N29   N     N_R   0.926250 0.576100 0.213650 -0.036533
N30   N     N_R   0.073750 0.423900 0.786350 -0.036540
N31   N     N_R   0.073750 0.576100 0.786350 -0.044171
N32   N     N_R   0.926250 0.423900 0.213650 -0.044175
Ni1   Ni    Ni4+2 0.500000 0.131570 0.000000 0.196026
Ni2   Ni    Ni4+2 0.500000 0.868430 0.000000 0.196025
Ni3   Ni    Ni4+2 0.000000 0.631570 0.000000 0.196030
Ni4   Ni    Ni4+2 1.000000 0.368430 0.000000 0.196018
Ni5   Ni    Ni4+2 0.488900 0.000000 0.862310 0.203295
Ni6   Ni    Ni4+2 0.511100 0.000000 0.137690 0.203294
Ni7   Ni    Ni4+2 0.988900 0.500000 0.862310 0.203301
Ni8   Ni    Ni4+2 0.011100 0.500000 0.137690 0.203293
N33   N     N_3   0.411864 0.725335 0.167044 -0.212381
H49   H     H_    0.446930 0.729725 0.082696 0.093284
H50   H     H_    0.353458 0.698806 0.197713 0.082934
N34   N     N_3   0.588132 0.274666 0.832960 -0.212379
H51   H     H_    0.553089 0.270277 0.917305 0.093279
H52   H     H_    0.646544 0.301197 0.802259 0.082967
N35   N     N_3   0.663806 0.748265 0.791778 -0.214428
H53   H     H_    0.605192 0.724170 0.855726 0.092917
H54   H     H_    0.707734 0.746395 0.808396 0.095853
N36   N     N_3   0.336168 0.251722 0.208221 -0.214431
H55   H     H_    0.394778 0.275833 0.144291 0.092924
H56   H     H_    0.292256 0.253568 0.191577 0.095874
N37   N     N_3   0.836142 0.248289 0.208222 -0.214436
H57   H     H_    0.894748 0.224162 0.144310 0.092926
H58   H     H_    0.792241 0.246467 0.191559 0.095910
N38   N     N_3   0.163816 0.751730 0.791780 -0.214430
H59   H     H_    0.105204 0.775830 0.855726 0.092916
H60   H     H_    0.207742 0.753591 0.808400 0.095857
N39   N     N_3   0.088139 0.225334 0.832953 -0.212381
H61   H     H_    0.053083 0.229723 0.917299 0.093282
H62   H     H_    0.146547 0.198804 0.802269 0.082947
N40   N     N_3   0.911861 0.774664 0.167048 -0.212374
H63   H     H_    0.946931 0.770276 0.082699 0.093285
H64   H     H_    0.853457 0.801195 0.197713 0.082925
N41   N     N_3   0.629613 0.724912 0.622681 -0.213047
H65   H     H_    0.590905 0.769040 0.627554 0.101874
H66   H     H_    0.624743 0.677674 0.584337 0.094730
N42   N     N_3   0.370339 0.275184 0.377262 -0.213055
H67   H     H_    0.409088 0.231090 0.372363 0.101882
H68   H     H_    0.375190 0.322443 0.415594 0.094738
N43   N     N_3   0.465217 0.673160 0.348127 -0.208736
H69   H     H_    0.503539 0.719436 0.339011 0.105176
H70   H     H_    0.473603 0.628131 0.386075 0.098837
N44   N     N_3   0.534841 0.327004 0.652001 -0.208731
H71   H     H_    0.496469 0.280859 0.660892 0.105161
H72   H     H_    0.526543 0.372226 0.614210 0.098853
N45   N     N_3   0.034807 0.173099 0.651928 -0.208730
H73   H     H_    0.996470 0.219298 0.660875 0.105157
H74   H     H_    0.026473 0.127945 0.614086 0.098846
N46   N     N_3   0.965225 0.826801 0.348152 -0.208713
H75   H     H_    0.003515 0.780585 0.339283 0.105112
H76   H     H_    0.973561 0.871960 0.385986 0.098850
N47   N     N_3   0.870288 0.224707 0.377211 -0.213082
H77   H     H_    0.909104 0.268815 0.372129 0.101919
H78   H     H_    0.875147 0.177510 0.415622 0.094729
N48   N     N_3   0.129630 0.775113 0.622689 -0.213036
H79   H     H_    0.090933 0.731036 0.627431 0.101843
H80   H     H_    0.124796 0.822425 0.584417 0.094738

loop_
_geom_bond_atom_site_label_1
_geom_bond_atom_site_label_2
_ccdc_geom_bond_type
N2    N19   A    
C68   C80   S    
C31   N39   S    
C4    N4    A    
C41   N25   A    
N2    Ni2   S    
N13   Ni4   S    
C14   C70   S    
N41   H65   S    
C80   N48   S    
C8    H8    S    
C7    C55   A    
N6    N23   A    
C72   C76   S    
C75   C83   S    
C16   C72   S    
C76   C84   S    
C47   C62   A    
C7    N7    A    
N16   N29   A    
C65   C82   S    
C77   N45   S    
N26   Ni5   S    
N45   H73   S    
C33   C52   A    
C12   C68   S    
C34   C51   A    
C10   C66   S    
C41   H17   S    
C22   H46   S    
N12   N25   A    
N17   Ni5   S    
N6    Ni4   S    
C35   N19   A    
C28   N36   S    
C11   C76   S    
N35   H54   S    
C10   C73   S    
C45   H21   S    
C23   C49   S    
C39   C54   A    
N47   H78   S    
C37   N21   A    
C18   C21   D    
C13   C81   S    
N5    Ni3   S    
C47   N31   A    
C3    H3    S    
C1    C49   A    
C14   C77   S    
C64   C86   S    
C26   N10   A    
C67   H27   S    
C32   N40   S    
C61   C87   S    
C43   C58   A    
C9    C85   S    
N9    Ni2   S    
C37   C56   A    
C60   C82   S    
N44   H71   S    
C6    C54   A    
C38   C55   A    
N14   Ni3   S    
C11   C67   S    
C6    H6    S    
C48   N32   A    
C11   C87   S    
C70   C74   S    
C9    H33   S    
C57   C83   S    
N8    N21   A    
C69   C73   S    
N40   H63   S    
C30   N38   S    
C6    N6    A    
C2    C50   A    
C17   C55   S    
N1    Ni1   S    
N11   Ni2   S    
C18   C56   S    
N4    N17   A    
C38   H14   S    
C13   H37   S    
C78   C86   S    
C34   N18   A    
C19   C53   S    
C77   C85   S    
C67   C84   S    
C15   H39   S    
C79   C87   S    
C63   C85   S    
C24   C50   S    
N41   H66   S    
C8    C56   A    
N37   H57   S    
N13   N32   A    
C25   C57   A    
C20   H44   S    
C35   H11   S    
C21   H45   S    
N34   H52   S    
C4    C52   A    
C75   N43   S    
C44   H20   S    
C19   H43   S    
C66   C78   S    
C29   C61   A    
N20   Ni5   S    
C28   N12   A    
C65   C77   S    
N18   Ni6   S    
C17   H41   S    
N43   H69   S    
C2    N2    A    
C73   C81   S    
C31   C63   A    
C27   N35   S    
C67   C79   S    
N46   H75   S    
C32   C64   A    
C20   C54   S    
N10   Ni1   S    
C78   N46   S    
N47   H77   S    
N16   Ni3   S    
C3    C51   A    
C15   C83   S    
N3    N18   A    
N33   H50   S    
C62   C88   S    
C16   C84   S    
N15   Ni4   S    
N39   H61   S    
N1    N20   A    
N29   Ni8   S    
N38   H60   S    
N48   H80   S    
N35   H53   S    
C58   C84   S    
C40   H16   S    
C31   N15   A    
N5    N24   A    
C79   N47   S    
C15   C80   S    
C32   N16   A    
C20   C23   D    
C44   C57   A    
C12   C88   S    
C72   H32   S    
C35   C50   A    
C42   N26   A    
N12   Ni1   S    
N30   Ni7   S    
C23   H47   S    
C8    N8    A    
C43   H19   S    
N28   Ni6   S    
C26   C58   A    
C38   N22   A    
C28   C60   A    
C15   C71   S    
C68   H28   S    
N19   Ni6   S    
N22   Ni8   S    
C48   H24   S    
N21   Ni7   S    
N33   H49   S    
N44   H72   S    
N23   Ni8   S    
C46   H22   S    
C4    H4    S    
N24   Ni7   S    
C29   N37   S    
C18   H42   S    
C3    N3    A    
C9    C74   S    
C14   C82   S    
N36   H56   S    
N27   Ni5   S    
C21   C51   S    
C72   C87   S    
C1    N1    A    
N34   H51   S    
C36   N20   A    
N7    N22   A    
C22   C52   S    
C74   C82   S    
C76   N44   S    
N32   Ni8   S    
C13   C78   S    
C10   C86   S    
C1    H1    S    
C66   H26   S    
C39   N23   A    
C68   C83   S    
C65   H25   S    
C40   N24   A    
C11   H35   S    
C5    N5    A    
C59   C81   S    
C41   C60   A    
N42   H68   S    
N40   H64   S    
C10   H34   S    
N11   N26   A    
C42   C59   A    
C5    H5    S    
C36   H12   S    
C39   H15   S    
N4    Ni2   S    
N9    N28   A    
C26   N34   S    
N15   N30   A    
C7    H7    S    
N10   N27   A    
N8    Ni4   S    
C45   C64   A    
C17   C22   D    
C14   H38   S    
C71   H31   S    
C46   C63   A    
C16   C79   S    
N38   H59   S    
C13   C69   S    
C30   C62   A    
C19   C24   D    
C5    C53   A    
N45   H74   S    
N7    Ni3   S    
C80   C88   S    
C27   N11   A    
C27   C59   A    
C66   C81   S    
C37   H13   S    
N25   Ni6   S    
C24   H48   S    
C48   C61   A    
C73   N41   S    
C70   H30   S    
C47   H23   S    
N14   N31   A    
C69   H29   S    
C34   H10   S    
N3    Ni1   S    
N31   Ni7   S    
C25   N33   S    
C16   H40   S    
N48   H79   S    
C9    C65   S    
C30   N14   A    
C46   N30   A    
C29   N13   A    
C71   C88   S    
C42   H18   S    
C69   C86   S    
N42   H67   S    
C74   N42   S    
C2    H2    S    
C40   C53   A    
C12   C75   S    
N43   H70   S    
C25   N9    A    
C44   N28   A    
C33   H9    S    
N37   H58   S    
N36   H55   S    
C33   N17   A    
C70   C85   S    
C45   N29   A    
C12   H36   S    
C36   C49   A    
N46   H76   S    
N39   H62   S    
C71   C75   S    
C43   N27   A    
