data_mof_unit_31417.cif
_audit_creation_date              2012-12-11T15:46:59-0500
_audit_creation_method            fapswitch 2.2
_symmetry_space_group_name_H-M    P1
_symmetry_Int_Tables_number       1
_space_group_crystal_system       triclinic
_cell_length_a                    11.543475
_cell_length_b                    11.540529
_cell_length_c                    19.554712
_cell_angle_alpha                 90.472794
_cell_angle_beta                  90.088334
_cell_angle_gamma                 59.948887
_cell_volume                      2254.77751128

loop_
_atom_site_label
_atom_site_type_symbol
_atom_type_description
_atom_site_fract_x
_atom_site_fract_y
_atom_site_fract_z
_atom_type_partial_charge
C1    C     C_R   0.640491 0.117290 0.599268 0.546293
C2    C     C_1   0.653067 0.149571 0.668646 0.004189
C3    C     C_R   0.654316 0.687281 0.188106 0.016387
C4    C     C_R   0.612522 0.745974 0.598642 0.545824
C5    C     C_R   0.531317 0.732896 0.221086 0.015869
C6    C     C_R   0.525164 0.740452 0.290813 0.042147
C7    C     C_R   0.756119 0.682225 0.297389 -0.176943
C8    C     C_R   0.762460 0.677566 0.226083 -0.174304
C9    C     C_3   0.428959 0.688512 0.218605 -0.256224
C10   C     C_3   0.425842 0.694279 0.295794 -0.263341
C11   C     C_R   0.638458 0.705725 0.330318 0.023309
C12   C     C_1   0.641348 0.703901 0.668011 0.004453
C13   C     C_R   0.158721 0.186153 0.187926 0.004927
C14   C     C_R   0.209469 0.258287 0.221276 0.012757
C15   C     C_R   0.233570 0.243250 0.290220 0.038962
C16   C     C_R   0.241063 0.145258 0.598203 0.546813
C17   C     C_R   0.181025 0.066322 0.293780 -0.156290
C18   C     C_R   0.156527 0.081009 0.223360 -0.149923
C19   C     C_3   0.159350 0.405443 0.225176 -0.258598
C20   C     C_3   0.184087 0.388901 0.301351 -0.260902
C21   C     C_R   0.210360 0.154954 0.328618 0.016225
C22   C     C_R   0.687200 0.194090 0.199016 -0.019054
C23   C     C_1   0.126656 0.198829 0.859289 0.004720
C24   C     C_R   0.794975 0.091893 0.234297 0.083257
C25   C     C_R   0.789504 0.075536 0.303328 -0.032999
C26   C     C_R   0.572382 0.275487 0.307621 -0.156357
C27   C     C_R   0.578685 0.291894 0.237029 -0.169943
C28   C     C_R   0.645890 0.113839 0.403405 0.549310
C29   C     C_3   0.868027 0.944631 0.220375 0.243763
C30   C     C_3   0.864581 0.926194 0.296541 -0.216581
C31   C     C_R   0.673364 0.159931 0.339957 0.003894
C32   C     C_R   0.081727 0.231193 0.928585 0.543103
C33   C     C_R   0.683904 0.604411 0.929499 0.544392
C34   C     C_1   0.171553 0.170264 0.727718 -0.030414
C35   C     C_R   0.708370 0.206699 0.930130 0.542837
C36   C     C_R   0.084923 0.234649 0.124578 0.545369
C37   C     C_R   0.681193 0.615328 0.124190 0.549908
C38   C     C_R   0.709951 0.212326 0.127954 0.539376
C39   C     C_R   0.615861 0.740556 0.401732 0.542292
C40   C     C_R   0.247724 0.139106 0.400160 0.544593
C41   C     C_1   0.670334 0.646457 0.860129 0.005686
C42   C     C_1   0.654842 0.683680 0.728445 -0.030731
C43   C     C_1   0.663431 0.666667 0.799697 -0.030298
C44   C     C_1   0.150142 0.182302 0.798943 -0.030037
C45   C     C_1   0.195370 0.160867 0.667395 0.003957
C46   C     C_1   0.678544 0.191345 0.860770 0.004977
C47   C     C_1   0.658604 0.167167 0.729031 -0.030448
C48   C     C_1   0.665663 0.180933 0.800331 -0.029909
Cr1   Cr    Cr6+3 0.404720 0.198220 0.499960 1.025163
Cr2   Cr    Cr6+3 0.698290 0.897110 0.500380 1.024582
Cr3   Cr    Cr6+3 0.396970 0.904720 0.499610 1.027389
Cr4   Cr    Cr6+3 0.926290 0.152010 0.028150 1.072044
Cr5   Cr    Cr6+3 0.921440 0.451830 0.027490 1.034986
Cr6   Cr    Cr6+3 0.626370 0.446880 0.028730 1.030340
F1    F     F_    0.996450 0.898804 0.196345 -0.655605
H1    H     H_    0.842997 0.665365 0.326531 0.121662
H2    H     H_    0.855586 0.653312 0.201365 0.136267
H3    H     H_    0.467273 0.585202 0.199368 0.164971
H4    H     H_    0.333491 0.764972 0.195076 0.166417
H5    H     H_    0.328338 0.771650 0.317080 0.150111
H6    H     H_    0.468402 0.594133 0.319832 0.134257
H7    H     H_    0.169365 0.991934 0.321301 0.133629
H8    H     H_    0.123619 0.018759 0.198396 0.214142
H9    H     H_    0.051856 0.466807 0.212751 0.159702
H10   H     H_    0.226380 0.433317 0.198086 0.144080
H11   H     H_    0.263923 0.409078 0.318424 0.138152
H12   H     H_    0.090534 0.439170 0.332290 0.137161
H13   H     H_    0.484189 0.346947 0.335532 0.125163
H14   H     H_    0.496983 0.376688 0.212086 0.122414
H15   H     H_    0.809643 0.910108 0.189692 0.116390
H16   H     H_    0.802334 0.882079 0.310548 0.120874
H17   H     H_    0.964584 0.880181 0.321248 0.162139
O1    O     O_R   0.267750 0.231960 0.575440 -0.504917
O2    O     O_R   0.596230 0.579400 0.952760 -0.503657
O3    O     O_R   0.639160 0.321170 0.958690 -0.494705
O4    O     O_R   0.527290 0.186640 0.570530 -0.494872
O5    O     O_R   0.821370 0.124220 0.104400 -0.469583
O6    O     O_R   0.037020 0.167050 0.097880 -0.492276
O7    O     O_R   0.056310 0.349620 0.102920 -0.519054
O8    O     O_R   0.797790 0.564880 0.097980 -0.506526
O9    O     O_R   0.596000 0.584270 0.104310 -0.522779
O10   O     O_R   0.638950 0.325690 0.099180 -0.509287
O11   O     O_3   0.824700 0.350240 0.028120 -0.261063
O12   O     O_R   0.685950 0.784660 0.430010 -0.508484
O13   O     O_R   0.728110 0.003450 0.576380 -0.504393
O14   O     O_R   0.682980 0.789190 0.570500 -0.493675
O15   O     O_R   0.499300 0.771880 0.575540 -0.504795
O16   O     O_R   0.285350 0.030870 0.569740 -0.493276
O17   O     O_R   0.270960 0.227070 0.423890 -0.518503
O18   O     O_R   0.530270 0.182120 0.430040 -0.506214
O19   O     O_R   0.731320 0.998570 0.424830 -0.521141
O20   O     O_R   0.502510 0.767000 0.423980 -0.518098
O21   O     O_R   0.288320 0.026340 0.429250 -0.504732
O22   O     O_3   0.499990 0.000020 0.499980 -0.254151
O23   O     O_R   0.821590 0.119350 0.952850 -0.503297
O24   O     O_R   0.037230 0.162540 0.957390 -0.495206
O25   O     O_R   0.056530 0.344750 0.951370 -0.504120
O26   O     O_R   0.798000 0.560370 0.957490 -0.493918

loop_
_geom_bond_atom_site_label_1
_geom_bond_atom_site_label_2
_ccdc_geom_bond_type
C25   C31   A    
C20   H12   S    
C19   C20   S    
C40   O21   A    
C30   H16   S    
Cr2   O12   S    
C7    C8    A    
C4    O15   A    
C7    C11   A    
C35   O3    A    
C26   C27   A    
C13   C18   A    
C20   H11   S    
Cr5   O7    S    
C39   O12   A    
C1    C2    S    
C5    C6    A    
C17   H7    S    
Cr5   O26   S    
C18   H8    S    
C4    O14   A    
C22   C38   S    
C32   O25   A    
Cr4   O23   S    
C9    H3    S    
C24   C29   S    
C12   C42   T    
Cr2   O13   S    
Cr6   O2    S    
C33   O26   A    
Cr4   O24   S    
C40   O17   A    
C4    C12   S    
C9    C10   S    
Cr1   O18   S    
C27   H14   S    
C26   C31   A    
C13   C14   A    
C38   O10   A    
C41   C43   T    
C37   O9    A    
C7    H1    S    
Cr4   O6    S    
Cr6   O11   S    
C1    O13   A    
C15   C20   S    
C37   O8    A    
C46   C48   T    
C16   O1    A    
Cr5   O8    S    
C34   C44   S    
C24   C25   A    
C13   C36   S    
C3    C8    A    
Cr3   O15   S    
C6    C11   A    
Cr2   O22   S    
C29   F1    S    
Cr5   O25   S    
C17   C21   A    
C23   C44   T    
C9    H4    S    
Cr3   O16   S    
Cr4   O11   S    
C10   H5    S    
C5    C9    S    
C29   C30   S    
Cr3   O20   S    
Cr2   O19   S    
C47   C48   S    
C19   H9    S    
C17   C18   A    
Cr1   O4    S    
C34   C45   T    
C11   C39   S    
Cr3   O21   S    
C32   O24   A    
C22   C27   A    
Cr1   O22   S    
Cr1   O1    S    
C10   H6    S    
C42   C43   S    
Cr4   O5    S    
C39   O20   A    
Cr6   O10   S    
C29   H15   S    
C25   C30   S    
C1    O4    A    
C14   C19   S    
C28   C31   S    
Cr1   O17   S    
C3    C5    A    
C36   O7    A    
C16   C45   S    
C6    C10   S    
C30   H17   S    
C38   O5    A    
C35   O23   A    
C2    C47   T    
Cr5   O11   S    
C33   C41   S    
C23   C32   S    
C26   H13   S    
C36   O6    A    
C21   C40   S    
C19   H10   S    
C28   O19   A    
C22   C24   A    
Cr6   O9    S    
Cr2   O14   S    
Cr3   O22   S    
Cr6   O3    S    
C33   O2    A    
C15   C21   A    
C3    C37   S    
C16   O16   A    
C14   C15   A    
C28   O18   A    
C35   C46   S    
C8    H2    S    
