data_mof_unit_25341.cif
_audit_creation_date              2012-12-10T18:20:00-0500
_audit_creation_method            fapswitch 2.2
_symmetry_space_group_name_H-M    P1
_symmetry_Int_Tables_number       1
_space_group_crystal_system       triclinic
_cell_length_a                    10.617811
_cell_length_b                    10.612433
_cell_length_c                    9.437893
_cell_angle_alpha                 89.423805
_cell_angle_beta                  90.440002
_cell_angle_gamma                 89.941571
_cell_volume                      1063.38363503

loop_
_atom_site_label
_atom_site_type_symbol
_atom_type_description
_atom_site_fract_x
_atom_site_fract_y
_atom_site_fract_z
_atom_type_partial_charge
C1    C     C_R   0.500110 0.259468 0.500635 0.775126
C2    C     C_R   0.499889 0.740532 0.499365 0.775125
C3    C     C_3   0.397232 0.957224 0.567219 -0.176629
C4    C     C_3   0.602768 0.042776 0.432781 -0.176628
C5    C     C_3   0.551419 0.599521 0.048144 0.677291
C6    C     C_3   0.448581 0.400479 0.951855 0.677291
C7    C     C_3   0.437859 0.596478 0.947327 -0.203512
C8    C     C_3   0.562141 0.403522 0.052673 -0.203509
C9    C     C_3   0.614543 0.504816 0.950399 -0.199836
C10   C     C_3   0.385457 0.495184 0.049601 -0.199839
C11   C     C_R   0.259461 0.499936 0.499460 0.769877
C12   C     C_R   0.740539 0.500064 0.500540 0.769877
C13   C     C_3   0.042813 0.396808 0.568580 -0.161445
C14   C     C_3   0.957187 0.603192 0.431420 -0.161445
C15   C     C_3   0.957365 0.396128 0.435149 -0.181476
C16   C     C_3   0.042634 0.603872 0.564851 -0.181476
C17   C     C_3   0.877554 0.500047 0.501486 0.027860
C18   C     C_3   0.122445 0.499953 0.498514 0.027859
C19   C     C_3   0.960720 0.500728 0.635037 -0.133775
C20   C     C_3   0.039279 0.499271 0.364963 -0.133775
C21   C     C_3   0.501537 0.038792 0.635166 -0.127008
C22   C     C_3   0.498463 0.961208 0.364834 -0.127009
C23   C     C_3   0.604151 0.956819 0.566093 -0.183805
C24   C     C_3   0.395849 0.043181 0.433907 -0.183806
C25   C     C_3   0.499859 0.877536 0.498249 0.034965
C26   C     C_3   0.500140 0.122464 0.501751 0.034965
Cu1   Cu    Cu3+1 0.500030 0.499990 0.643150 0.967420
Cu2   Cu    Cu3+1 0.499970 0.500010 0.356850 0.967420
H1    H     H_    0.919229 0.311153 0.382293 0.119247
H2    H     H_    0.080771 0.688847 0.617707 0.119247
H3    H     H_    0.081111 0.312405 0.624512 0.135862
H4    H     H_    0.918889 0.687595 0.375488 0.135863
H5    H     H_    0.926030 0.501357 0.745699 0.128567
H6    H     H_    0.073970 0.498643 0.254300 0.128567
H7    H     H_    0.689280 0.918166 0.620080 0.121561
H8    H     H_    0.310720 0.081834 0.379920 0.121561
H9    H     H_    0.503048 0.072887 0.745977 0.160931
H10   H     H_    0.496952 0.927113 0.254023 0.160930
H11   H     H_    0.313176 0.918973 0.622054 0.118792
H12   H     H_    0.686824 0.081027 0.377946 0.118792
H13   H     H_    0.386038 0.676818 0.898115 0.132483
H14   H     H_    0.613962 0.323181 0.101884 0.132482
H15   H     H_    0.710363 0.510319 0.904616 0.135030
H16   H     H_    0.289636 0.489681 0.095384 0.135028
N1    N     N_3   0.500090 0.499970 0.858290 -0.196058
N2    N     N_3   0.499910 0.500030 0.141710 -0.196058
O1    O     O_R   0.500060 0.316850 0.620870 -0.534952
O2    O     O_R   0.499940 0.683150 0.379130 -0.534952
O3    O     O_R   0.500000 0.316860 0.379090 -0.597162
O4    O     O_R   0.500000 0.683140 0.620910 -0.597162
O5    O     O_R   0.316880 0.499960 0.620870 -0.558477
O6    O     O_R   0.683120 0.500040 0.379130 -0.558477
O7    O     O_R   0.316830 0.499970 0.379090 -0.597848
O8    O     O_R   0.683170 0.500030 0.620910 -0.597849
O9    O     O_3   0.609405 0.705690 0.109211 -0.561784
C27   C     C_3   0.637862 0.794423 0.002177 -0.406424
H17   H     H_    0.550488 0.834034 0.953596 0.161208
H18   H     H_    0.699257 0.753362 0.919454 0.166395
H19   H     H_    0.690035 0.873704 0.050841 0.187579
O10   O     O_3   0.390596 0.294309 0.890788 -0.561785
C28   C     C_3   0.362129 0.205581 0.997824 -0.406417
H20   H     H_    0.300722 0.246647 0.080536 0.166392
H21   H     H_    0.449499 0.165974 0.046422 0.161209
H22   H     H_    0.309963 0.126296 0.949157 0.187577

loop_
_geom_bond_atom_site_label_1
_geom_bond_atom_site_label_2
_ccdc_geom_bond_type
C12   C17   S    
C10   N2    S    
C7    C10   S    
C4    C26   S    
Cu2   O7    S    
Cu1   O4    S    
C11   C18   S    
C9    N1    S    
C6    N1    S    
C6    O10   S    
C27   H18   S    
C28   H22   S    
C4    C22   S    
Cu2   O3    S    
C12   O6    A    
C18   C20   S    
C28   H20   S    
C11   O7    A    
C27   H19   S    
O9    C27   S    
C4    H12   S    
C20   H6    S    
Cu1   N1    S    
C3    C21   S    
C13   C15   S    
Cu1   O8    S    
C3    H11   S    
C12   O8    A    
C5    C9    S    
Cu1   O5    S    
Cu2   O6    S    
C14   C17   S    
Cu2   N2    S    
C3    C24   S    
C24   H8    S    
C1    O3    A    
C13   C18   S    
O10   C28   S    
C16   C19   S    
C5    O9    S    
C7    N1    S    
C17   C19   S    
C21   C26   S    
C8    H14   S    
C15   H1    S    
C2    C25   S    
C23   H7    S    
C21   C23   S    
C19   H5    S    
C15   C20   S    
C22   C24   S    
C9    H15   S    
C11   O5    A    
C6    C10   S    
C13   C19   S    
C10   H16   S    
C22   H10   S    
C14   C20   S    
C3    C25   S    
C23   C25   S    
C21   H9    S    
C27   H17   S    
C16   C18   S    
C5    N2    S    
Cu1   O1    S    
Cu1   Cu2   S    
C15   C17   S    
C4    C23   S    
C5    C7    S    
C1    O1    A    
C6    C8    S    
C2    O4    A    
C8    N2    S    
C2    O2    A    
C14   C16   S    
C1    C26   S    
C16   H2    S    
C13   H3    S    
C28   H21   S    
Cu2   O2    S    
C24   C26   S    
C7    H13   S    
C14   H4    S    
C8    C9    S    
C22   C25   S    
