data_mof_unit_65410.cif
_audit_creation_date              2012-12-10T16:55:49-0500
_audit_creation_method            fapswitch 2.2
_symmetry_space_group_name_H-M    P1
_symmetry_Int_Tables_number       1
_space_group_crystal_system       triclinic
_cell_length_a                    14.339679
_cell_length_b                    10.978661
_cell_length_c                    9.756787
_cell_angle_alpha                 89.807116
_cell_angle_beta                  90.542031
_cell_angle_gamma                 90.613747
_cell_volume                      1535.85056605

loop_
_atom_site_label
_atom_site_type_symbol
_atom_type_description
_atom_site_fract_x
_atom_site_fract_y
_atom_site_fract_z
_atom_type_partial_charge
C1    C     C_R   0.504313 0.265866 0.500010 0.871728
C2    C     C_1   0.771158 0.500221 0.501301 -0.162798
C3    C     C_2   0.541802 0.933507 0.408766 -0.095466
C4    C     C_2   0.489989 0.865131 0.496325 -0.207998
C5    C     C_2   0.525579 0.064294 0.390711 -0.072859
C6    C     C_2   0.520349 0.135427 0.502604 -0.347109
C7    C     C_2   0.448840 0.426932 0.924090 0.394141
C8    C     C_2   0.438179 0.441413 0.077225 -0.059071
C9    C     C_R   0.331238 0.499919 0.499523 0.822988
C10   C     C_R   0.499220 0.734047 0.499595 0.797284
C11   C     C_R   0.668775 0.500221 0.500479 0.796125
C12   C     C_1   0.228870 0.499906 0.498660 -0.140878
C13   C     C_1   0.143428 0.499924 0.498794 0.025568
C14   C     C_1   0.042741 0.499997 0.499523 0.030273
C15   C     C_1   0.957297 0.500082 0.500295 0.027262
C16   C     C_1   0.856606 0.500176 0.501084 0.012797
Cu1   Cu    Cu3+1 0.500020 0.500020 0.638630 1.019430
Cu2   Cu    Cu3+1 0.499980 0.499980 0.361370 0.980068
H1    H     H_    0.531858 0.095671 0.603492 0.182536
H2    H     H_    0.562780 0.518074 0.110471 0.205070
N1    N     N_2   0.499070 0.498660 0.846910 -0.266136
N2    N     N_2   0.499040 0.498630 0.153040 -0.315815
O1    O     O_R   0.500010 0.321960 0.617040 -0.512594
O2    O     O_R   0.499990 0.321920 0.382900 -0.578102
O3    O     O_R   0.376070 0.500020 0.617100 -0.525281
O4    O     O_R   0.376040 0.499980 0.382950 -0.569042
O5    O     O_R   0.500010 0.678080 0.617100 -0.577621
O6    O     O_R   0.499990 0.678040 0.382960 -0.554973
O7    O     O_R   0.623960 0.500020 0.617050 -0.563400
O8    O     O_R   0.623930 0.499980 0.382900 -0.556995
C17   C     C_1   0.615903 0.880645 0.328336 0.295723
N3    N     N_1   0.674891 0.838584 0.264289 -0.257110
C18   C     C_1   0.413878 0.914068 0.575379 0.269560
N4    N     N_1   0.353093 0.952821 0.638484 -0.216092
C19   C     C_1   0.517650 0.109943 0.251410 0.345365
N5    N     N_1   0.511528 0.145618 0.139961 -0.238206
Cl1   Cl    Cl    0.385915 0.305389 0.847776 -0.552105
C20   C     C_1   0.520895 0.614814 0.895803 0.387018
N6    N     N_1   0.538976 0.711522 0.935684 -0.281188
C21   C     C_1   0.359326 0.381409 0.140184 0.455604
N7    N     N_1   0.295949 0.332345 0.189157 -0.267702

loop_
_geom_bond_atom_site_label_1
_geom_bond_atom_site_label_2
_ccdc_geom_bond_type
C10   O5    A    
C8    N2    D    
Cu2   O8    S    
C2    C16   T    
C19   N5    T    
Cu2   O4    S    
Cu1   O3    S    
C14   C15   T    
C18   N4    T    
C7    Cl1   S    
C9    O3    A    
C7    C8    S    
Cu2   N2    S    
C13   C14   S    
C3    C17   S    
C6    H1    S    
Cu1   O1    S    
Cu2   O2    S    
C2    C11   S    
C5    C19   S    
C21   N7    T    
H2    N2    S    
C9    O4    A    
C1    O1    A    
C5    C6    D    
C9    C12   S    
C4    C10   S    
C15   C16   S    
Cu1   O5    S    
Cu1   O7    S    
Cu2   O6    S    
C12   C13   T    
C11   O7    A    
C1    O2    A    
Cu1   Cu2   S    
C10   O6    A    
C4    C18   S    
C8    C21   S    
C7    N1    D    
C17   N3    T    
Cu1   N1    S    
N1    C20   S    
C1    C6    S    
C11   O8    A    
C3    C5    S    
C3    C4    D    
C20   N6    T    
