data_mof_unit_63594.cif
_audit_creation_date              2012-12-10T21:19:58-0500
_audit_creation_method            fapswitch 2.2
_symmetry_space_group_name_H-M    P1
_symmetry_Int_Tables_number       1
_space_group_crystal_system       triclinic
_cell_length_a                    16.731822
_cell_length_b                    16.749107
_cell_length_c                    17.457286
_cell_angle_alpha                 90.220052
_cell_angle_beta                  90.387028
_cell_angle_gamma                 85.177744
_cell_volume                      4874.82871789

loop_
_atom_site_label
_atom_site_type_symbol
_atom_type_description
_atom_site_fract_x
_atom_site_fract_y
_atom_site_fract_z
_atom_type_partial_charge
C1    C     C_R   0.499651 0.500109 0.352873 0.915958
C2    C     C_R   0.500273 0.500214 0.647024 0.911347
C3    C     C_R   0.561265 0.509417 0.853796 -0.161425
C4    C     C_R   0.434292 0.502627 0.146479 -0.162164
C5    C     C_R   0.558689 0.525438 0.775782 0.261177
C6    C     C_R   0.433434 0.518906 0.224570 0.264098
C7    C     C_R   0.501888 0.490161 0.729468 -0.113991
C8    C     C_R   0.499664 0.490236 0.270146 -0.116818
C9    C     C_R   0.448287 0.439987 0.762028 -0.226035
C10   C     C_R   0.565726 0.446520 0.236455 -0.227093
C11   C     C_R   0.451320 0.424507 0.839993 -0.129142
C12   C     C_R   0.565906 0.430808 0.158449 -0.136041
C13   C     C_R   0.507934 0.459118 0.885312 0.084335
C14   C     C_R   0.500095 0.458679 0.114036 0.088992
C15   C     C_1   0.505921 0.450980 0.965633 -0.015868
C16   C     C_1   0.503510 0.450860 0.033635 -0.015635
C17   C     C_R   0.837062 0.443173 0.458536 -0.277053
C18   C     C_R   0.163603 0.549191 0.549458 -0.275693
C19   C     C_R   0.752812 0.443820 0.459037 0.003519
C20   C     C_R   0.247837 0.548632 0.548957 0.011962
C21   C     C_R   0.743140 0.556711 0.541108 0.011926
C22   C     C_R   0.256238 0.451153 0.450439 0.018854
C23   C     C_R   0.511021 0.346689 0.504211 0.883166
C24   C     C_R   0.488952 0.653631 0.499679 0.916279
C25   C     C_R   0.827270 0.558342 0.542319 0.211748
C26   C     C_R   0.172073 0.449757 0.448904 0.210713
C27   C     C_R   0.875523 0.500771 0.500467 0.053937
C28   C     C_R   0.124489 0.499412 0.499150 0.059421
C29   C     C_1   0.963437 0.500216 0.499990 0.078061
C30   C     C_1   0.036582 0.499879 0.499648 0.080214
C31   C     C_R   0.517693 0.264005 0.529720 -0.085114
C32   C     C_R   0.482168 0.740459 0.503237 -0.093830
C33   C     C_R   0.455061 0.236615 0.572777 -0.224865
C34   C     C_R   0.548724 0.781986 0.485322 -0.193107
C35   C     C_R   0.460877 0.159030 0.600752 0.291842
C36   C     C_R   0.545599 0.864352 0.495030 0.302760
C37   C     C_R   0.529298 0.107731 0.583936 0.089013
C38   C     C_R   0.475454 0.905159 0.524744 0.085175
C39   C     C_R   0.594508 0.136856 0.546388 -0.148118
C40   C     C_R   0.407511 0.864399 0.538486 -0.156973
C41   C     C_R   0.588845 0.215084 0.519406 -0.186872
C42   C     C_R   0.410773 0.782080 0.527868 -0.171564
C43   C     C_2   0.525682 0.021496 0.585948 -0.120415
C44   C     C_2   0.471107 0.990299 0.541138 -0.142950
H1    H     H_    0.401548 0.275476 0.584962 0.187023
H2    H     H_    0.603309 0.750446 0.463958 0.191198
H3    H     H_    0.871923 0.397925 0.425537 0.184828
H4    H     H_    0.129255 0.588323 0.588932 0.185588
H5    H     H_    0.706286 0.601101 0.573088 0.191092
H6    H     H_    0.292650 0.413032 0.411811 0.166113
H7    H     H_    0.358583 0.750797 0.541404 0.169401
H8    H     H_    0.638709 0.236456 0.488470 0.164249
H9    H     H_    0.422913 0.028285 0.514434 0.184547
H10   H     H_    0.575025 0.983881 0.611108 0.189268
H11   H     H_    0.603497 0.537741 0.890171 0.177215
H12   H     H_    0.384511 0.525928 0.110737 0.176399
H13   H     H_    0.404834 0.411884 0.726939 0.175546
H14   H     H_    0.616793 0.423511 0.270644 0.168634
H15   H     H_    0.409094 0.386600 0.865004 0.163257
H16   H     H_    0.617558 0.398001 0.132682 0.157515
N1    N     N_R   0.707230 0.500020 0.500030 -0.113796
N2    N     N_R   0.292770 0.499980 0.499970 -0.110963
O1    O     O_R   0.566570 0.500000 0.389130 -0.624680
O2    O     O_R   0.433430 0.500000 0.610870 -0.633934
O3    O     O_R   0.433480 0.499990 0.389100 -0.576160
O4    O     O_R   0.566520 0.500010 0.610900 -0.576226
O5    O     O_R   0.574410 0.384200 0.500000 -0.623471
O6    O     O_R   0.425590 0.615800 0.500000 -0.609517
O7    O     O_R   0.441320 0.384200 0.499980 -0.625391
O8    O     O_R   0.558680 0.615800 0.500020 -0.618930
Zn1   Zn    Zn3+2 0.588860 0.500000 0.500020 0.981861
Zn2   Zn    Zn3+2 0.411140 0.500000 0.499980 0.982896
H17   H     H_    0.723822 0.399238 0.426453 0.136066
H18   H     H_    0.277345 0.587276 0.587885 0.141510
Br1   Br    Br    0.873416 0.639715 0.601431 -0.430100
Br2   Br    Br    0.124908 0.379682 0.377768 -0.460253
H19   H     H_    0.647290 0.097414 0.533049 0.192118
H20   H     H_    0.352881 0.895993 0.559719 0.177423
Br3   Br    Br    0.637045 0.917749 0.463229 -0.493409
Br4   Br    Br    0.372963 0.124345 0.658606 -0.483933
Br5   Br    Br    0.630092 0.599680 0.737287 -0.467392
Br6   Br    Br    0.342801 0.584360 0.263756 -0.449321

loop_
_geom_bond_atom_site_label_1
_geom_bond_atom_site_label_2
_ccdc_geom_bond_type
C6    Br6   S    
C27   C29   S    
C1    C8    S    
C33   H1    S    
C23   O7    A    
C2    C7    S    
C21   H5    S    
C24   O8    A    
C39   C41   A    
C39   H19   S    
C35   C37   A    
O5    Zn1   S    
C15   C16   T    
C35   Br4   S    
C23   O5    A    
C17   C19   A    
C3    H11   S    
C44   H9    S    
C1    O3    A    
C31   C33   A    
O8    Zn1   S    
C34   H2    S    
C41   H8    S    
C18   C20   A    
C3    C13   A    
C42   H7    S    
C22   H6    S    
N1    Zn1   S    
C40   C42   A    
C4    H12   S    
C20   N2    A    
C11   H15   S    
C1    O1    A    
C2    O2    A    
C20   H18   S    
C17   C27   A    
C19   H17   S    
C18   C28   A    
C9    H13   S    
C4    C6    A    
C5    C7    A    
C6    C8    A    
C2    O4    A    
C25   Br1   S    
C23   C31   S    
C37   C43   S    
O7    Zn2   S    
C43   C44   D    
C24   C32   S    
C38   C44   S    
C29   C30   T    
C22   N2    A    
C5    Br5   S    
C43   H10   S    
C26   Br2   S    
O4    Zn1   S    
O6    Zn2   S    
N2    Zn2   S    
C9    C11   A    
C10   C12   A    
C40   H20   S    
O1    Zn1   S    
C13   C15   S    
C14   C16   S    
C7    C9    A    
C21   C25   A    
C31   C41   A    
C10   H14   S    
C21   N1    A    
C17   H3    S    
C12   C14   A    
C3    C5    A    
C36   Br3   S    
C18   H4    S    
C25   C27   A    
O3    Zn2   S    
C26   C28   A    
C36   C38   A    
C37   C39   A    
C38   C40   A    
C11   C13   A    
C19   N1    A    
C28   C30   S    
C33   C35   A    
C34   C36   A    
O2    Zn2   S    
C4    C14   A    
C24   O6    A    
C12   H16   S    
C8    C10   A    
C22   C26   A    
C32   C42   A    
C32   C34   A    
