data_mof_unit_13549.cif
_audit_creation_date              2012-12-10T20:38:17-0500
_audit_creation_method            fapswitch 2.2
_symmetry_space_group_name_H-M    P1
_symmetry_Int_Tables_number       1
_space_group_crystal_system       triclinic
_cell_length_a                    9.901255
_cell_length_b                    10.681599
_cell_length_c                    16.731867
_cell_angle_alpha                 91.580423
_cell_angle_beta                  85.790703
_cell_angle_gamma                 87.955888
_cell_volume                      1762.87685067

loop_
_atom_site_label
_atom_site_type_symbol
_atom_type_description
_atom_site_fract_x
_atom_site_fract_y
_atom_site_fract_z
_atom_type_partial_charge
C1    C     C_R   0.499146 0.739955 0.493973 0.960522
C2    C     C_R   0.370467 0.423855 0.783628 0.472888
C3    C     C_R   0.396292 0.457158 0.142493 0.403076
C4    C     C_R   0.417749 0.515770 0.216380 0.433270
C5    C     C_R   0.611007 0.370664 0.229925 0.550833
C6    C     C_R   0.591113 0.315229 0.156047 0.513319
C7    C     C_R   0.482143 0.355661 0.113737 -0.401933
C8    C     C_2   0.535787 0.384522 0.974760 0.582692
C9    C     C_2   0.475676 0.311859 0.030005 0.647431
C10   C     C_R   0.523162 0.468924 0.261342 -0.464520
C11   C     C_R   0.379919 0.941654 0.472671 -0.350337
C12   C     C_R   0.484227 0.480393 0.651062 1.016719
C13   C     C_R   0.500459 0.870049 0.473093 -0.274951
C14   C     C_R   0.624442 0.928427 0.451832 0.435936
C15   C     C_R   0.627326 0.058893 0.456916 0.575962
C16   C     C_R   0.506318 0.128350 0.477747 -0.282559
C17   C     C_R   0.383932 0.069223 0.476522 -0.140163
C18   C     C_3   0.256407 0.087817 0.529309 0.920756
C19   C     C_3   0.249573 0.945933 0.526079 1.020194
C20   C     C_R   0.918158 0.517234 0.569764 -0.140979
C21   C     C_R   0.938265 0.469409 0.432550 0.613764
C22   C     C_R   0.081330 0.468977 0.432576 0.603306
C23   C     C_R   0.502685 0.259932 0.495293 0.933429
C24   C     C_R   0.060827 0.517013 0.570368 -0.120410
C25   C     C_3   0.047997 0.631181 0.625283 0.872514
C26   C     C_3   0.895325 0.627950 0.624743 1.002980
C27   C     C_R   0.517716 0.497380 0.346897 0.946928
C28   C     C_R   0.486733 0.425221 0.730812 -0.434306
C29   C     C_R   0.609350 0.369143 0.754510 0.371041
C30   C     C_R   0.621122 0.343581 0.834676 0.513184
C31   C     C_R   0.510338 0.365936 0.889914 -0.324205
C32   C     C_R   0.381034 0.393764 0.863899 0.308362
N1    N     N_R   0.857140 0.500860 0.500530 -0.181154
N2    N     N_R   0.142780 0.500820 0.500530 -0.178279
O1    O     O_R   0.385310 0.683210 0.499990 -0.590332
O2    O     O_R   0.614650 0.683240 0.500000 -0.541026
O3    O     O_R   0.371780 0.500000 0.615800 -0.538333
O4    O     O_R   0.601120 0.500040 0.615800 -0.549020
O5    O     O_R   0.385350 0.316760 0.500000 -0.571829
O6    O     O_R   0.614690 0.316790 0.500010 -0.568197
O7    O     O_R   0.398880 0.499960 0.384200 -0.548215
O8    O     O_R   0.628220 0.500000 0.384200 -0.538913
Zn1   Zn    Zn3+2 0.346870 0.499980 0.499990 1.104322
Zn2   Zn    Zn3+2 0.653130 0.500020 0.500010 1.130070
O9    O     O_3   0.722276 0.349886 0.701278 -0.516359
C33   C     C_3   0.728333 0.223526 0.674158 -0.142821
H1    H     H_    0.633085 0.197071 0.647570 0.129188
H2    H     H_    0.750536 0.159868 0.723433 0.174565
H3    H     H_    0.812142 0.210421 0.626549 0.206860
F1    F     F_    0.677334 0.221110 0.125695 -0.597087
O10   O     O_3   0.745196 0.860482 0.435336 -0.510036
C34   C     C_3   0.752967 0.820515 0.354026 -0.178108
H4    H     H_    0.666169 0.762462 0.340170 0.105268
H5    H     H_    0.846109 0.760566 0.341048 0.186142
H6    H     H_    0.759208 0.901928 0.313979 0.178082
F2    F     F_    0.747961 0.115140 0.446140 -0.568457
O11   O     O_3   0.280103 0.139010 0.605866 -0.661039
C35   C     C_3   0.155780 0.166395 0.650649 -0.103035
H7    H     H_    0.089358 0.084432 0.652464 0.168198
H8    H     H_    0.102367 0.248812 0.626489 0.207972
H9    H     H_    0.176936 0.191026 0.713240 0.172658
F3    F     F_    0.157050 0.151677 0.490039 -0.643963
F4    F     F_    0.268115 0.895097 0.599889 -0.642318
O12   O     O_3   0.126855 0.909560 0.493812 -0.525894
C36   C     C_3   0.144960 0.856253 0.415498 -0.111697
H10   H     H_    0.211159 0.770122 0.413315 0.171916
H11   H     H_    0.184521 0.925642 0.372229 0.139815
H12   H     H_    0.045049 0.828577 0.396927 0.204710
F5    F     F_    0.882616 0.439741 0.363483 -0.535405
F6    F     F_    0.156716 0.436981 0.363834 -0.568197
O13   O     O_3   0.095117 0.608668 0.701130 -0.547473
C37   C     C_3   0.092583 0.721030 0.747744 -0.029892
H13   H     H_    0.106628 0.697209 0.810791 0.171388
H14   H     H_    0.994350 0.774965 0.747239 0.140444
H15   H     H_    0.177765 0.779909 0.727150 0.214646
O14   O     O_3   0.325347 0.608420 0.247448 -0.520402
C38   C     C_3   0.390423 0.723468 0.254415 -0.362850
H16   H     H_    0.313350 0.800834 0.251695 0.184965
H17   H     H_    0.470081 0.737142 0.205083 0.145573
H18   H     H_    0.433897 0.732414 0.313387 0.148082
F7    F     F_    0.102642 0.732151 0.588066 -0.614312
F8    F     F_    0.829534 0.599230 0.697457 -0.634961
F9    F     F_    0.837483 0.730745 0.589742 -0.609557
F10   F     F_    0.708926 0.321008 0.273499 -0.521180
O15   O     O_3   0.402614 0.209516 0.005872 -0.634266
C39   C     C_3   0.339762 0.147578 0.071180 -0.248691
H19   H     H_    0.263796 0.210739 0.105944 0.211507
H20   H     H_    0.416066 0.108920 0.110379 0.185030
H21   H     H_    0.284827 0.067522 0.047490 0.179778
O16   O     O_3   0.270963 0.412102 0.919549 -0.583544
C40   C     C_3   0.173636 0.321792 0.906192 -0.027333
H22   H     H_    0.108298 0.313527 0.962416 0.201920
H23   H     H_    0.219927 0.226805 0.890373 0.130860
H24   H     H_    0.107006 0.352176 0.859278 0.216350
O17   O     O_3   0.286649 0.491198 0.099459 -0.542742
C41   C     C_3   0.293956 0.616846 0.075592 -0.138562
H25   H     H_    0.228083 0.678646 0.117557 0.195238
H26   H     H_    0.253887 0.623905 0.015646 0.193285
H27   H     H_    0.398774 0.651990 0.070546 0.107102
F11   F     F_    0.248453 0.456679 0.758790 -0.609301
O18   O     O_3   0.622783 0.476072 0.999910 -0.624224
C42   C     C_3   0.622081 0.582767 0.951851 -0.255047
H28   H     H_    0.689981 0.566374 0.896490 0.230234
H29   H     H_    0.518146 0.612127 0.936862 0.132625
H30   H     H_    0.662363 0.661875 0.985981 0.192707
F12   F     F_    0.743887 0.308126 0.859741 -0.612199

loop_
_geom_bond_atom_site_label_1
_geom_bond_atom_site_label_2
_ccdc_geom_bond_type
C10   C27   S    
C8    C9    D    
C26   F9    S    
O17   C41   S    
O16   C40   S    
O15   C39   S    
C33   H3    S    
C11   C19   S    
O18   C42   S    
C12   C28   S    
C28   C29   A    
C8    C31   S    
C3    C7    A    
C30   C31   A    
C39   H20   S    
C21   N1    A    
C35   H8    S    
C23   O6    A    
C41   H27   S    
C42   H30   S    
C2    C32   A    
C18   C19   S    
C12   O3    A    
C9    O15   S    
C32   O16   S    
C20   C24   A    
C19   F4    S    
C16   C17   A    
C36   H11   S    
C41   H26   S    
C25   O13   S    
O1    Zn1   S    
C8    O18   S    
C34   H6    S    
C38   H16   S    
C35   H9    S    
C2    F11   S    
C26   F8    S    
C21   C22   A    
C30   F12   S    
C25   F7    S    
O7    Zn1   S    
O8    Zn2   S    
C37   H15   S    
C34   H5    S    
C38   H17   S    
C22   N2    A    
C33   H2    S    
O10   C34   S    
C24   C25   S    
C37   H14   S    
C40   H22   S    
C5    F10   S    
C39   H19   S    
C18   F3    S    
O5    Zn1   S    
C35   H7    S    
O9    C33   S    
C24   N2    A    
C21   F5    S    
O3    Zn1   S    
O4    Zn2   S    
C29   C30   A    
C40   H23   S    
C27   O7    A    
C18   O11   S    
C14   O10   S    
C19   O12   S    
C36   H12   S    
C41   H25   S    
C17   C18   S    
O14   C38   S    
C42   H29   S    
C20   N1    A    
C16   C23   S    
O2    Zn2   S    
C1    C13   S    
C4    C10   A    
C3    C4    A    
C34   H4    S    
C1    O1    A    
C38   H18   S    
C7    C9    S    
C33   H1    S    
C11   C17   A    
C6    F1    S    
N1    Zn2   S    
C31   C32   A    
N2    Zn1   S    
C37   H13   S    
C39   H21   S    
C3    O17   S    
C6    C7    A    
C15   F2    S    
C25   C26   S    
C5    C10   A    
O12   C36   S    
C40   H24   S    
C11   C13   A    
C27   O8    A    
O11   C35   S    
C5    C6    A    
C20   C26   S    
C23   O5    A    
C12   O4    A    
C42   H28   S    
C4    O14   S    
O6    Zn2   S    
O13   C37   S    
C36   H10   S    
C29   O9    S    
C14   C15   A    
C2    C28   A    
C13   C14   A    
C22   F6    S    
C15   C16   A    
C1    O2    A    
