data_mof_unit_26806.cif
_audit_creation_date              2013-03-05T16:30:42-0500
_audit_creation_method            fapswitch 2.2
_symmetry_space_group_name_H-M    P1
_symmetry_Int_Tables_number       1
_space_group_crystal_system       triclinic
_cell_length_a                    10.916928
_cell_length_b                    10.812924
_cell_length_c                    9.553729
_cell_angle_alpha                 89.815911
_cell_angle_beta                  90.67635
_cell_angle_gamma                 90.226402
_cell_volume                      1127.66652126

loop_
_atom_site_label
_atom_site_type_symbol
_atom_site_description
_atom_site_fract_x
_atom_site_fract_y
_atom_site_fract_z
_atom_type_partial_charge
O1    O     O_R   0.500000 0.319640 0.618810 -0.584524
O2    O     O_R   0.500010 0.319680 0.381230 -0.584506
C1    C     C_R   0.501470 0.262452 0.500264 0.785846
O3    O     O_R   0.321940 0.499980 0.618760 -0.592371
O4    O     O_R   0.321950 0.500020 0.381180 -0.481631
C2    C     C_R   0.265283 0.503168 0.498947 0.899379
Cu1   Cu    Cu3+1 0.499990 0.499980 0.640670 0.952078
Cu2   Cu    Cu3+1 0.500010 0.500020 0.359330 1.013351
O5    O     O_R   0.499990 0.680320 0.618770 -0.588628
O6    O     O_R   0.500000 0.680360 0.381190 -0.570140
O7    O     O_R   0.678050 0.499980 0.618820 -0.581969
O8    O     O_R   0.678060 0.500020 0.381240 -0.587101
C3    C     C_R   0.501466 0.737689 0.499990 0.810973
C4    C     C_R   0.734744 0.503263 0.500888 0.869543
C5    C     C_2   0.931171 0.528667 0.387160 -0.227916
C6    C     C_2   0.866695 0.516235 0.504815 -0.386574
H1    H     H_    0.884399 0.531260 0.286178 0.201470
H2    H     H_    0.909502 0.523010 0.607506 0.164051
C7    C     C_2   0.064672 0.547311 0.389428 0.386130
C8    C     C_2   0.132684 0.501700 0.496760 -0.432329
H3    H     H_    0.091047 0.453585 0.583880 0.129003
C9    C     C_R   0.484251 0.063452 0.623311 0.138797
C10   C     C_R   0.511335 0.129430 0.501865 -0.091369
C11   C     C_R   0.553588 0.065388 0.384357 -0.230872
H4    H     H_    0.582381 0.114431 0.291230 0.156830
C12   C     C_R   0.553869 0.936422 0.384548 -0.194860
H5    H     H_    0.584228 0.888660 0.292296 0.153391
C13   C     C_R   0.510879 0.871049 0.501543 -0.078039
C14   C     C_R   0.483735 0.936116 0.623157 0.104162
C15   C     C_3   0.372052 0.929668 0.712036 -0.443082
C16   C     C_3   0.373123 0.069973 0.712533 -0.481643
H6    H     H_    0.291600 0.889408 0.655735 0.212852
H7    H     H_    0.391161 0.889066 0.816962 0.198966
H8    H     H_    0.293094 0.111610 0.657066 0.197870
H9    H     H_    0.394190 0.109783 0.817110 0.197140
C17   C     C_R   0.591538 0.557701 0.074436 0.169741
N1    N     N_R   0.500780 0.500930 0.147930 -0.227455
C18   C     C_R   0.418234 0.429457 0.073974 0.564117
C19   C     C_R   0.417231 0.432051 0.924175 -0.157731
H10   H     H_    0.348229 0.380983 0.866303 0.159205
N2    N     N_R   0.500780 0.500890 0.852020 -0.212446
C20   C     C_R   0.592209 0.556764 0.927306 0.245807
C21   C     C_3   0.627646 0.689809 0.920344 -0.464158
C22   C     C_3   0.624391 0.691451 0.079001 -0.483536
H11   H     H_    0.721215 0.702946 0.877945 0.201664
H12   H     H_    0.555975 0.748693 0.871289 0.213778
H13   H     H_    0.715543 0.707966 0.128741 0.205820
H14   H     H_    0.548378 0.748805 0.118918 0.216170
O9    O     O_3   0.329055 0.364816 0.145955 -0.534803
C23   C     C_3   0.333227 0.236693 0.115576 0.046553
H15   H     H_    0.344925 0.185745 0.215893 0.186638
H16   H     H_    0.410714 0.208054 0.047853 0.090001
C24   C     C_3   0.212255 0.195369 0.049496 -0.790078
H17   H     H_    0.196833 0.242926 0.947781 0.233483
H18   H     H_    0.213932 0.093995 0.031290 0.220479
H19   H     H_    0.135411 0.217192 0.120382 0.264960
N3    N     N_R   0.118878 0.614639 0.275241 0.153288
O10   O     O_R   0.075375 0.601555 0.148745 -0.367448
O11   O     O_R   0.195683 0.704423 0.300698 -0.368330

loop_
_geom_bond_atom_site_label_1
_geom_bond_atom_site_label_2
_geom_bond_distance
_ccdc_geom_bond_type
C17   C20   1.405817 A    
O4    Cu2   1.957493 S    
C15   H6    1.112455 S    
C10   C11   1.404411 A    
C3    C13   1.445376 S    
C14   C15   1.495254 S    
C9    C14   1.376875 A    
C23   H16   1.116412 S    
C2    C8    1.447503 S    
N2    C20   1.363704 A    
C1    C10   1.442834 S    
C7    C8    1.351917 D    
C22   H13   1.111716 S    
Cu2   O8    1.952539 S    
C21   C22   1.516760 S    
C8    H3    1.083666 S    
C24   H18   1.110670 S    
C23   H15   1.110225 S    
C12   H5    1.079130 S    
C16   H8    1.112404 S    
Cu1   Cu2   2.687847 S    
C19   N2    1.366514 A    
C18   O9    1.384423 S    
C24   H17   1.109365 S    
C7    N3    1.441185 S    
C5    C7    1.470430 S    
C21   H11   1.111732 S    
N3    O10   1.301184 A    
O4    C2    1.290965 A    
O3    Cu1   1.952539 S    
O3    C2    1.295067 A    
C17   N1    1.363948 A    
C21   H12   1.109325 S    
N1    C18   1.375329 A    
C11   C12   1.394511 A    
O2    C1    1.292887 A    
C4    C6    1.446824 S    
Cu1   N2    2.019153 S    
C15   C16   1.517132 S    
O7    C4    1.292207 A    
C16   H9    1.110382 S    
N3    O11   1.301904 A    
C23   C24   1.523083 S    
C17   C22   1.489315 S    
C9    C16   1.492933 S    
C5    C6    1.339378 D    
Cu1   O5    1.960526 S    
C18   C19   1.431238 A    
C11   H4    1.083443 S    
Cu2   O6    1.961822 S    
O9    C23   1.417381 S    
Cu2   N1    2.019768 S    
C24   H19   1.110890 S    
C19   H10   1.080228 S    
C5    H1    1.086536 S    
O5    C3    1.291761 A    
C9    C10   1.394157 A    
C13   C14   1.395632 A    
Cu1   O7    1.957492 S    
C15   H7    1.110904 S    
O1    Cu1   1.961823 S    
C12   C13   1.404973 A    
C6    H2    1.084280 S    
O2    Cu2   1.960526 S    
C22   H14   1.109822 S    
C20   C21   1.489717 S    
O8    C4    1.293899 A    
O1    C1    1.292409 A    
O6    C3    1.294884 A    
