data_mof_unit_31414.cif
_audit_creation_date              2012-12-11T15:13:40-0500
_audit_creation_method            fapswitch 2.2
_symmetry_space_group_name_H-M    P1
_symmetry_Int_Tables_number       1
_space_group_crystal_system       triclinic
_cell_length_a                    6.943453
_cell_length_b                    13.458774
_cell_length_c                    20.126758
_cell_angle_alpha                 104.128558
_cell_angle_beta                  89.940526
_cell_angle_gamma                 90.487498
_cell_volume                      1823.89089135

loop_
_atom_site_label
_atom_site_type_symbol
_atom_type_description
_atom_site_fract_x
_atom_site_fract_y
_atom_site_fract_z
_atom_type_partial_charge
O1    O     O_R   0.506780 0.600060 0.449950 -0.540596
O2    O     O_R   0.179840 0.597110 0.589410 -0.546579
O3    O     O_R   0.004570 0.399940 0.550050 -0.534865
C1    C     C_R   0.348174 0.619019 0.616913 0.673553
O4    O     O_R   0.177380 0.612160 0.452890 -0.540820
O5    O     O_R   0.002100 0.415100 0.412560 -0.540148
C2    C     C_R   0.346580 0.639350 0.436540 0.704328
O6    O     O_R   0.509250 0.584900 0.587440 -0.542320
O7    O     O_3   0.337570 0.435330 0.486930 -0.360724
V1    V     V_3+5 0.064650 0.512000 0.502430 1.435733
O8    O     O_R   0.672090 0.402890 0.410590 -0.541096
C3    C     C_R   0.840648 0.380966 0.383094 0.687838
O9    O     O_R   0.674540 0.387840 0.547110 -0.534830
C4    C     C_R   0.842875 0.360743 0.563487 0.708665
V2    V     V_3+5 0.564040 0.488000 0.497570 1.446146
O10   O     O_3   0.840990 0.564670 0.513070 -0.374350
C5    C     C_R   0.856317 0.105690 0.607610 -0.122054
H1    H     H_    0.850571 0.155267 0.514082 0.139801
H2    H     H_    0.863605 0.979412 0.690086 0.117619
H3    H     H_    0.858124 0.025395 0.580767 0.128945
C6    C     C_R   0.849888 0.283051 0.602901 -0.042311
C7    C     C_R   0.859007 0.319770 0.932728 -0.105600
C8    C     C_R   0.853817 0.396675 0.897679 -0.078653
C9    C     C_R   0.852298 0.372229 0.826292 -0.169828
C10   C     C_R   0.855766 0.268857 0.787757 0.082739
C11   C     C_R   0.860235 0.190290 0.824147 0.067269
C12   C     C_R   0.855009 0.240835 0.714503 0.078017
C13   C     C_R   0.857681 0.135295 0.679536 0.131549
C14   C     C_R   0.861553 0.059950 0.716423 -0.206939
C15   C     C_R   0.863080 0.086792 0.787509 -0.198375
C16   C     C_R   0.851573 0.313780 0.674458 -0.217042
C17   C     C_R   0.852148 0.179233 0.569537 -0.111667
C18   C     C_R   0.862236 0.216980 0.896744 -0.087091
H4    H     H_    0.849436 0.395076 0.696960 0.091663
H5    H     H_    0.860557 0.340449 0.988259 0.136812
H6    H     H_    0.848270 0.436262 0.803085 0.103593
H7    H     H_    0.851217 0.476131 0.926089 0.134834
H8    H     H_    0.866439 0.025282 0.813541 0.114694
C19   C     C_3   0.676626 0.221847 0.228352 -0.113577
C20   C     C_3   0.771643 0.199977 0.292888 -0.135881
H9    H     H_    0.701670 0.159492 0.328521 0.131878
H10   H     H_    0.528101 0.198763 0.210216 0.115045
C21   C     C_3   0.849595 0.310698 0.312481 -0.015675
C22   C     C_3   0.754623 0.333369 0.248751 -0.133296
C23   C     C_3   0.941110 0.299107 0.207378 -0.137360
C24   C     C_3   0.036131 0.277199 0.271897 -0.116325
C25   C     C_3   0.958113 0.165679 0.251481 -0.135453
C26   C     C_3   0.863180 0.188429 0.187764 -0.015115
H11   H     H_    0.670431 0.402880 0.248054 0.113416
H12   H     H_    0.011060 0.339550 0.171718 0.135254
H13   H     H_    0.184705 0.300099 0.290048 0.117185
C27   C     C_3   0.455636 0.794431 0.707110 -0.139877
C28   C     C_3   0.275515 0.840260 0.748735 -0.140047
H14   H     H_    0.208253 0.914637 0.748305 0.114245
H15   H     H_    0.537747 0.830235 0.671543 0.105221
C29   C     C_3   0.358784 0.811518 0.812276 -0.005166
C30   C     C_3   0.539330 0.766550 0.771469 -0.117403
C31   C     C_3   0.437563 0.660602 0.751064 -0.138382
C32   C     C_3   0.257416 0.706403 0.792656 -0.143460
C33   C     C_3   0.173722 0.734317 0.728310 -0.121034
C34   C     C_3   0.354253 0.689267 0.687508 -0.005633
H16   H     H_    0.690602 0.780104 0.789486 0.107088
H17   H     H_    0.504967 0.586262 0.751531 0.104073
H18   H     H_    0.022429 0.720946 0.710291 0.108005
C35   C     C_R   0.371083 0.895768 0.393837 0.160761
H19   H     H_    0.366248 0.843565 0.486589 0.129080
H20   H     H_    0.381574 0.021944 0.308035 0.155612
C36   C     C_R   0.356338 0.717532 0.397426 -0.069868
C37   C     C_R   0.348031 0.680341 0.067814 -0.192030
C38   C     C_R   0.342004 0.603614 0.103116 0.214117
C39   C     C_R   0.345265 0.628672 0.174560 -0.186500
C40   C     C_R   0.354833 0.732210 0.212865 0.057582
C41   C     C_R   0.360752 0.810223 0.176124 0.073530
C42   C     C_R   0.358890 0.760781 0.286207 0.062973
C43   C     C_R   0.368210 0.866633 0.321282 0.104518
C44   C     C_R   0.374163 0.941126 0.283374 -0.185241
C45   C     C_R   0.370593 0.913609 0.212359 -0.202900
C46   C     C_R   0.353583 0.687581 0.326033 -0.216900
C47   C     C_R   0.364841 0.820976 0.431095 -0.187103
C48   C     C_R   0.357259 0.783195 0.103529 -0.112016
H21   H     H_    0.346398 0.606379 0.303519 0.099091
H22   H     H_    0.346042 0.659707 0.012291 0.125897
H23   H     H_    0.340322 0.564981 0.198042 0.128269
H24   H     H_    0.375490 0.974789 0.186021 0.113835
O11   O     O_R   0.203580 0.914920 0.912610 -0.542889
O12   O     O_R   0.535710 0.887810 0.047120 -0.540257
O13   O     O_R   0.710730 0.084950 0.087430 -0.540576
C49   C     C_R   0.366666 0.860994 0.063812 0.698037
O14   O     O_R   0.533010 0.902850 0.910600 -0.546916
O15   O     O_R   0.708010 0.100090 0.949930 -0.534359
C50   C     C_R   0.364737 0.881285 0.882998 0.676715
O16   O     O_R   0.206300 0.899780 0.050100 -0.540512
O17   O     O_3   0.375170 0.064580 0.013100 -0.360800
V3    V     V_3+5 0.648200 0.988020 0.997570 1.436226
O18   O     O_R   0.038030 0.112330 0.952840 -0.534253
C51   C     C_R   0.869654 0.138922 0.936167 0.700414
O19   O     O_R   0.040730 0.097300 0.089360 -0.541427
C52   C     C_R   0.872202 0.118694 0.117009 0.690772
V4    V     V_3+5 0.148780 0.012220 0.002360 1.447123
O20   O     O_3   0.871930 0.935430 0.986900 -0.374514
H25   H     H_    0.042221 0.096137 0.252141 0.118775
H26   H     H_    0.175370 0.670670 0.828271 0.105051
I1    I     I_    0.383161 0.050713 0.452270 -0.511656
I2    I     I_    0.329108 0.448375 0.048158 -0.503295

loop_
_geom_bond_atom_site_label_1
_geom_bond_atom_site_label_2
_ccdc_geom_bond_type
C22   H11   S    
C20   C25   S    
O17   V3    S    
C35   C47   A    
O18   C51   A    
C1    O6    A    
O19   C52   A    
O11   C50   A    
C30   H16   S    
C23   C24   S    
C27   C28   S    
C7    H5    S    
C6    C16   A    
C9    H6    S    
O11   V4    S    
C4    C6    S    
C13   C14   A    
C3    C21   S    
C27   C34   S    
O5    C3    A    
O18   V4    S    
C28   C29   S    
V2    O10   S    
O13   V3    S    
C5    H3    S    
C29   C30   S    
C15   H8    S    
O14   V3    S    
C37   H22   S    
O12   V3    S    
C2    C36   S    
O8    V2    S    
C20   C21   S    
C49   O16   A    
C8    C9    A    
C38   C39   A    
O1    V2    S    
O14   C50   A    
O7    V1    S    
O17   V4    S    
C27   H15   S    
O13   C52   A    
C31   C34   S    
C32   C33   S    
O9    C4    A    
C32   H26   S    
O19   V4    S    
C28   C33   S    
O15   V3    S    
C19   H10   S    
C39   H23   S    
C29   C50   S    
C36   C46   A    
C6    C17   A    
C42   C43   A    
O12   C49   A    
C12   C16   A    
C25   C26   S    
C44   C45   A    
C40   C42   A    
C19   C20   S    
O4    C2    A    
C45   H24   S    
C10   C11   A    
C8    H7    S    
C1    C34   S    
C33   C34   S    
O2    C1    A    
C43   C44   A    
C14   C15   A    
H19   C47   S    
C11   C18   A    
V4    O20   S    
V3    O20   S    
C16   H4    S    
C9    C10   A    
O15   C51   A    
O3    C4    A    
C20   H9    S    
C11   C15   A    
O6    V2    S    
O9    V2    S    
C21   C22   S    
H1    C17   S    
C35   I1    S    
O2    V1    S    
C18   C51   S    
C22   C23   S    
C23   C26   S    
C31   H17   S    
C7    C18   A    
C24   C25   S    
O1    C2    A    
C5    C13   A    
C40   C41   A    
O5    V1    S    
O8    C3    A    
C28   H14   S    
C19   C22   S    
C10   C12   A    
C26   C52   S    
C35   C43   A    
C29   C32   S    
C33   H18   S    
C31   C32   S    
O4    V1    S    
C48   C49   S    
O3    V1    S    
V1    O10   S    
C46   H21   S    
C30   C31   S    
C23   H12   S    
C36   C47   A    
C24   H13   S    
C41   C48   A    
C38   I2    S    
C25   H25   S    
O7    V2    S    
C37   C38   A    
C21   C24   S    
C27   C30   S    
C39   C40   A    
C42   C46   A    
C12   C13   A    
C5    C17   A    
C41   C45   A    
C7    C8    A    
C37   C48   A    
H20   C44   S    
O16   V4    S    
C19   C26   S    
H2    C14   S    
