data_mof_unit_39058.cif
_audit_creation_date              2012-12-11T17:39:26-0500
_audit_creation_method            fapswitch 2.2
_symmetry_space_group_name_H-M    P1
_symmetry_Int_Tables_number       1
_space_group_crystal_system       triclinic
_cell_length_a                    24.749623
_cell_length_b                    7.239729
_cell_length_c                    22.829434
_cell_angle_alpha                 90.00014
_cell_angle_beta                  96.718623
_cell_angle_gamma                 89.999824
_cell_volume                      4062.49942991

loop_
_atom_site_label
_atom_site_type_symbol
_atom_type_description
_atom_site_fract_x
_atom_site_fract_y
_atom_site_fract_z
_atom_type_partial_charge
O1    O     O_R   0.801910 0.607900 0.699140 -0.506842
O2    O     O_R   0.198090 0.392100 0.300860 -0.501643
O3    O     O_R   0.698090 0.107900 0.800860 -0.506842
O4    O     O_R   0.301910 0.892100 0.199140 -0.501644
O5    O     O_R   0.692320 0.276320 0.686350 -0.532577
O6    O     O_R   0.307680 0.723680 0.313650 -0.535577
O7    O     O_R   0.807680 0.776320 0.813650 -0.532577
O8    O     O_R   0.192320 0.223680 0.186350 -0.535577
C1    C     C_R   0.674315 0.446654 0.670891 0.703292
C2    C     C_R   0.325978 0.553348 0.328760 0.702808
C3    C     C_R   0.825685 0.946654 0.829109 0.703292
C4    C     C_R   0.174022 0.053348 0.171240 0.702807
O9    O     O_R   0.801140 0.278070 0.692060 -0.544033
O10   O     O_R   0.198860 0.721930 0.307940 -0.545166
O11   O     O_R   0.698860 0.778070 0.807940 -0.544033
O12   O     O_R   0.301140 0.221930 0.192060 -0.545165
O13   O     O_R   0.807690 0.109570 0.806600 -0.539426
O14   O     O_R   0.192310 0.890430 0.193400 -0.537000
O15   O     O_R   0.692310 0.609570 0.693400 -0.539427
O16   O     O_R   0.307690 0.390430 0.306600 -0.537000
C5    C     C_R   0.819023 0.447452 0.679384 0.716776
C6    C     C_R   0.183112 0.552146 0.322867 0.724545
C7    C     C_R   0.680977 0.947452 0.820616 0.716776
C8    C     C_R   0.316888 0.052146 0.177133 0.724544
O17   O     O_3   0.752020 0.441970 0.787570 -0.366887
O18   O     O_3   0.247980 0.558030 0.212430 -0.370805
O19   O     O_3   0.747980 0.941970 0.712430 -0.366886
O20   O     O_3   0.252020 0.058030 0.287570 -0.370804
V1    V     V_3+5 0.749620 0.166420 0.743030 1.467997
V2    V     V_3+5 0.250380 0.833580 0.256970 1.453196
V3    V     V_3+5 0.750380 0.666420 0.756970 1.467996
V4    V     V_3+5 0.249620 0.333580 0.243030 1.453197
C9    C     C_R   0.402162 0.179160 0.053888 0.446024
C10   C     C_R   0.578370 0.812555 0.926714 0.481676
C11   C     C_R   0.097837 0.679160 0.446113 0.446025
C12   C     C_R   0.921631 0.312554 0.573287 0.481678
C13   C     C_R   0.370539 0.195132 0.101100 -0.332290
C14   C     C_R   0.620367 0.802631 0.890094 -0.308877
C15   C     C_R   0.129460 0.695132 0.398899 -0.332293
C16   C     C_R   0.879633 0.302629 0.609906 -0.308880
H1    H     H_    0.352897 0.327334 0.109384 0.195898
H2    H     H_    0.637881 0.669010 0.882429 0.210246
H3    H     H_    0.147102 0.827335 0.390615 0.195898
H4    H     H_    0.862120 0.169009 0.617572 0.210246
C17   C     C_R   0.355714 0.037696 0.131339 -0.202239
C18   C     C_R   0.637721 0.961175 0.861715 -0.221236
C19   C     C_R   0.144286 0.537697 0.368661 -0.202239
C20   C     C_R   0.862279 0.461174 0.638285 -0.221236
C21   C     C_R   0.373650 0.864293 0.111967 0.447074
C22   C     C_R   0.611914 0.131731 0.872424 0.441988
C23   C     C_R   0.126351 0.364293 0.388033 0.447073
C24   C     C_R   0.888086 0.631730 0.627577 0.441989
C25   C     C_R   0.415862 0.856221 0.075399 -0.306636
C26   C     C_R   0.574563 0.141623 0.914149 -0.295584
C27   C     C_R   0.084138 0.356221 0.424601 -0.306637
C28   C     C_R   0.925437 0.641622 0.585851 -0.295583
H5    H     H_    0.432370 0.723253 0.064987 0.169743
H6    H     H_    0.558453 0.273221 0.924346 0.187930
H7    H     H_    0.067632 0.223253 0.435013 0.169743
H8    H     H_    0.941547 0.773220 0.575655 0.187929
C29   C     C_R   0.431463 0.015371 0.046813 -0.035616
C30   C     C_R   0.556019 0.983817 0.940230 -0.051293
C31   C     C_R   0.068537 0.515371 0.453187 -0.035614
C32   C     C_R   0.943982 0.483816 0.559771 -0.051293
C33   C     C_1   0.474657 0.006355 0.008227 0.018984
C34   C     C_1   0.511730 0.997110 0.977496 0.022780
C35   C     C_1   0.025344 0.506354 0.491774 0.018984
C36   C     C_1   0.988271 0.497108 0.522505 0.022782
C37   C     C_3   0.967769 0.869173 0.014796 0.514302
C38   C     C_3   0.032979 0.130400 0.984288 0.508565
C39   C     C_3   0.532231 0.369171 0.485204 0.514294
C40   C     C_3   0.467021 0.630402 0.515711 0.508561
C41   C     C_3   0.982562 0.044668 0.051643 -0.263834
C42   C     C_3   0.018152 0.954897 0.947410 -0.272234
C43   C     C_3   0.517438 0.544664 0.448356 -0.263827
C44   C     C_3   0.481848 0.454900 0.552590 -0.272218
H9    H     H_    0.968044 0.078902 0.094546 0.135522
H10   H     H_    0.032608 0.920638 0.904474 0.128379
H11   H     H_    0.531956 0.578895 0.405453 0.135517
H12   H     H_    0.467392 0.420647 0.595526 0.128378
H13   H     H_    0.950666 0.295159 0.988841 0.146445
H14   H     H_    0.050115 0.704486 0.010195 0.145613
H15   H     H_    0.549334 0.795157 0.511158 0.146442
H16   H     H_    0.449885 0.204488 0.489806 0.145610
C45   C     C_1   0.128451 0.043494 0.125099 -0.183050
C46   C     C_1   0.871580 0.956299 0.874862 -0.172949
C47   C     C_1   0.371549 0.543494 0.374901 -0.183051
C48   C     C_1   0.628419 0.456300 0.625139 -0.172948
C49   C     C_3   0.027737 0.837280 0.004818 -0.296190
C50   C     C_3   0.973008 0.162308 0.994259 -0.292698
C51   C     C_3   0.472263 0.337281 0.495183 -0.296193
C52   C     C_3   0.526992 0.662308 0.505741 -0.292702
C53   C     C_3   0.042692 0.015144 0.040909 0.062380
C54   C     C_3   0.958021 0.984428 0.958189 0.063216
C55   C     C_3   0.457308 0.515142 0.459091 0.062381
C56   C     C_3   0.541978 0.484430 0.541811 0.063216
C57   C     C_1   0.089986 0.032223 0.086942 0.006202
C58   C     C_1   0.910414 0.967425 0.912559 0.005338
C59   C     C_1   0.410013 0.532222 0.413058 0.006203
C60   C     C_1   0.589586 0.467426 0.587441 0.005339
O21   O     O_3   0.396553 0.310134 0.009686 -0.567418
C61   C     C_3   0.347941 0.269452 0.972374 0.073918
H17   H     H_    0.311910 0.275285 0.997408 0.120287
H18   H     H_    0.349941 0.129228 0.952533 0.119215
C62   C     C_3   0.338491 0.409150 0.922211 -0.765913
H19   H     H_    0.365269 0.379101 0.887720 0.208526
H20   H     H_    0.295706 0.399568 0.901443 0.186282
H21   H     H_    0.346113 0.552022 0.938726 0.217533
O22   O     O_3   0.559244 0.652797 0.949285 -0.543468
C63   C     C_3   0.510775 0.601643 0.914114 0.015061
H22   H     H_    0.520824 0.516435 0.876622 0.132663
H23   H     H_    0.485574 0.720074 0.895121 0.101787
C64   C     C_3   0.476355 0.489617 0.951534 -0.610962
H24   H     H_    0.447492 0.582464 0.970868 0.224132
H25   H     H_    0.453985 0.382861 0.923694 0.194019
H26   H     H_    0.501873 0.418667 0.988045 0.248555
O23   O     O_3   0.103447 0.810135 0.490314 -0.567417
C65   C     C_3   0.152061 0.769462 0.527623 0.073925
H27   H     H_    0.188090 0.775301 0.502587 0.120286
H28   H     H_    0.150064 0.629238 0.547465 0.119214
C66   C     C_3   0.161512 0.909163 0.577786 -0.765920
H29   H     H_    0.134743 0.879090 0.612284 0.208520
H30   H     H_    0.204300 0.899612 0.598545 0.186285
H31   H     H_    0.153877 0.052031 0.561272 0.217540
O24   O     O_3   0.940758 0.152795 0.550717 -0.543468
C67   C     C_3   0.989226 0.101643 0.585890 0.015055
H32   H     H_    0.979175 0.016432 0.623381 0.132666
H33   H     H_    0.014426 0.220073 0.604884 0.101787
C68   C     C_3   0.023648 0.989619 0.548471 -0.610956
H34   H     H_    0.052508 0.082472 0.529133 0.224130
H35   H     H_    0.046023 0.882879 0.576314 0.194020
H36   H     H_    0.998132 0.918651 0.511964 0.248555
O25   O     O_3   0.343520 0.707059 0.119623 -0.539150
C69   C     C_3   0.308807 0.675614 0.066443 0.046453
H37   H     H_    0.330301 0.586696 0.037373 0.161852
H38   H     H_    0.296208 0.804944 0.041668 0.092331
C70   C     C_3   0.256655 0.579785 0.078813 -0.648965
H39   H     H_    0.265709 0.450623 0.104016 0.225869
H40   H     H_    0.232417 0.673754 0.103894 0.227827
H41   H     H_    0.232025 0.544587 0.036459 0.158879
O26   O     O_3   0.621398 0.290892 0.841768 -0.538477
C71   C     C_3   0.582563 0.300185 0.791082 0.104337
H42   H     H_    0.540662 0.262992 0.800532 0.087015
H43   H     H_    0.594637 0.205156 0.756582 0.116039
C72   C     C_3   0.580171 0.495897 0.766599 -0.738086
H44   H     H_    0.621760 0.548525 0.764319 0.245218
H45   H     H_    0.557139 0.497337 0.721840 0.164865
H46   H     H_    0.559646 0.589975 0.795160 0.191843
O27   O     O_3   0.156481 0.207060 0.380377 -0.539150
C73   C     C_3   0.191194 0.175617 0.433557 0.046455
H47   H     H_    0.169700 0.086706 0.462628 0.161849
H48   H     H_    0.203794 0.304949 0.458329 0.092332
C74   C     C_3   0.243345 0.079778 0.421187 -0.648965
H49   H     H_    0.234289 0.950619 0.395983 0.225871
H50   H     H_    0.267585 0.173745 0.396107 0.227825
H51   H     H_    0.267975 0.044575 0.463541 0.158877
O28   O     O_3   0.878602 0.790891 0.658233 -0.538477
C75   C     C_3   0.917437 0.800183 0.708919 0.104337
H52   H     H_    0.959338 0.762989 0.699469 0.087014
H53   H     H_    0.905363 0.705155 0.743419 0.116040
C76   C     C_3   0.919828 0.995896 0.733402 -0.738087
H54   H     H_    0.878239 0.048525 0.735681 0.245220
H55   H     H_    0.942860 0.997335 0.778162 0.164866
H56   H     H_    0.940354 0.089973 0.704842 0.191841
O29   O     O_3   0.930412 0.733179 0.028588 -0.550100
C77   C     C_3   0.952949 0.631860 0.078326 0.077365
H57   H     H_    0.967956 0.724499 0.115705 0.119308
H58   H     H_    0.986968 0.543597 0.066824 0.127522
C78   C     C_3   0.909447 0.506788 0.098729 -0.675645
H59   H     H_    0.893120 0.412729 0.062508 0.226315
H60   H     H_    0.927178 0.422593 0.136879 0.173259
H61   H     H_    0.875624 0.591414 0.112334 0.228825
O30   O     O_3   0.070397 0.266311 0.970588 -0.553477
C79   C     C_3   0.048120 0.367020 0.920612 0.085635
H62   H     H_    0.013942 0.455198 0.931743 0.128432
H63   H     H_    0.033406 0.273946 0.883240 0.111385
C80   C     C_3   0.091745 0.492121 0.900460 -0.717708
H64   H     H_    0.125725 0.407529 0.887202 0.219841
H65   H     H_    0.074215 0.575969 0.862137 0.168819
H66   H     H_    0.107822 0.586486 0.936705 0.225923
O31   O     O_3   0.569589 0.233177 0.471415 -0.550100
C81   C     C_3   0.547053 0.131857 0.421676 0.077363
H67   H     H_    0.532054 0.224496 0.384295 0.119313
H68   H     H_    0.513028 0.043617 0.433175 0.127517
C82   C     C_3   0.590552 0.006753 0.401282 -0.675644
H69   H     H_    0.606884 0.912739 0.437513 0.226331
H70   H     H_    0.572817 0.922511 0.363144 0.173257
H71   H     H_    0.624372 0.091357 0.387660 0.228809
O32   O     O_3   0.429601 0.766310 0.529411 -0.553477
C83   C     C_3   0.451881 0.867044 0.579381 0.085636
H72   H     H_    0.486058 0.955214 0.568242 0.128431
H73   H     H_    0.466598 0.773988 0.616757 0.111386
C84   C     C_3   0.408258 0.992158 0.599530 -0.717693
H74   H     H_    0.374285 0.907575 0.612809 0.219824
H75   H     H_    0.425793 0.076059 0.637838 0.168818
H76   H     H_    0.392168 0.086476 0.563276 0.225930

loop_
_geom_bond_atom_site_label_1
_geom_bond_atom_site_label_2
_ccdc_geom_bond_type
O17   V3    S    
C77   H58   S    
O1    C5    A    
O29   C77   S    
C27   H7    S    
O19   V1    S    
C61   H17   S    
O13   V1    S    
C78   H59   S    
C42   C54   S    
C62   H19   S    
O3    C7    A    
C12   O24   S    
C52   C56   S    
C40   C44   S    
O15   V3    S    
C76   H56   S    
C69   C70   S    
C72   H44   S    
C43   C55   S    
O30   C79   S    
O7    C3    A    
H15   C52   S    
C62   H20   S    
O28   C75   S    
H14   C49   S    
C4    C45   S    
C9    O21   S    
C8    C17   S    
C32   C36   S    
C42   C49   S    
O9    V1    S    
C28   H8    S    
C41   C50   S    
C68   H34   S    
C1    C48   S    
C26   H6    S    
C40   C52   S    
C55   C59   S    
C82   H70   S    
C54   C58   S    
C3    C46   S    
O1    V3    S    
C61   C62   S    
O2    V4    S    
O3    V1    S    
C39   O31   S    
C65   H27   S    
C66   H31   S    
C75   C76   S    
C72   H45   S    
C79   H62   S    
C40   C55   S    
C25   C29   A    
C1    O15   A    
C19   C23   A    
C2    O16   A    
C80   H65   S    
C73   C74   S    
C27   C31   A    
C38   C42   S    
C83   H73   S    
C28   C32   A    
C37   C41   S    
O14   V2    S    
H16   C51   S    
C41   C53   S    
C74   H50   S    
C16   H4    S    
C47   C59   T    
C83   C84   S    
C22   O26   S    
C5    C20   S    
C84   H76   S    
C12   C32   A    
O11   C7    A    
C6    C19   S    
O12   C8    A    
C7    C18   S    
C84   H74   S    
C75   H53   S    
C78   H60   S    
C71   C72   S    
C38   C50   S    
O24   C67   S    
O10   V2    S    
C37   C49   S    
C76   H55   S    
C50   C54   S    
O5    V1    S    
C63   H23   S    
C62   H21   S    
C31   C35   S    
C2    C47   S    
O7    V3    S    
C30   C34   S    
C35   C36   T    
O8    V4    S    
O21   C61   S    
C12   C16   A    
C38   C53   S    
C37   C54   S    
C25   H5    S    
O18   V4    S    
C82   H71   S    
C15   H3    S    
C39   C56   S    
C26   C30   A    
C67   C68   S    
C84   H75   S    
O31   C81   S    
C49   C53   S    
C9    C13   A    
C63   H22   S    
C65   C66   S    
C11   C15   A    
C83   H72   S    
O5    C1    A    
C73   H48   S    
O25   C69   S    
C70   H40   S    
C63   C64   S    
C17   C21   A    
O4    C8    A    
O8    C4    A    
C80   H66   S    
C4    O14   A    
O9    C5    A    
C22   C26   A    
C74   H51   S    
C61   H18   S    
C79   C80   S    
C66   H29   S    
C48   C60   T    
C43   C52   S    
H13   C50   S    
C65   H28   S    
O6    V2    S    
C33   C34   T    
C77   H57   S    
C78   H61   S    
C71   H43   S    
C11   O23   S    
C13   C17   A    
C10   C30   A    
C53   C57   S    
C40   O32   S    
C72   H46   S    
C15   C19   A    
C64   H24   S    
O16   V4    S    
C24   O28   S    
C16   C20   A    
C21   O25   S    
C3    O13   A    
C67   H33   S    
C81   H68   S    
C10   C14   A    
C44   H12   S    
O6    C2    A    
C69   H38   S    
C64   H26   S    
O11   V3    S    
C69   H37   S    
O12   V4    S    
C70   H39   S    
C18   C22   A    
O23   C65   S    
C68   H36   S    
O20   V2    S    
C76   H54   S    
O27   C73   S    
C44   C56   S    
C14   C18   A    
C39   C43   S    
O10   C6    A    
C82   H69   S    
C75   H52   S    
C24   C28   A    
C67   H32   S    
C21   C25   A    
C70   H41   S    
C56   C60   S    
O2    C6    A    
C79   H63   S    
C23   C27   A    
C13   H1    S    
O32   C83   S    
C46   C58   T    
C38   O30   S    
C37   O29   S    
C66   H30   S    
C45   C57   T    
C44   C51   S    
C51   C55   S    
C14   H2    S    
C29   C33   S    
C20   C24   A    
C39   C51   S    
C23   O27   S    
C77   C78   S    
C9    C29   A    
C80   H64   S    
C42   H10   S    
O22   C63   S    
C71   H42   S    
C10   O22   S    
C41   H9    S    
C73   H47   S    
C11   C31   A    
C64   H25   S    
C74   H49   S    
O26   C71   S    
C43   H11   S    
C81   C82   S    
O4    V2    S    
C81   H67   S    
C68   H35   S    
