data_mof_unit_16212.cif
_audit_creation_date              2012-12-10T17:34:59-0500
_audit_creation_method            fapswitch 2.2
_symmetry_space_group_name_H-M    P1
_symmetry_Int_Tables_number       1
_space_group_crystal_system       triclinic
_cell_length_a                    12.3359
_cell_length_b                    13.205263
_cell_length_c                    13.868071
_cell_angle_alpha                 105.170749
_cell_angle_beta                  73.931423
_cell_angle_gamma                 116.547759
_cell_volume                      1916.76093405

loop_
_atom_site_label
_atom_site_type_symbol
_atom_type_description
_atom_site_fract_x
_atom_site_fract_y
_atom_site_fract_z
_atom_type_partial_charge
C1    C     C_R   0.144431 0.713677 0.511042 0.787571
C2    C     C_1   0.975508 0.507042 0.791602 -0.164896
C3    C     C_R   0.734212 0.971385 0.367928 -0.192186
C4    C     C_R   0.776265 0.164163 0.460186 -0.161347
C5    C     C_R   0.182770 0.910012 0.602329 -0.283778
C6    C     C_R   0.264580 0.012744 0.646943 -0.121325
C7    C     C_R   0.391400 0.043118 0.618657 0.387122
C8    C     C_R   0.439049 0.979577 0.530471 -0.020741
C9    C     C_R   0.354562 0.873915 0.485889 0.043940
C10   C     C_R   0.566526 0.016041 0.484896 0.071018
C11   C     C_R   0.608667 0.939239 0.409346 0.084320
C12   C     C_R   0.984355 0.504257 0.686362 0.818029
C13   C     C_R   0.524319 0.835181 0.368701 -0.210853
C14   C     C_R   0.399315 0.807091 0.401293 -0.157167
C15   C     C_R   0.651369 0.129551 0.504980 -0.315975
C16   C     C_R   0.818381 0.083545 0.391032 0.409946
C17   C     C_R   0.226979 0.835924 0.527922 -0.100978
C18   C     C_R   0.640771 0.676118 0.659859 -0.292669
C19   C     C_R   0.252601 0.352389 0.363471 0.108839
C20   C     C_R   0.351515 0.320066 0.333555 -0.240053
C21   C     C_R   0.450298 0.375629 0.385003 -0.191996
C22   C     C_R   0.451373 0.464938 0.467496 -0.002977
C23   C     C_R   0.856598 0.286284 0.481936 0.799272
C24   C     C_R   0.347415 0.494790 0.495685 0.284937
C25   C     C_R   0.551173 0.525611 0.522928 -0.031203
C26   C     C_R   0.545059 0.614961 0.604412 0.172403
C27   C     C_R   0.443290 0.642639 0.630587 -0.274553
C28   C     C_R   0.346503 0.583503 0.577955 -0.171212
C29   C     C_R   0.657555 0.501954 0.501571 0.039403
C30   C     C_R   0.742403 0.648574 0.635059 0.085174
C31   C     C_R   0.015711 0.495816 0.313635 0.798534
C32   C     C_1   0.024879 0.493376 0.208403 -0.169432
C33   C     C_2   0.040656 0.489135 0.014283 -0.159184
C34   C     C_2   0.960242 0.511820 0.985735 -0.158085
C35   C     C_1   0.967994 0.509412 0.880254 0.010646
C36   C     C_1   0.032686 0.491289 0.119754 0.007696
Cu1   Cu    Cu3+1 0.899780 0.525060 0.522890 0.948219
Cu2   Cu    Cu3+1 0.100220 0.474940 0.477110 0.936166
H1    H     H_    0.888232 0.532157 0.041313 0.158580
H2    H     H_    0.338325 0.732180 0.358693 0.164064
H3    H     H_    0.816639 0.695451 0.677563 0.121358
H4    H     H_    0.437924 0.710668 0.693080 0.153697
H5    H     H_    0.636848 0.744674 0.722150 0.138880
H6    H     H_    0.669979 0.435545 0.441144 0.121522
H7    H     H_    0.176969 0.309347 0.322548 0.138922
H8    H     H_    0.524453 0.347189 0.358424 0.138534
H9    H     H_    0.351747 0.251867 0.270078 0.154489
H10   H     H_    0.272470 0.610471 0.604958 0.204207
H11   H     H_    0.112651 0.468771 0.958707 0.160931
H12   H     H_    0.554892 0.778746 0.306547 0.142355
H13   H     H_    0.765976 0.911647 0.311137 0.157669
H14   H     H_    0.619999 0.194496 0.550530 0.224597
H15   H     H_    0.085208 0.883311 0.633835 0.170230
H16   H     H_    0.228827 0.063431 0.711352 0.167498
N1    N     N_R   0.748810 0.563010 0.557590 -0.180695
N2    N     N_R   0.250540 0.437620 0.443020 -0.211484
O1    O     O_R   0.025040 0.682470 0.528790 -0.577894
O2    O     O_R   0.194310 0.640150 0.490130 -0.606677
O3    O     O_R   0.903380 0.524130 0.659910 -0.569882
O4    O     O_R   0.072660 0.481800 0.621240 -0.588947
O5    O     O_R   0.805690 0.359850 0.509870 -0.582221
O6    O     O_R   0.974960 0.317530 0.471210 -0.564877
O7    O     O_R   0.927340 0.518200 0.378760 -0.575003
O8    O     O_R   0.096620 0.475870 0.340090 -0.593512
O9    O     O_3   0.937578 0.112589 0.337968 -0.728540
H17   H     H_    0.963924 0.186725 0.315539 0.313127
O10   O     O_3   0.462685 0.126682 0.685409 -0.745963
H18   H     H_    0.527753 0.103586 0.688452 0.322414

loop_
_geom_bond_atom_site_label_1
_geom_bond_atom_site_label_2
_ccdc_geom_bond_type
C2    C35   T    
C4    C16   A    
Cu1   O5    S    
C9    C14   A    
C19   H7    S    
C30   H3    S    
C6    C7    A    
C18   C30   A    
C1    O1    A    
C24   N2    A    
C24   C28   A    
C30   N1    A    
C1    C17   S    
C19   C20   A    
C18   C26   A    
C19   N2    A    
C31   O8    A    
C2    C12   S    
C21   C22   A    
C4    C15   A    
C33   C34   D    
C18   H5    S    
Cu2   N2    S    
C7    C8    A    
C21   H8    S    
C31   C32   S    
C15   H14   S    
C11   C13   A    
C27   H4    S    
C26   C27   A    
Cu1   O3    S    
C1    O2    A    
C6    H16   S    
Cu2   O4    S    
C32   C36   T    
C5    H15   S    
Cu1   O7    S    
Cu1   Cu2   S    
C34   C35   S    
Cu2   O8    S    
C10   C15   A    
C29   H6    S    
C25   C29   A    
C5    C6    A    
C22   C24   A    
C20   H9    S    
C3    C11   A    
C10   C11   A    
C14   H2    S    
O10   H18   S    
C12   O4    A    
C31   O7    A    
C23   O5    A    
C33   C36   S    
C5    C17   A    
C20   C21   A    
C8    C10   A    
O9    H17   S    
C33   H11   S    
C9    C17   A    
C27   C28   A    
C4    C23   S    
C3    H13   S    
C28   H10   S    
C16   O9    S    
C29   N1    A    
C13   C14   A    
C25   C26   A    
Cu2   O2    S    
C12   O3    A    
C7    O10   S    
C34   H1    S    
C23   O6    A    
Cu1   O1    S    
C3    C16   A    
C13   H12   S    
C8    C9    A    
Cu2   O6    S    
C22   C25   A    
Cu1   N1    S    
