data_mof_unit_67265.cif
_audit_creation_date              2013-03-05T16:01:29-0500
_audit_creation_method            fapswitch 2.2
_symmetry_space_group_name_H-M    P1
_symmetry_Int_Tables_number       1
_space_group_crystal_system       triclinic
_cell_length_a                    20.751754
_cell_length_b                    20.647138
_cell_length_c                    8.697019
_cell_angle_alpha                 90.233347
_cell_angle_beta                  92.473635
_cell_angle_gamma                 89.807839
_cell_volume                      3722.84042439

loop_
_atom_site_label
_atom_site_type_symbol
_atom_site_description
_atom_site_fract_x
_atom_site_fract_y
_atom_site_fract_z
_atom_type_partial_charge
P1    P     P_3+3 0.136530 0.426510 0.931350 0.429830
P2    P     P_3+3 0.136530 0.573490 0.431350 0.408847
P3    P     P_3+3 0.636530 0.926510 0.931350 0.410101
P4    P     P_3+3 0.636530 0.073490 0.431350 0.427156
O1    O     O_2   0.130070 0.404060 0.104920 -0.363080
O2    O     O_2   0.130070 0.595940 0.604920 -0.408428
O3    O     O_2   0.630070 0.904060 0.104920 -0.369920
O4    O     O_2   0.630070 0.095940 0.604920 -0.395879
O5    O     O_3   0.075780 0.466370 0.861070 -0.422833
O6    O     O_3   0.075780 0.533630 0.361070 -0.451669
O7    O     O_3   0.575780 0.966370 0.861070 -0.465239
O8    O     O_3   0.575780 0.033630 0.361070 -0.439549
O9    O     O_3   0.022320 0.344950 0.359800 -0.443826
O10   O     O_3   0.022320 0.655050 0.859800 -0.351259
O11   O     O_3   0.522320 0.844950 0.359800 -0.419851
O12   O     O_3   0.522320 0.155050 0.859800 -0.379148
O13   O     O_2   0.140172 0.312381 0.264440 -0.384920
O14   O     O_2   0.122613 0.717685 0.764454 -0.341599
O15   O     O_2   0.631648 0.793730 0.260975 -0.403487
O16   O     O_2   0.628324 0.210077 0.771815 -0.399928
O17   O     O_3   0.201624 0.478037 0.960061 -0.576226
O18   O     O_3   0.204364 0.523522 0.431791 -0.590458
O19   O     O_3   0.698379 0.983633 0.952249 -0.575469
O20   O     O_3   0.702701 0.020921 0.443590 -0.572583
O21   O     O_3   0.072172 0.217516 0.339175 -0.578513
O22   O     O_3   0.030434 0.788215 0.872416 -0.534934
O23   O     O_3   0.548403 0.715534 0.373204 -0.499360
O24   O     O_3   0.538145 0.288875 0.856518 -0.535678
H1    H     H_    0.978113 0.233728 0.256196 0.134174
H2    H     H_    0.942278 0.741683 0.890047 0.113926
H3    H     H_    0.467015 0.760794 0.464532 0.062423
H4    H     H_    0.449400 0.245287 0.803389 0.131796
C1    C     C_3   0.992731 0.135721 0.337070 0.013482
C2    C     C_3   0.932947 0.843537 0.933042 0.014608
C3    C     C_3   0.447702 0.663780 0.416721 0.058971
C4    C     C_3   0.436677 0.345719 0.862200 0.073144
H5    H     H_    0.987933 0.122481 0.213929 0.167072
H6    H     H_    0.902762 0.841588 0.824584 0.157877
H7    H     H_    0.417566 0.687640 0.326028 0.189527
H8    H     H_    0.410771 0.344857 0.749062 0.141698
H9    H     H_    0.035396 0.107875 0.381236 0.126333
H10   H     H_    0.968136 0.884024 0.930651 0.095428
H11   H     H_    0.474409 0.621237 0.372945 0.110683
H12   H     H_    0.473044 0.385338 0.866444 0.160219
P5    P     P_3+3 0.863410 0.426100 0.379280 0.434951
P6    P     P_3+3 0.863410 0.573900 0.879280 0.481187
P7    P     P_3+3 0.363410 0.926100 0.379280 0.431206
P8    P     P_3+3 0.363410 0.073900 0.879280 0.499439
P9    P     P_3+3 0.915798 0.286625 0.916109 0.455543
P10   P     P_3+3 0.913485 0.712754 0.426342 0.496535
P11   P     P_3+3 0.411780 0.790445 0.918623 0.467431
P12   P     P_3+3 0.413010 0.211464 0.423023 0.465555
O25   O     O_2   0.869860 0.403670 0.205810 -0.378791
O26   O     O_2   0.869860 0.596330 0.705810 -0.371211
O27   O     O_2   0.369860 0.903670 0.205810 -0.381707
O28   O     O_2   0.369860 0.096330 0.705810 -0.366723
O29   O     O_3   0.977590 0.344880 0.951200 -0.385239
O30   O     O_3   0.977590 0.655120 0.451200 -0.389260
O31   O     O_3   0.477590 0.844880 0.951200 -0.394686
O32   O     O_3   0.477590 0.155120 0.451200 -0.395198
O33   O     O_2   0.864202 0.303841 0.032562 -0.397159
O34   O     O_2   0.859847 0.681996 0.518483 -0.403003
O35   O     O_2   0.357774 0.826737 0.998935 -0.383135
O36   O     O_2   0.359488 0.183818 0.520347 -0.375383
O37   O     O_3   0.788263 0.464523 0.357366 -0.569271
O38   O     O_3   0.798161 0.520894 0.866012 -0.587655
O39   O     O_3   0.303114 0.985984 0.369660 -0.630148
O40   O     O_3   0.295661 0.023580 0.867414 -0.533097
O41   O     O_3   0.940175 0.209654 0.982270 -0.623809
O42   O     O_3   0.923542 0.784842 0.536258 -0.556282
O43   O     O_3   0.417662 0.723373 0.042850 -0.582213
O44   O     O_3   0.427421 0.284591 0.521922 -0.654749
C5    C     C_3   0.989756 0.178055 0.901664 1.386532
C6    C     C_3   0.972024 0.827386 0.486220 1.398888
C7    C     C_3   0.453135 0.668039 0.994532 1.345198
C8    C     C_3   0.463756 0.331488 0.443873 1.367601
C9    C     C_3   0.966763 0.108137 0.862530 0.061482
C10   C     C_3   0.963994 0.892650 0.572415 0.082661
C11   C     C_3   0.417961 0.606688 0.056318 -0.000724
C12   C     C_3   0.431975 0.398299 0.476148 0.053047
H13   H     H_    0.009054 0.076267 0.846261 0.085776
H14   H     H_    0.987842 0.887584 0.687750 0.074589
H15   H     H_    0.453789 0.576219 0.121541 0.077068
H16   H     H_    0.425522 0.428285 0.371137 0.066167
C13   C     C_3   0.819664 0.460002 0.817815 0.263798
C14   C     C_3   0.791431 0.530890 0.377927 0.170306
C15   C     C_3   0.311481 0.967139 0.788472 0.252581
C16   C     C_3   0.258385 0.974189 0.247494 0.168084
H17   H     H_    0.822287 0.459899 0.691099 0.076718
H18   H     H_    0.803200 0.554018 0.268692 -0.019410
H19   H     H_    0.324749 0.979153 0.669982 0.122331
H20   H     H_    0.225656 0.934739 0.280052 0.024043
H21   H     H_    0.866604 0.445459 0.872344 0.142781
H22   H     H_    0.824642 0.543953 0.475764 0.100675
H23   H     H_    0.351695 0.942407 0.852709 0.132565
H24   H     H_    0.281500 0.962739 0.138190 0.161408
C17   C     C_3   0.773504 0.409033 0.869707 0.106291
C18   C     C_3   0.725138 0.555678 0.413553 0.171872
C19   C     C_3   0.254470 0.920381 0.779626 0.102761
C20   C     C_3   0.219001 0.035003 0.217344 0.083955
H25   H     H_    0.789378 0.359674 0.839122 0.065790
H26   H     H_    0.724430 0.608729 0.398860 0.144487
H27   H     H_    0.258805 0.885491 0.683202 -0.001285
H28   H     H_    0.251212 0.077979 0.222032 0.096219
H29   H     H_    0.775663 0.410724 0.996461 0.149012
H30   H     H_    0.718757 0.545352 0.536598 0.103598
H31   H     H_    0.257747 0.890281 0.884283 0.156482
H32   H     H_    0.184004 0.038775 0.310471 0.038704
Ba1   Ba    Ba6+2 0.999980 0.452130 0.155200 1.522238
Ba2   Ba    Ba6+2 0.999980 0.547870 0.655200 1.528749
Ba3   Ba    Ba6+2 0.499980 0.952130 0.155200 1.534477
Ba4   Ba    Ba6+2 0.499980 0.047870 0.655200 1.542838
C21   C     C_3   0.181612 0.534569 0.032253 0.372150
C22   C     C_3   0.190834 0.463852 0.496607 0.455988
C23   C     C_3   0.670465 0.044495 0.981631 0.508680
C24   C     C_3   0.683429 0.962651 0.507769 0.436433
H33   H     H_    0.218423 0.547083 0.122429 0.076720
H34   H     H_    0.184254 0.470594 0.621686 0.096344
H35   H     H_    0.650043 0.044558 0.097183 0.090875
H36   H     H_    0.663956 0.972407 0.622407 0.104097
H37   H     H_    0.135746 0.530521 0.093244 0.134750
H38   H     H_    0.147732 0.441481 0.438034 0.131378
H39   H     H_    0.633134 0.058564 0.892944 0.159354
H40   H     H_    0.646549 0.938833 0.430214 0.122763
C25   C     C_3   0.176107 0.586244 0.910796 -0.886393
C26   C     C_3   0.248151 0.419229 0.474091 -1.063788
C27   C     C_3   0.721006 0.096034 0.972460 -1.150761
C28   C     C_3   0.741096 0.916924 0.528042 -0.983552
H41   H     H_    0.191797 0.633565 0.955571 0.183919
H42   H     H_    0.293293 0.447635 0.482195 0.268738
H43   H     H_    0.751969 0.095580 0.079253 0.245912
H44   H     H_    0.753460 0.908979 0.651989 0.246793
H45   H     H_    0.125040 0.588560 0.870767 0.310152
H46   H     H_    0.251163 0.381107 0.563380 0.235279
H47   H     H_    0.699921 0.144463 0.960365 0.266271
H48   H     H_    0.730586 0.869456 0.472331 0.235238
H49   H     H_    0.207663 0.574784 0.814380 0.258055
H50   H     H_    0.243835 0.396050 0.358834 0.267897
H51   H     H_    0.746801 0.088112 0.865406 0.272380
H52   H     H_    0.783688 0.937058 0.474969 0.304028
O45   O     O_3   0.924190 0.533610 0.949240 -0.375879
O46   O     O_3   0.924190 0.466390 0.449240 -0.438500
O47   O     O_3   0.424190 0.033610 0.949240 -0.365826
O48   O     O_3   0.424190 0.966390 0.449240 -0.407439
P13   P     P_3+3 0.076444 0.717783 0.899739 0.511901
P14   P     P_3+3 0.093002 0.296794 0.389960 0.404194
P15   P     P_3+3 0.578770 0.216146 0.899378 0.462977
P16   P     P_3+3 0.586377 0.790302 0.397383 0.444978
C29   C     C_3   0.005405 0.208260 0.350208 0.255309
C30   C     C_3   0.971726 0.780576 0.946572 0.260138
C31   C     C_3   0.495402 0.715364 0.469623 0.268901
C32   C     C_3   0.471954 0.280944 0.885090 0.262943
H53   H     H_    0.987263 0.227200 0.459903 0.126195
H54   H     H_    0.980993 0.768236 0.069797 0.098089
H55   H     H_    0.512616 0.708831 0.590336 0.081924
H56   H     H_    0.465567 0.262882 0.003597 0.112251
H57   H     H_    0.940337 0.108140 0.748000 0.103024
H58   H     H_    0.990528 0.932612 0.519145 0.055493
H59   H     H_    0.399087 0.573852 0.964292 0.082728
H60   H     H_    0.382072 0.389810 0.510574 0.068261
C33   C     C_R   0.242492 0.303115 0.008908 -0.088279
C34   C     C_R   0.237381 0.699532 0.507008 -0.108366
C35   C     C_R   0.737703 0.799234 0.016374 -0.077108
C36   C     C_R   0.739107 0.199117 0.507318 -0.121765
C37   C     C_R   0.160713 0.351963 0.820966 0.245356
C38   C     C_R   0.151824 0.651814 0.323406 0.218754
C39   C     C_R   0.657455 0.849757 0.825331 0.251539
C40   C     C_R   0.651116 0.153173 0.327300 0.245187
C41   C     C_R   0.132171 0.348781 0.674465 -0.608261
C42   C     C_R   0.113170 0.661901 0.188497 -0.575565
C43   C     C_R   0.627638 0.845280 0.679618 -0.609054
C44   C     C_R   0.612193 0.163413 0.192910 -0.539544
C45   C     C_R   0.143145 0.299281 0.572434 0.184976
C46   C     C_R   0.123682 0.713509 0.088466 0.094075
C47   C     C_R   0.633794 0.792222 0.584802 0.134834
C48   C     C_R   0.622371 0.215069 0.093229 0.112373
C49   C     C_R   0.190808 0.252274 0.609243 0.481634
C50   C     C_R   0.174027 0.757569 0.124049 0.462277
C51   C     C_R   0.674404 0.741044 0.633737 0.518561
C52   C     C_R   0.670594 0.261112 0.132259 0.475093
C53   C     C_R   0.222373 0.252650 0.758408 -0.112279
C54   C     C_R   0.212562 0.751839 0.262528 -0.107334
C55   C     C_R   0.712613 0.745852 0.773000 -0.102953
C56   C     C_R   0.710727 0.254208 0.268409 -0.116293
C57   C     C_R   0.208033 0.303127 0.865319 -0.120503
C58   C     C_R   0.200917 0.699792 0.365434 -0.110816
C59   C     C_R   0.702672 0.799345 0.873557 -0.096471
C60   C     C_R   0.700413 0.201053 0.368957 -0.102911
H61   H     H_    0.104502 0.389131 0.633090 0.123612
H62   H     H_    0.075536 0.627587 0.157244 0.221243
H63   H     H_    0.600757 0.885617 0.635390 0.125468
H64   H     H_    0.575249 0.128507 0.160343 0.210886
C61   C     C_R   0.797153 0.699052 0.951027 -0.121741
C62   C     C_R   0.800589 0.297408 0.439579 -0.120971
C63   C     C_R   0.301675 0.202800 0.944447 -0.121565
C64   C     C_R   0.298018 0.798427 0.440282 -0.109907
C65   C     C_R   0.784340 0.750444 0.055591 0.094371
C66   C     C_R   0.788937 0.245287 0.541909 0.097838
C67   C     C_R   0.289043 0.254546 0.048243 0.121265
C68   C     C_R   0.285854 0.746797 0.543634 0.109060
C69   C     C_R   0.847375 0.652171 0.990046 0.101986
C70   C     C_R   0.849966 0.345347 0.480962 0.135866
C71   C     C_R   0.349127 0.153666 0.986831 0.090120
C72   C     C_R   0.345831 0.847315 0.484504 0.086677
C73   C     C_R   0.885807 0.662562 0.125847 0.177104
C74   C     C_R   0.884783 0.337904 0.621978 0.181623
C75   C     C_R   0.385216 0.162374 0.125585 0.186708
C76   C     C_R   0.381371 0.839323 0.623865 0.195998
C77   C     C_R   0.871327 0.711915 0.231565 0.157643
C78   C     C_R   0.873892 0.286302 0.721185 0.188014
C79   C     C_R   0.372483 0.212934 0.227982 0.199033
C80   C     C_R   0.371414 0.787186 0.722363 0.170525
C81   C     C_R   0.818677 0.752894 0.199101 -0.223701
C82   C     C_R   0.826329 0.240356 0.680937 -0.380093
C83   C     C_R   0.323572 0.257715 0.190963 -0.214473
C84   C     C_R   0.322302 0.742674 0.684308 -0.240403
C85   C     C_R   0.759496 0.697192 0.812134 -0.063793
C86   C     C_R   0.760781 0.300391 0.303960 -0.057786
C87   C     C_R   0.268068 0.203574 0.800959 -0.060559
C88   C     C_R   0.261212 0.799061 0.299871 -0.087286
H65   H     H_    0.805581 0.787593 0.285739 0.167766
H66   H     H_    0.816940 0.201888 0.760985 0.162357
H67   H     H_    0.313103 0.295501 0.273126 0.155070
H68   H     H_    0.311690 0.705383 0.765854 0.137222
H69   H     H_    0.234811 0.341981 0.089606 0.167082
H70   H     H_    0.229606 0.661589 0.589222 0.160837
H71   H     H_    0.729468 0.837657 0.097158 0.162087
H72   H     H_    0.731491 0.160897 0.589065 0.170954
H73   H     H_    0.767520 0.658528 0.731332 0.185938
H74   H     H_    0.768936 0.339049 0.224715 0.193887
H75   H     H_    0.278141 0.165652 0.721529 0.201160
H76   H     H_    0.270152 0.836642 0.218220 0.183334
O49   O     O_3   0.710407 0.422714 0.813941 -0.597265
C89   C     C_3   0.699050 0.391522 0.671169 0.266216
H77   H     H_    0.693804 0.338383 0.687500 0.155420
H78   H     H_    0.737799 0.401104 0.590335 0.088643
C90   C     C_3   0.637695 0.418125 0.599716 -0.760277
H79   H     H_    0.640460 0.471615 0.595514 0.239096
H80   H     H_    0.630444 0.399217 0.480951 0.222716
H81   H     H_    0.597447 0.403984 0.672273 0.303506
O50   O     O_3   0.674086 0.524990 0.327415 -0.622455
C91   C     C_3   0.675008 0.537692 0.167393 0.300906
H82   H     H_    0.634497 0.510307 0.111014 0.108501
H83   H     H_    0.719604 0.519460 0.115861 0.141574
C92   C     C_3   0.664062 0.608701 0.128209 -0.933307
H84   H     H_    0.708864 0.636978 0.149880 0.229590
H85   H     H_    0.650040 0.612874 0.004027 0.218011
H86   H     H_    0.625365 0.628544 0.199016 0.328603
O51   O     O_3   0.194687 0.953499 0.775438 -0.548540
C93   C     C_3   0.172090 0.963208 0.622137 0.403028
H87   H     H_    0.164176 0.916120 0.561252 0.083298
H88   H     H_    0.206708 0.993245 0.559920 0.086850
C94   C     C_3   0.108072 0.998792 0.623075 -1.019117
H89   H     H_    0.115121 0.046763 0.677765 0.250598
H90   H     H_    0.088225 0.005282 0.503534 0.207982
H91   H     H_    0.073510 0.971153 0.690827 0.264594
O52   O     O_3   0.189676 0.031049 0.068117 -0.588975
C95   C     C_3   0.127892 0.059276 0.064208 0.443002
H92   H     H_    0.117994 0.077763 0.946566 0.136759
H93   H     H_    0.124271 0.101160 0.144699 0.103667
C96   C     C_3   0.077785 0.008269 0.097582 -1.086986
H94   H     H_    0.092599 0.981684 0.203667 0.242553
H95   H     H_    0.030540 0.031006 0.115271 0.272728
H96   H     H_    0.072364 0.974076 0.999304 0.272374
O53   O     O_3   0.939724 0.118231 0.424351 -0.638011
C97   C     C_3   0.885906 0.106117 0.325146 0.250101
H97   H     H_    0.896528 0.065172 0.247270 0.158702
H98   H     H_    0.872274 0.150623 0.259135 0.145145
C98   C     C_3   0.829585 0.085567 0.416903 -0.902786
H99   H     H_    0.784520 0.097547 0.350679 0.243959
H100  H     H_    0.830635 0.032767 0.432988 0.257600
H101  H     H_    0.831214 0.109213 0.531603 0.265535
O54   O     O_3   0.892887 0.852124 0.058321 -0.577256
C99   C     C_3   0.862412 0.913360 0.045929 0.293110
H102  H     H_    0.823826 0.912320 0.953037 0.118754
H103  H     H_    0.897533 0.952265 0.023191 0.113293
C100  C     C_3   0.832964 0.931292 0.196875 -0.837431
H104  H     H_    0.802225 0.892080 0.236510 0.250540
H105  H     H_    0.871584 0.940607 0.286075 0.273023
H106  H     H_    0.802511 0.975254 0.182663 0.222714
O55   O     O_3   0.408800 0.646316 0.538261 -0.619068
C101  C     C_3   0.363306 0.598641 0.491194 0.430105
H107  H     H_    0.382350 0.561381 0.412536 0.098773
H108  H     H_    0.322336 0.621578 0.427473 0.141513
C102  C     C_3   0.339623 0.565152 0.633835 -1.014750
H109  H     H_    0.289630 0.548443 0.615499 0.257127
H110  H     H_    0.370522 0.522799 0.663158 0.256130
H111  H     H_    0.340367 0.598943 0.732643 0.272553
O56   O     O_3   0.391216 0.356350 0.975456 -0.620394
C103  C     C_3   0.357948 0.415420 0.945563 0.275651
H112  H     H_    0.310887 0.404819 0.885451 0.140480
H113  H     H_    0.384193 0.449966 0.872586 0.085575
C104  C     C_3   0.346566 0.449869 0.096549 -0.856724
H114  H     H_    0.325769 0.416197 0.179845 0.252100
H115  H     H_    0.392541 0.469830 0.144749 0.216348
H116  H     H_    0.313627 0.491281 0.076515 0.251245
O57   O     O_3   0.213031 0.213842 0.491328 -0.578298
C105  C     C_3   0.193881 0.148733 0.507117 -0.226850
H117  H     H_    0.153827 0.137627 0.423478 0.176530
H118  H     H_    0.179482 0.135199 0.623938 0.095054
H119  H     H_    0.235352 0.117282 0.480722 0.171404
O58   O     O_3   0.186366 0.806399 0.021592 -0.607783
C106  C     C_3   0.150363 0.861619 0.061020 -0.209807
H120  H     H_    0.138907 0.864651 0.184709 0.064505
H121  H     H_    0.106238 0.864678 0.986093 0.205228
H122  H     H_    0.178414 0.905318 0.038775 0.220345
O59   O     O_3   0.671522 0.683951 0.551744 -0.610395
C107  C     C_3   0.635850 0.638591 0.634658 -0.323716
H123  H     H_    0.608269 0.607335 0.551490 0.199527
H124  H     H_    0.601555 0.661495 0.712914 0.116421
H125  H     H_    0.668435 0.607308 0.706336 0.151508
O60   O     O_3   0.678536 0.313090 0.035166 -0.592522
C108  C     C_3   0.652728 0.369580 0.102281 -0.149333
H126  H     H_    0.636190 0.363322 0.220982 0.072161
H127  H     H_    0.613634 0.389279 0.024857 0.175744
H128  H     H_    0.689870 0.407025 0.115335 0.159180
O61   O     O_3   0.940232 0.625394 0.152504 -0.647285
C109  C     C_3   0.925101 0.574193 0.250508 0.137160
H129  H     H_    0.897908 0.534952 0.192923 0.114816
H130  H     H_    0.897947 0.589291 0.349258 0.074873
H131  H     H_    0.970040 0.554799 0.299822 0.214254
O62   O     O_3   0.922208 0.388145 0.677082 -0.662252
C110  C     C_3   0.986548 0.375010 0.648634 0.121152
H132  H     H_    0.004242 0.408615 0.563155 0.166104
H133  H     H_    0.998400 0.323180 0.626979 0.072991
H134  H     H_    0.015196 0.389451 0.748258 0.167026
O63   O     O_3   0.435271 0.121118 0.161308 -0.648734
C111  C     C_3   0.412693 0.072230 0.256650 0.168416
H135  H     H_    0.386234 0.034417 0.190991 0.120779
H136  H     H_    0.380013 0.088616 0.346680 0.101609
H137  H     H_    0.456222 0.051966 0.314082 0.216751
O64   O     O_3   0.417687 0.890242 0.678902 -0.659233
C112  C     C_3   0.482473 0.877605 0.656094 0.147345
H138  H     H_    0.500516 0.905638 0.561508 0.153360
H139  H     H_    0.496635 0.825708 0.656565 -0.025115
H140  H     H_    0.508431 0.899574 0.750635 0.186991
O65   O     O_3   0.045028 0.173818 0.002729 -0.766437
C113  C     C_3   0.078318 0.233206 0.015632 -0.074435
H141  H     H_    0.089021 0.255068 0.904472 0.126084
H142  H     H_    0.125625 0.223714 0.075146 0.186372
H143  H     H_    0.050655 0.268848 0.080532 0.230353
O66   O     O_3   0.033353 0.803693 0.539059 -0.689883
C114  C     C_3   0.065395 0.765198 0.433727 -0.063392
H144  H     H_    0.108235 0.792113 0.399029 0.098981
H145  H     H_    0.036585 0.750277 0.329427 0.117854
H146  H     H_    0.081329 0.720889 0.494519 0.225949
O67   O     O_3   0.516325 0.670634 0.065002 -0.720352
C115  C     C_3   0.551628 0.723877 0.011299 -0.022801
H147  H     H_    0.543473 0.734106 0.886641 0.074967
H148  H     H_    0.603785 0.714728 0.028775 0.147028
H149  H     H_    0.540668 0.766896 0.080607 0.243096
O68   O     O_3   0.527746 0.332086 0.509141 -0.681634
C116  C     C_3   0.560609 0.273481 0.485579 -0.047784
H150  H     H_    0.612719 0.281700 0.509535 0.134808
H151  H     H_    0.554576 0.255350 0.365850 0.114137
H152  H     H_    0.544952 0.236919 0.567958 0.234851
O69   O     O_3   0.004419 0.208227 0.760740 -0.700829
C117  C     C_3   0.054550 0.173246 0.690910 -0.565509
H153  H     H_    0.035895 0.129941 0.629917 0.205947
H154  H     H_    0.095077 0.158804 0.770333 0.167964
H155  H     H_    0.075775 0.203712 0.608054 0.231219
O70   O     O_3   0.965111 0.837061 0.323943 -0.648127
C118  C     C_3   0.009149 0.882849 0.268524 -0.413242
H156  H     H_    0.052962 0.890549 0.344355 0.122345
H157  H     H_    0.984224 0.929839 0.248878 0.206771
H158  H     H_    0.026051 0.865759 0.157768 0.192675
O71   O     O_3   0.456035 0.661895 0.831774 -0.665226
C119  C     C_3   0.493094 0.606223 0.792342 -0.385507
H159  H     H_    0.464288 0.561448 0.791826 0.174963
H160  H     H_    0.537462 0.598523 0.865987 0.154274
H161  H     H_    0.508266 0.610262 0.673785 0.196243
O72   O     O_3   0.462138 0.321246 0.281865 -0.686832
C120  C     C_3   0.505179 0.362589 0.207682 -0.415489
H162  H     H_    0.539502 0.389404 0.283970 0.146188
H163  H     H_    0.478520 0.399733 0.140289 0.207386
H164  H     H_    0.533383 0.332538 0.130788 0.202442
O73   O     O_3   0.932498 0.080014 0.980357 -0.643372
C121  C     C_3   0.866152 0.085553 0.946962 -0.361118
H165  H     H_    0.848822 0.134207 0.980510 0.213037
H166  H     H_    0.842031 0.048816 0.014916 0.187808
H167  H     H_    0.851600 0.075256 0.825121 0.145036
O74   O     O_3   0.898715 0.909974 0.583960 -0.596051
C122  C     C_3   0.895956 0.969481 0.663824 -0.337519
H168  H     H_    0.916076 0.009149 0.595061 0.207826
H169  H     H_    0.923022 0.968005 0.776306 0.151532
H170  H     H_    0.845114 0.980769 0.686594 0.187454
O75   O     O_3   0.368017 0.621318 0.155494 -0.645624
C123  C     C_3   0.310600 0.637710 0.073568 -0.217133
H171  H     H_    0.311168 0.687511 0.027923 0.196041
H172  H     H_    0.271799 0.637263 0.156005 0.150908
H173  H     H_    0.299018 0.602676 0.980005 0.128710
O76   O     O_3   0.464798 0.431488 0.598554 -0.619093
C124  C     C_3   0.501972 0.482636 0.543248 -0.257314
H174  H     H_    0.531811 0.468322 0.446494 0.165621
H175  H     H_    0.534631 0.499934 0.638200 0.157556
H176  H     H_    0.471129 0.523322 0.506923 0.147505

loop_
_geom_bond_atom_site_label_1
_geom_bond_atom_site_label_2
_geom_bond_distance
_ccdc_geom_bond_type
C19   H27   1.109705 S    
O69   C117  1.420802 S    
C15   H19   1.107405 S    
C103  C104  1.517903 S    
O2    Ba2   2.930446 S    
C2    H10   1.112657 S    
C11   O75   1.407956 S    
O38   C13   1.401260 S    
O65   C113  1.411114 S    
C106  H121  1.102496 S    
C112  H138  1.088039 S    
P8    C71   1.919202 S    
C101  H107  1.110401 S    
C42   C46   1.401904 A    
P5    Ba1   3.551650 S    
C63   C71   1.449031 A    
C93   H88   1.110307 S    
C10   O74   1.407589 S    
C34   C68   1.428995 A    
C20   H28   1.112274 S    
C61   C69   1.450391 A    
O72   C120  1.414926 S    
C117  H155  1.068602 S    
C99   H102  1.112847 S    
C29   H53   1.109866 S    
C82   H66   1.081996 S    
C8    O72   1.422900 S    
O29   Ba1   2.858493 S    
C32   H56   1.110931 S    
P10   C77   1.872742 S    
O42   C6    1.421282 S    
O31   Ba3   2.858493 S    
C89   H78   1.109476 S    
Ba1   O46   3.072115 S    
C31   H55   1.102917 S    
P4    O8    1.605163 S    
C7    O71   1.424508 S    
C107  H125  1.107703 S    
C73   O61   1.375225 S    
C93   C94   1.516268 S    
C56   C86   1.435375 A    
P9    O41   1.757714 S    
C92   H84   1.108323 S    
C73   C77   1.410038 A    
P11   O43   1.760586 S    
C35   H71   1.075696 S    
C119  H159  1.102479 S    
C116  H151  1.107243 S    
P6    O45   1.607456 S    
C37   C41   1.383102 A    
O32   Ba4   2.867261 S    
C91   C92   1.520666 S    
C23   H39   1.108229 S    
C110  H132  1.094706 S    
C14   H18   1.102155 S    
C120  H164  1.096683 S    
C88   H76   1.075909 S    
O66   C114  1.398624 S    
C39   C43   1.388930 A    
C18   H26   1.103268 S    
C77   C81   1.399447 A    
P4    C40   1.912164 S    
C89   C90   1.496251 S    
C84   H68   1.078593 S    
P12   O44   1.754764 S    
C10   H14   1.104377 S    
C106  H120  1.113119 S    
C76   C80   1.399857 A    
O68   C116  1.405620 S    
C50   C54   1.421737 A    
C98   H100  1.099710 S    
P5    O46   1.609268 S    
C4    H12   1.114245 S    
C105  H117  1.104689 S    
O75   C123  1.402823 S    
C66   C82   1.412068 A    
C96   H95   1.102095 S    
C74   O62   1.370453 S    
C112  H140  1.064124 S    
O25   Ba1   2.934336 S    
O5    Ba2   2.876683 S    
C20   O52   1.411615 S    
O24   P15   1.753134 S    
C109  H131  1.085518 S    
O27   Ba3   2.934336 S    
O7    Ba4   2.876683 S    
O30   Ba2   2.867261 S    
C36   C60   1.418138 A    
C124  H174  1.104793 S    
O18   C22   1.391433 S    
O15   P16   1.546709 D    
C18   H30   1.105643 S    
C50   O58   1.380146 S    
C28   H48   1.109657 S    
O13   P14   1.533169 D    
P10   O42   1.773700 S    
C102  H110  1.106710 S    
C1    C29   1.524483 S    
C71   C75   1.403772 A    
P7    Ba3   3.551650 S    
C115  H147  1.111040 S    
P7    C72   1.913529 S    
C27   H43   1.106376 S    
P3    O7    1.603382 S    
H1    C29   1.107851 S    
C25   H41   1.095617 S    
C26   H46   1.107676 S    
C92   H86   1.109221 S    
C5    C9    1.553739 S    
C121  H165  1.108071 S    
C7    C11   1.572175 S    
C119  H161  1.094591 S    
C52   C56   1.425292 A    
Ba3   Ba4   4.769390 S    
C41   H61   1.065192 S    
C19   O51   1.413715 S    
C63   C87   1.403173 A    
P3    C39   1.888955 S    
C44   H64   1.081993 S    
C61   C85   1.410544 A    
O51   C93   1.408989 S    
C67   C83   1.407571 A    
C96   H94   1.107044 S    
C22   C26   1.520921 S    
C108  H127  1.108978 S    
O70   C118  1.417297 S    
P9    O29   1.777008 S    
O60   C108  1.416046 S    
O26   Ba2   2.926932 S    
O6    Ba1   2.874325 S    
O21   C29   1.406705 S    
O50   C91   1.418217 S    
C109  H130  1.091194 S    
P12   O32   1.781264 S    
C13   H21   1.106018 S    
C10   H58   1.107609 S    
P6    C69   1.913591 S    
C123  H171  1.104010 S    
C15   H23   1.108383 S    
P9    C78   1.871590 S    
P1    C37   1.888626 S    
C3    H11   1.111714 S    
O49   C89   1.407608 S    
C12   O76   1.414725 S    
Ba3   O47   2.876802 S    
P5    O25   1.587390 D    
C55   C85   1.428076 A    
C90   H79   1.106935 S    
C75   C79   1.401277 A    
C34   H70   1.080001 S    
C107  H124  1.109178 S    
C63   C67   1.426810 A    
C4    O56   1.409061 S    
C124  H176  1.093727 S    
C20   H32   1.113280 S    
C72   C76   1.401369 A    
C13   C17   1.508855 S    
O64   C112  1.391098 S    
O17   C21   1.393695 S    
C80   C84   1.402694 A    
C4    C32   1.532066 S    
C115  H149  1.100048 S    
C24   H36   1.109283 S    
C110  H133  1.114333 S    
Ba2   O45   3.075121 S    
P2    O18   1.742354 S    
C104  H114  1.107928 S    
H3    C31   1.105985 S    
C74   C78   1.398788 A    
C91   H83   1.109545 S    
H4    C32   1.111452 S    
O56   C103  1.418856 S    
C117  H154  1.105969 S    
P5    C70   1.917346 S    
C97   H98   1.114707 S    
C21   H33   1.101504 S    
P8    Ba4   3.546367 S    
O20   C24   1.395319 S    
C23   H35   1.107378 S    
C114  H145  1.107841 S    
P5    O37   1.750649 S    
C118  H158  1.095875 S    
C64   C72   1.456652 A    
O10   Ba2   2.860422 S    
C46   C50   1.411028 A    
C8    C12   1.556713 S    
C87   H75   1.068146 S    
C111  H135  1.099669 S    
C97   C98   1.506463 S    
C96   H96   1.108580 S    
C38   C42   1.408210 A    
C113  H143  1.100654 S    
C101  H108  1.101370 S    
C90   H80   1.107074 S    
C95   H92   1.104176 S    
C28   H52   1.098327 S    
C122  H170  1.105759 S    
C17   H29   1.101778 S    
C62   C66   1.427151 A    
C123  H173  1.105717 S    
C49   C53   1.427838 A    
C68   C84   1.413049 A    
O4    Ba4   2.930446 S    
C99   H103  1.110502 S    
C48   C52   1.412393 A    
C21   H37   1.112990 S    
P13   C46   1.877363 S    
C35   C65   1.426727 A    
C101  C102  1.523329 S    
C90   H81   1.108901 S    
O40   C15   1.395545 S    
C41   C45   1.375624 A    
Ba1   O45   2.876802 S    
C44   C48   1.399469 A    
C16   H24   1.107445 S    
O74   C122  1.411144 S    
C40   C60   1.458407 A    
C6    O70   1.427221 S    
C99   C100  1.515819 S    
C12   H16   1.108528 S    
O14   P13   1.549046 D    
C119  H160  1.110019 S    
C116  H150  1.105936 S    
C2    C30   1.528859 S    
O37   C14   1.382598 S    
C52   O60   1.382949 S    
C6    O66   1.420349 S    
P1    O17   1.731266 S    
O10   P13   1.741334 S    
O39   C16   1.401427 S    
C105  H118  1.108462 S    
O12   P15   1.747453 S    
P1    O1    1.592208 D    
Ba4   O47   3.075121 S    
C27   H47   1.093768 S    
P6    O38   1.743535 S    
C104  H116  1.102600 S    
P3    O3    1.592208 D    
C120  H163  1.100261 S    
C11   H59   1.106291 S    
P4    O20   1.747379 S    
C12   H60   1.105064 S    
C26   H42   1.106417 S    
C62   C70   1.459875 A    
C103  H112  1.109671 S    
C54   C58   1.429138 A    
C86   H74   1.075255 S    
C33   C57   1.412011 A    
P1    Ba1   3.543628 S    
C81   H65   1.080206 S    
P11   C80   1.869671 S    
P3    Ba3   3.543628 S    
O23   P16   1.743453 S    
C53   C87   1.424483 A    
C118  H156  1.111409 S    
O41   C5    1.424687 S    
O21   P14   1.744615 S    
P2    C38   1.907575 S    
C64   C68   1.427326 A    
O62   C110  1.393900 S    
C30   H54   1.111096 S    
C98   H99   1.104788 S    
C8    O68   1.421502 S    
C49   O57   1.387711 S    
C3    C31   1.513147 S    
C111  H137  1.095779 S    
C51   O59   1.375353 S    
C36   C66   1.430350 A    
C106  H122  1.097743 S    
C112  H139  1.110109 S    
C75   O63   1.367263 S    
O59   C107  1.414693 S    
P10   O30   1.788597 S    
O22   C30   1.412449 S    
P1    O5    1.603382 S    
P12   O36   1.537930 D    
O67   C115  1.415085 S    
C39   C59   1.450110 A    
C13   H17   1.105734 S    
C25   H49   1.110262 S    
C93   H87   1.114439 S    
P7    O48   1.609268 S    
C1    H5    1.104623 S    
C3    O55   1.406333 S    
P8    O47   1.607456 S    
C1    O53   1.411948 S    
C105  H119  1.107743 S    
C3    H7    1.102020 S    
C102  H109  1.099279 S    
C55   C59   1.425974 A    
C94   H91   1.108698 S    
C9    H13   1.108744 S    
P6    O26   1.591232 D    
C115  H148  1.102248 S    
C91   H82   1.110049 S    
P11   O35   1.537225 D    
P8    O40   1.750162 S    
C16   C20   1.513479 S    
C92   H85   1.109948 S    
C89   H77   1.113198 S    
C121  H166  1.098587 S    
C116  H152  1.102220 S    
C65   C81   1.411033 A    
O12   Ba4   2.860422 S    
P2    Ba2   3.548826 S    
O23   C31   1.411573 S    
C24   H40   1.112557 S    
P15   C48   1.878828 S    
O76   C124  1.408311 S    
C19   H31   1.103771 S    
C7    O67   1.424374 S    
C1    H9    1.109498 S    
C121  H167  1.109152 S    
C5    O69   1.422141 S    
O63   C111  1.403384 S    
Ba1   Ba2   4.769390 S    
C11   H15   1.110698 S    
P9    O33   1.544875 D    
C108  H126  1.110034 S    
C76   O64   1.368371 S    
O1    Ba1   2.923098 S    
C5    O65   1.417315 S    
O3    Ba3   2.923098 S    
C2    O54   1.408997 S    
C14   C18   1.510382 S    
C15   C19   1.528658 S    
C40   C44   1.408034 A    
C123  H172  1.101077 S    
C6    C10   1.551316 S    
C98   H101  1.108078 S    
C79   C83   1.398802 A    
C114  H144  1.103667 S    
C54   C88   1.432140 A    
O57   C105  1.411999 S    
P3    O19   1.749190 S    
O71   C119  1.429659 S    
P4    O4    1.588361 D    
C62   C86   1.411921 A    
C124  H175  1.104418 S    
O61   C109  1.405469 S    
C113  H142  1.107130 S    
O52   C95   1.405721 S    
C102  H111  1.104310 S    
C21   C25   1.505038 S    
P14   C45   1.860386 S    
C23   C27   1.501372 S    
C35   C59   1.411840 A    
Ba2   O46   2.874440 S    
C18   O50   1.420296 S    
C14   H22   1.104760 S    
C85   H73   1.078665 S    
C16   H20   1.107746 S    
P12   C79   1.860831 S    
O9    Ba1   2.869216 S    
O53   C97   1.403985 S    
P4    Ba4   3.548826 S    
C118  H157  1.108328 S    
P2    O2    1.588361 D    
C27   H51   1.105152 S    
O9    P14   1.779883 S    
C28   H44   1.109977 S    
P7    O39   1.755798 S    
C64   C88   1.412217 A    
C51   C55   1.422028 A    
C33   H69   1.079883 S    
P16   C47   1.867612 S    
C9    O73   1.401210 S    
C33   C67   1.422527 A    
C43   H63   1.064782 S    
O11   Ba3   2.869216 S    
C4    H8    1.100804 S    
C111  H136  1.108864 S    
C94   H90   1.110069 S    
C53   C57   1.432904 A    
C108  H128  1.095643 S    
C47   C51   1.405210 A    
O55   C101  1.413281 S    
C78   C82   1.403718 A    
C43   C47   1.377395 A    
C37   C57   1.446929 A    
C56   C60   1.428487 A    
O22   P13   1.748370 S    
C95   H93   1.114772 S    
C122  H169  1.107289 S    
C109  H129  1.095935 S    
C94   H89   1.104451 S    
C38   C58   1.457555 A    
C34   C58   1.417129 A    
C45   C49   1.411214 A    
C17   O49   1.404733 S    
O54   C99   1.414203 S    
O16   P15   1.549346 D    
O44   C8    1.421734 S    
C36   H72   1.080879 S    
O73   C121  1.399191 S    
C22   H34   1.110329 S    
Ba3   O48   3.072115 S    
O24   C32   1.416546 S    
C100  H105  1.107822 S    
C70   C74   1.405009 A    
P10   O34   1.539588 D    
C100  H106  1.108536 S    
C95   C96   1.520010 S    
P11   O31   1.784044 S    
P2    O6    1.605163 S    
C107  H123  1.109129 S    
P7    O27   1.587390 D    
C25   H45   1.102030 S    
P8    O28   1.591232 D    
O58   C106  1.410285 S    
C26   H50   1.109272 S    
C69   C73   1.412361 A    
H2    C30   1.110895 S    
C2    H6    1.110205 S    
C83   H67   1.083604 S    
O11   P16   1.761364 S    
C42   H62   1.081479 S    
C110  H134  1.071283 S    
Ba4   O48   2.874440 S    
P6    Ba2   3.546367 S    
C104  H115  1.105680 S    
C120  H162  1.101312 S    
O43   C7    1.428603 S    
C61   C65   1.426447 A    
C103  H113  1.115495 S    
C117  H153  1.100642 S    
C97   H97   1.108589 S    
O19   C23   1.408981 S    
C22   H38   1.111042 S    
C113  H141  1.100214 S    
C24   C28   1.526470 S    
C114  H146  1.101198 S    
C100  H104  1.098148 S    
O28   Ba4   2.926932 S    
O8    Ba3   2.874325 S    
C17   H25   1.104979 S    
C122  H168  1.109335 S    
C9    H57   1.116115 S    
