data_mof_unit_49332.cif
_audit_creation_date              2012-12-10T18:22:16-0500
_audit_creation_method            fapswitch 2.2
_symmetry_space_group_name_H-M    P1
_symmetry_Int_Tables_number       1
_space_group_crystal_system       triclinic
_cell_length_a                    15.011633
_cell_length_b                    14.006092
_cell_length_c                    15.730427
_cell_angle_alpha                 90.26069
_cell_angle_beta                  90.115064
_cell_angle_gamma                 90.001042
_cell_volume                      3307.34921537

loop_
_atom_site_label
_atom_site_type_symbol
_atom_type_description
_atom_site_fract_x
_atom_site_fract_y
_atom_site_fract_z
_atom_type_partial_charge
C1    C     C_R   0.326444 0.499999 0.499674 0.892097
C2    C     C_3   0.603936 0.534721 0.949106 -0.442875
C3    C     C_3   0.608377 0.542694 0.049608 0.060089
C4    C     C_1   0.507604 0.501142 0.826106 -0.110425
C5    C     C_1   0.509663 0.499054 0.174444 -0.137482
C6    C     C_1   0.504128 0.499184 0.249541 -0.192161
C7    C     C_R   0.815158 0.586997 0.495664 -0.264505
C8    C     C_R   0.769396 0.500008 0.496296 -0.073893
C9    C     C_R   0.815147 0.413040 0.493930 -0.264670
C10   C     C_R   0.907276 0.412400 0.492556 0.118945
C11   C     C_R   0.953616 0.500028 0.493268 0.061204
C12   C     C_R   0.499846 0.499773 0.338185 0.914908
C13   C     C_R   0.907284 0.587654 0.494324 0.119281
C14   C     C_R   0.953673 0.325714 0.491390 -0.225103
C15   C     C_R   0.046229 0.325710 0.491945 -0.223503
C16   C     C_R   0.092635 0.412393 0.493605 0.118233
C17   C     C_R   0.046304 0.500024 0.493810 0.060189
C18   C     C_R   0.092638 0.587647 0.495366 0.117867
C19   C     C_R   0.046240 0.674342 0.495470 -0.221936
C20   C     C_R   0.953686 0.674345 0.494921 -0.222149
C21   C     C_R   0.184766 0.413030 0.495581 -0.264874
C22   C     C_R   0.230547 0.500000 0.497743 -0.075461
C23   C     C_R   0.673555 0.500000 0.499099 0.891721
C24   C     C_R   0.184767 0.586986 0.497313 -0.263537
C25   C     C_R   0.560021 0.797848 0.450778 -0.057864
C26   C     C_R   0.559990 0.201645 0.450752 -0.064296
C27   C     C_R   0.440013 0.798385 0.549116 -0.064051
C28   C     C_R   0.440028 0.202108 0.549136 -0.062621
C29   C     C_R   0.438492 0.899051 0.550185 0.015874
C30   C     C_R   0.438502 0.101447 0.550204 0.015528
C31   C     C_R   0.499934 0.949376 0.499798 0.084793
C32   C     C_R   0.499936 0.050609 0.499811 0.085615
C33   C     C_R   0.561410 0.898522 0.449462 0.018340
C34   C     C_R   0.561389 0.100958 0.449463 0.017720
C35   C     C_R   0.377331 0.950341 0.600207 -0.211258
C36   C     C_R   0.377337 0.050664 0.600218 -0.211336
C37   C     C_R   0.622463 0.049666 0.399330 -0.213802
C38   C     C_R   0.622504 0.949334 0.399365 -0.212745
C39   C     C_R   0.500389 0.500223 0.661917 0.914673
C40   C     C_3   0.437367 0.562453 0.050532 -0.399460
C41   C     C_3   0.499973 0.397153 0.047616 -0.427318
C42   C     C_3   0.495153 0.398381 0.949898 -0.400818
C43   C     C_3   0.437243 0.566392 0.952890 -0.409571
C44   C     C_1   0.504015 0.500806 0.750814 -0.190078
C45   C     C_3   0.516205 0.499939 0.083041 0.295075
C46   C     C_3   0.511051 0.500863 0.917575 0.333085
H1    H     H_    0.371005 0.542769 0.928673 0.170684
H2    H     H_    0.428681 0.372162 0.928596 0.172559
H3    H     H_    0.081465 0.258169 0.491577 0.145057
H4    H     H_    0.220627 0.345793 0.495635 0.161252
H5    H     H_    0.220624 0.654217 0.498753 0.161249
H6    H     H_    0.081480 0.741879 0.496465 0.145084
H7    H     H_    0.918444 0.741882 0.495545 0.144565
H8    H     H_    0.606686 0.757337 0.412612 0.126658
H9    H     H_    0.606610 0.241741 0.412474 0.128709
H10   H     H_    0.393373 0.758321 0.587388 0.131199
H11   H     H_    0.393392 0.242556 0.587416 0.131641
H12   H     H_    0.329530 0.912891 0.639338 0.138187
H13   H     H_    0.329538 0.088508 0.639354 0.138354
H14   H     H_    0.670247 0.087115 0.360177 0.134728
H15   H     H_    0.670411 0.911581 0.360337 0.130997
H16   H     H_    0.372845 0.531756 0.072224 0.174417
H17   H     H_    0.436235 0.368290 0.072944 0.177997
H18   H     H_    0.552511 0.346332 0.067063 0.171760
H19   H     H_    0.440209 0.636029 0.077214 0.184591
H20   H     H_    0.546020 0.348797 0.923191 0.172950
H21   H     H_    0.446751 0.640915 0.930915 0.166245
H22   H     H_    0.625322 0.600564 0.916320 0.148483
H23   H     H_    0.652596 0.480701 0.925450 0.168261
H24   H     H_    0.779300 0.654228 0.496881 0.159872
H25   H     H_    0.779277 0.345806 0.493772 0.159947
H26   H     H_    0.918427 0.258178 0.490648 0.144443
N1    N     N_R   0.500070 0.750030 0.500040 -0.101725
N2    N     N_R   0.500070 0.249970 0.500040 -0.101497
O1    O     O_R   0.367860 0.580280 0.500020 -0.629645
O2    O     O_R   0.367860 0.419720 0.500020 -0.630160
O3    O     O_R   0.500020 0.580310 0.377140 -0.612367
O4    O     O_R   0.500020 0.419690 0.377140 -0.618473
O5    O     O_R   0.632160 0.580270 0.499980 -0.630871
O6    O     O_R   0.632160 0.419730 0.499980 -0.629617
O7    O     O_R   0.500010 0.580240 0.622850 -0.615616
O8    O     O_R   0.500010 0.419760 0.622850 -0.614606
Zn1   Zn    Zn3+2 0.500020 0.607200 0.499990 0.945696
Zn2   Zn    Zn3+2 0.500020 0.392800 0.499990 0.943700
C47   C     C_R   0.618274 0.647366 0.082971 0.104563
C48   C     C_R   0.648617 0.663373 0.167284 -0.124864
C49   C     C_R   0.657031 0.755459 0.200646 -0.131691
C50   C     C_R   0.634710 0.834227 0.151362 -0.109608
C51   C     C_R   0.603714 0.820935 0.068613 -0.138729
C52   C     C_R   0.595224 0.728935 0.034615 -0.175017
H27   H     H_    0.666260 0.604275 0.208024 0.136511
H28   H     H_    0.680904 0.765541 0.264999 0.113427
H29   H     H_    0.640997 0.905569 0.177446 0.123401
H30   H     H_    0.585497 0.882226 0.030674 0.128258
H31   H     H_    0.568474 0.723884 0.971283 0.125686
C53   C     C_R   0.694904 0.489574 0.077370 0.093873
C54   C     C_R   0.698639 0.415987 0.138841 -0.184301
C55   C     C_R   0.779885 0.374986 0.162430 -0.133391
C56   C     C_R   0.859194 0.406598 0.126356 -0.102488
C57   C     C_R   0.857677 0.479907 0.066869 -0.132743
C58   C     C_R   0.776820 0.521319 0.043055 -0.152805
H32   H     H_    0.640676 0.389518 0.170941 0.133933
H33   H     H_    0.781320 0.318844 0.209498 0.124804
H34   H     H_    0.921914 0.374776 0.145032 0.123050
H35   H     H_    0.919336 0.505206 0.039434 0.126737
H36   H     H_    0.778042 0.579217 0.997665 0.129242

loop_
_geom_bond_atom_site_label_1
_geom_bond_atom_site_label_2
_ccdc_geom_bond_type
C30   C32   A    
C49   C50   A    
C16   C21   A    
C27   C29   A    
C34   C37   A    
C41   C42   S    
C19   C20   A    
O6    Zn2   S    
C36   H13   S    
C28   N2    A    
C26   H9    S    
O2    Zn2   S    
C7    H24   S    
C54   C55   A    
C7    C8    A    
C4    C46   S    
C47   C48   A    
C2    C46   S    
C57   H35   S    
C35   H12   S    
C18   C24   A    
C2    H22   S    
C48   H27   S    
C6    C12   S    
C5    C6    T    
C3    C47   S    
O3    Zn1   S    
C15   C16   A    
C8    C23   S    
C40   H16   S    
C18   C19   A    
C42   C46   S    
C51   H30   S    
C19   H6    S    
C26   C34   A    
C40   C43   S    
C31   C32   A    
C8    C9    A    
C12   O4    A    
C31   C33   A    
C3    C53   S    
C23   O6    A    
C2    H23   S    
C9    C10   A    
C54   H32   S    
C38   H15   S    
C24   H5    S    
C56   H34   S    
C1    C22   S    
C53   C58   A    
C53   C54   A    
C21   H4    S    
O7    Zn1   S    
C40   C45   S    
C1    O1    A    
C52   H31   S    
C25   H8    S    
C39   O7    A    
C10   C14   A    
C48   C49   A    
C16   C17   A    
C4    C44   T    
C28   H11   S    
C5    C45   S    
C3    C45   S    
C35   C36   A    
C32   C34   A    
C37   C38   A    
C56   C57   A    
C12   O3    A    
C17   C18   A    
C42   H2    S    
O8    Zn2   S    
C40   H19   S    
C22   C24   A    
C41   H17   S    
C49   H28   S    
C58   H36   S    
C50   H29   S    
C11   C17   A    
C13   C20   A    
C27   H10   S    
C1    O2    A    
C14   H26   S    
C9    H25   S    
C39   O8    A    
N2    Zn2   S    
C20   H7    S    
C47   C52   A    
C39   C44   S    
C29   C35   A    
C33   C38   A    
C30   C36   A    
C28   C30   A    
C2    C3    S    
C29   C31   A    
C27   N1    A    
O5    Zn1   S    
C11   C13   A    
O1    Zn1   S    
C57   C58   A    
C26   N2    A    
C25   N1    A    
C15   H3    S    
C43   C46   S    
C37   H14   S    
C10   C11   A    
O4    Zn2   S    
C7    C13   A    
C50   C51   A    
C43   H21   S    
C55   C56   A    
C42   H20   S    
C41   C45   S    
C14   C15   A    
C41   H18   S    
C23   O5    A    
C51   C52   A    
C21   C22   A    
C43   H1    S    
N1    Zn1   S    
C55   H33   S    
C25   C33   A    
