data_mof_unit_49407.cif
_audit_creation_date              2012-12-10T17:43:39-0500
_audit_creation_method            fapswitch 2.2
_symmetry_space_group_name_H-M    P1
_symmetry_Int_Tables_number       1
_space_group_crystal_system       triclinic
_cell_length_a                    14.986979
_cell_length_b                    10.726446
_cell_length_c                    9.876653
_cell_angle_alpha                 89.28867
_cell_angle_beta                  90.022732
_cell_angle_gamma                 91.751543
_cell_volume                      1586.87716621

loop_
_atom_site_label
_atom_site_type_symbol
_atom_type_description
_atom_site_fract_x
_atom_site_fract_y
_atom_site_fract_z
_atom_type_partial_charge
C1    C     C_R   0.505508 0.259840 0.501937 0.872449
C2    C     C_R   0.184753 0.456668 0.616996 -0.250212
C3    C     C_R   0.230760 0.493411 0.499450 -0.068464
C4    C     C_R   0.326662 0.498743 0.499965 0.869359
C5    C     C_R   0.185254 0.522781 0.380433 -0.257320
C6    C     C_R   0.516130 0.107638 0.762031 -0.146963
C7    C     C_R   0.486627 0.044638 0.878827 -0.138466
C8    C     C_R   0.439719 0.931544 0.868168 -0.159618
C9    C     C_R   0.430444 0.875870 0.742075 -0.152576
C10   C     C_R   0.467928 0.933923 0.624575 0.098302
C11   C     C_R   0.498257 0.058091 0.631687 0.092718
C12   C     C_R   0.907630 0.516429 0.379378 0.111369
C13   C     C_R   0.508886 0.125849 0.507540 -0.116946
C14   C     C_R   0.508301 0.064284 0.383607 -0.214116
C15   C     C_R   0.496966 0.937382 0.380786 -0.215926
C16   C     C_R   0.490821 0.738883 0.499748 0.888478
C17   C     C_R   0.479508 0.871342 0.500852 -0.128402
C18   C     C_R   0.381886 0.337325 0.142302 -0.168965
C19   C     C_R   0.323511 0.257765 0.072718 -0.199038
C20   C     C_R   0.323546 0.257959 0.932618 -0.193319
C21   C     C_R   0.382151 0.337444 0.861390 -0.173501
C22   C     C_R   0.441875 0.419793 0.928542 0.156939
C23   C     C_R   0.952825 0.405134 0.734760 -0.030942
C24   C     C_R   0.441827 0.419806 0.073354 0.166496
C25   C     C_R   0.555446 0.576957 0.070610 -0.122370
C26   C     C_R   0.555402 0.576950 0.927244 -0.110403
C27   C     C_R   0.673346 0.499082 0.499992 0.904799
C28   C     C_R   0.815722 0.520669 0.380669 -0.243741
C29   C     C_R   0.769072 0.492162 0.499588 -0.086898
C30   C     C_R   0.813296 0.454802 0.617171 -0.217259
C31   C     C_R   0.905794 0.444591 0.617671 0.029760
C32   C     C_R   0.953115 0.479992 0.498217 0.053893
C33   C     C_2   0.908578 0.353786 0.859008 0.891408
C34   C     C_R   0.046049 0.411493 0.733317 -0.270311
C35   C     C_R   0.092321 0.450094 0.616733 0.093206
C36   C     C_R   0.046049 0.481902 0.497814 0.067131
C37   C     C_R   0.092960 0.518086 0.378917 0.106841
C38   C     C_R   0.047096 0.550661 0.261056 -0.178310
C39   C     C_R   0.954590 0.550410 0.261511 -0.193142
H1    H     H_    0.780683 0.549384 0.289870 0.159778
H2    H     H_    0.278405 0.195477 0.878595 0.157467
H3    H     H_    0.379179 0.330730 0.754145 0.208399
H4    H     H_    0.774844 0.436032 0.707999 0.195800
H5    H     H_    0.600553 0.639797 0.872292 0.156290
H6    H     H_    0.082974 0.383673 0.822689 0.183349
H7    H     H_    0.220774 0.432231 0.708309 0.160753
H8    H     H_    0.221551 0.551144 0.289574 0.164742
H9    H     H_    0.082740 0.578017 0.169412 0.160755
H10   H     H_    0.919759 0.578123 0.170298 0.171690
H11   H     H_    0.517808 0.113856 0.288150 0.173526
H12   H     H_    0.555400 0.192343 0.776906 0.180758
H13   H     H_    0.911327 0.336754 0.062656 0.347850
H14   H     H_    0.498670 0.084943 0.977392 0.146832
H15   H     H_    0.413186 0.884924 0.957973 0.139694
H16   H     H_    0.393590 0.787714 0.737502 0.161474
H17   H     H_    0.503548 0.891064 0.284556 0.169769
H18   H     H_    0.600671 0.639745 0.123870 0.145436
H19   H     H_    0.377878 0.331207 0.249657 0.209472
H20   H     H_    0.278141 0.195353 0.128029 0.157984
N1    N     N_R   0.499150 0.498800 0.142780 -0.123019
N2    N     N_R   0.499120 0.498720 0.857170 -0.127888
O1    O     O_R   0.500000 0.316780 0.614690 -0.654841
O2    O     O_R   0.946209 0.378539 0.985783 -0.823550
O3    O     O_R   0.499990 0.316750 0.385360 -0.638641
O4    O     O_R   0.367850 0.499980 0.614680 -0.648959
O5    O     O_R   0.367840 0.499960 0.385350 -0.643984
O6    O     O_R   0.500010 0.683250 0.614640 -0.623120
O7    O     O_R   0.500000 0.683220 0.385310 -0.621710
O8    O     O_R   0.632160 0.500040 0.614650 -0.621451
O9    O     O_R   0.632150 0.500020 0.385320 -0.617732
O10   O     O_2   0.842176 0.285166 0.850830 -0.639645
Zn1   Zn    Zn3+2 0.500010 0.500020 0.653130 0.930538
Zn2   Zn    Zn3+2 0.499990 0.499980 0.346870 0.936243

loop_
_geom_bond_atom_site_label_1
_geom_bond_atom_site_label_2
_ccdc_geom_bond_type
C2    C35   A    
C5    C37   A    
C27   C29   S    
C19   C20   A    
C1    O1    A    
C20   H2    S    
C26   H5    S    
C7    C8    A    
C2    H7    S    
C5    H8    S    
C29   C30   A    
C12   C28   A    
C18   C24   A    
C32   C36   A    
C36   C37   A    
C26   N2    A    
O6    Zn1   S    
C4    O4    A    
C34   C35   A    
C28   H1    S    
C10   C17   A    
N1    Zn2   S    
C18   C19   A    
C18   H19   S    
C35   C36   A    
C8    C9    A    
C23   C33   S    
O3    Zn2   S    
C9    H16   S    
C25   N1    A    
C6    H12   S    
C9    C10   A    
C38   H9    S    
C27   O8    A    
C24   N1    A    
C13   C14   A    
C12   C32   A    
C25   H18   S    
C38   C39   A    
C8    H15   S    
C6    C11   A    
C34   H6    S    
C16   C17   S    
C19   H20   S    
O7    Zn2   S    
O5    Zn2   S    
C23   C31   A    
O8    Zn1   S    
C37   C38   A    
C31   C32   A    
C30   C31   A    
C33   O2    S    
C23   C34   A    
O9    Zn2   S    
O1    Zn1   S    
C16   O6    A    
C27   O9    A    
C16   O7    A    
N2    Zn1   S    
C39   H10   S    
C22   C24   A    
C30   H4    S    
C1    C13   S    
C7    H14   S    
C3    C4    S    
C1    O3    A    
C15   C17   A    
C28   C29   A    
C3    C5    A    
H13   O2    S    
C6    C7    A    
O4    Zn1   S    
C15   H17   S    
C12   C39   A    
C2    C3    A    
C25   C26   A    
C22   N2    A    
C4    O5    A    
C11   C13   A    
C14   H11   S    
C10   C11   A    
C33   O10   D    
C21   H3    S    
C20   C21   A    
C14   C15   A    
C21   C22   A    
