data_mof_unit_27471.cif
_audit_creation_date              2012-12-10T17:31:12-0500
_audit_creation_method            fapswitch 2.2
_symmetry_space_group_name_H-M    P1
_symmetry_Int_Tables_number       1
_space_group_crystal_system       triclinic
_cell_length_a                    11.984561
_cell_length_b                    12.887363
_cell_length_c                    15.302733
_cell_angle_alpha                 87.159201
_cell_angle_beta                  115.246606
_cell_angle_gamma                 93.394651
_cell_volume                      2133.21309601

loop_
_atom_site_label
_atom_site_type_symbol
_atom_type_description
_atom_site_fract_x
_atom_site_fract_y
_atom_site_fract_z
_atom_type_partial_charge
C1    C     C_R   0.477079 0.299469 0.498075 0.886711
C2    C     C_R   0.639713 0.970845 0.482857 -0.224087
C3    C     C_R   0.365739 0.136710 0.510936 -0.204302
C4    C     C_R   0.633593 0.863286 0.487975 -0.202941
C5    C     C_R   0.553301 0.132924 0.486306 -0.287736
C6    C     C_R   0.445983 0.867105 0.512531 -0.291119
C7    C     C_R   0.548291 0.026110 0.491714 0.189009
C8    C     C_R   0.450824 0.973901 0.506868 0.190472
C9    C     C_R   0.010358 0.609677 0.420799 -0.339286
C10   C     C_R   0.989170 0.389806 0.578348 -0.340390
C11   C     C_R   0.130022 0.598344 0.427993 0.016568
C12   C     C_R   0.522815 0.700539 0.501722 0.881483
C13   C     C_R   0.870249 0.401983 0.572347 0.016780
C14   C     C_R   0.155577 0.449790 0.531239 -0.056725
C15   C     C_R   0.843141 0.548810 0.466803 -0.053768
C16   C     C_R   0.576650 0.499857 0.681127 0.885757
C17   C     C_R   0.424105 0.505800 0.319181 0.871116
C18   C     C_R   0.036338 0.459011 0.527356 0.090865
C19   C     C_R   0.962699 0.539988 0.471130 0.090535
C20   C     C_R   0.627910 0.511616 0.786632 -0.151162
C21   C     C_R   0.383427 0.534129 0.217209 -0.174281
C22   C     C_R   0.793088 0.473833 0.945335 0.111186
C23   C     C_R   0.672101 0.513077 0.126624 -0.191371
C24   C     C_R   0.294349 0.669936 0.095172 0.096157
C25   C     C_R   0.745656 0.475159 0.844424 -0.273386
C26   C     C_R   0.300185 0.613724 0.177155 -0.222952
C27   C     C_R   0.560982 0.558399 0.830257 0.130001
C28   C     C_R   0.453589 0.504032 0.170148 0.155649
C29   C     C_R   0.611144 0.562944 0.932153 0.013455
C30   C     C_R   0.466879 0.572632 0.100284 0.031050
C31   C     C_R   0.721623 0.511177 0.989088 0.107213
C32   C     C_R   0.380447 0.651767 0.057432 0.074832
C33   C     C_R   0.545389 0.605176 0.979185 0.074372
C34   C     C_R   0.463288 0.686514 0.939097 -0.173172
C35   C     C_R   0.561236 0.562255 0.069495 0.068521
C36   C     C_3   0.445355 0.332851 0.108420 -0.789626
C37   C     C_3   0.340089 0.517210 0.767335 -0.717805
C38   C     C_R   0.754538 0.492842 0.088058 -0.221259
C39   C     C_R   0.383479 0.710846 0.978886 -0.245814
C40   C     C_R   0.535997 0.811849 0.501875 -0.051576
C41   C     C_R   0.463529 0.188168 0.497318 -0.054542
C42   C     C_R   0.359403 0.029151 0.515730 -0.223939
H1    H     H_    0.838799 0.454973 0.134222 0.173201
H2    H     H_    0.461788 0.733078 0.877852 0.164043
H3    H     H_    0.371096 0.827206 0.524385 0.156724
H4    H     H_    0.628258 0.172848 0.474569 0.159625
H5    H     H_    0.703423 0.820616 0.479505 0.157049
H6    H     H_    0.295995 0.179361 0.519548 0.156436
H7    H     H_    0.284197 0.989377 0.527072 0.136829
H8    H     H_    0.714877 0.010609 0.471452 0.138217
H9    H     H_    0.784986 0.610120 0.423109 0.123738
H10   H     H_    0.212660 0.387232 0.573359 0.119052
H11   H     H_    0.512502 0.366020 0.252364 0.236685
H12   H     H_    0.321787 0.773629 0.945456 0.145356
H13   H     H_    0.493031 0.258161 0.127226 0.240070
H14   H     H_    0.451663 0.366213 0.042308 0.254316
H15   H     H_    0.346687 0.317063 0.093230 0.235542
H16   H     H_    0.424095 0.635895 0.711988 0.240260
H17   H     H_    0.249434 0.551048 0.722408 0.231176
H18   H     H_    0.344531 0.498082 0.840245 0.237453
H19   H     H_    0.347230 0.444260 0.734876 0.237455
H20   H     H_    0.947681 0.400047 0.959535 0.182455
H21   H     H_    0.971360 0.490942 0.040861 0.186693
H22   H     H_    0.252490 0.820839 0.059769 0.183478
H23   H     H_    0.834408 0.348241 0.611667 0.129292
H24   H     H_    0.149772 0.733272 0.983273 0.184247
H25   H     H_    0.166416 0.652719 0.389505 0.130478
H26   H     H_    0.955950 0.672686 0.376663 0.146073
H27   H     H_    0.043685 0.326872 0.622532 0.142545
H28   H     H_    0.244303 0.636250 0.212586 0.173816
H29   H     H_    0.798582 0.442570 0.810826 0.164816
H30   H     H_    0.697158 0.492347 0.201852 0.177347
N1    N     N_R   0.799120 0.480200 0.517090 -0.095520
N2    N     N_R   0.200880 0.519800 0.482910 -0.093347
N3    N     N_2   0.503176 0.402604 0.188387 -0.310195
N4    N     N_2   0.438635 0.591497 0.773489 -0.313507
N5    N     N_3   0.910751 0.430118 0.003300 -0.465587
N6    N     N_3   0.205541 0.748970 0.055802 -0.467009
O1    O     O_R   0.580150 0.341050 0.504560 -0.629757
O2    O     O_R   0.419850 0.658950 0.495440 -0.635425
O3    O     O_R   0.388090 0.353760 0.493600 -0.621506
O4    O     O_R   0.611910 0.646240 0.506400 -0.622329
O5    O     O_R   0.650890 0.490020 0.640860 -0.613142
O6    O     O_R   0.349110 0.509980 0.359140 -0.607611
O7    O     O_R   0.458830 0.502730 0.629890 -0.609041
O8    O     O_R   0.541170 0.497270 0.370110 -0.615866
Zn1   Zn    Zn3+2 0.628240 0.491510 0.507320 0.934004
Zn2   Zn    Zn3+2 0.371760 0.508490 0.492680 0.930880

loop_
_geom_bond_atom_site_label_1
_geom_bond_atom_site_label_2
_ccdc_geom_bond_type
O5    Zn1   S    
C21   C26   A    
C3    C42   A    
C6    H3    S    
C27   C29   A    
C14   C18   A    
H20   N5    S    
C2    C7    A    
O1    Zn1   S    
H16   N4    S    
C7    C8    A    
C13   H23   S    
C15   C19   A    
C30   C35   A    
C14   N2    A    
C24   C26   A    
C39   H12   S    
C20   C25   A    
C1    O3    A    
O4    Zn1   S    
C29   C33   A    
C3    H6    S    
C18   C19   A    
C32   C39   A    
N1    Zn1   S    
C2    H8    S    
C9    C19   A    
C14   H10   S    
C4    C40   A    
C22   C25   A    
C25   H29   S    
C15   H9    S    
H11   N3    S    
C11   H25   S    
H24   N6    S    
C22   C31   A    
C17   O8    A    
C37   H18   S    
C34   H2    S    
C36   H15   S    
C5    C7    A    
O8    Zn1   S    
C6    C8    A    
C10   C13   A    
C16   O5    A    
C17   C21   S    
C34   C39   A    
C12   C40   S    
C2    C4    A    
C24   C32   A    
C36   H14   S    
C36   N3    S    
C16   C20   S    
C33   C34   A    
C12   O4    A    
C9    C11   A    
C37   H17   S    
C24   N6    S    
C15   N1    A    
C37   N4    S    
C13   N1    A    
C23   C35   A    
C16   O7    A    
C1    O1    A    
C6    C40   A    
C27   N4    S    
H21   N5    S    
O7    Zn2   S    
C1    C41   S    
C5    C41   A    
C3    C41   A    
H22   N6    S    
C23   H30   S    
C21   C28   A    
O6    Zn2   S    
C22   N5    S    
C8    C42   A    
C11   N2    A    
C37   H19   S    
C20   C27   A    
C23   C38   A    
C5    H4    S    
C31   C38   A    
C17   O6    A    
C28   C30   A    
C9    H26   S    
C38   H1    S    
O2    Zn2   S    
C36   H13   S    
C30   C32   A    
C10   C18   A    
C26   H28   S    
C12   O2    A    
C33   C35   A    
O3    Zn2   S    
C42   H7    S    
C10   H27   S    
C29   C31   A    
N2    Zn2   S    
C28   N3    S    
C4    H5    S    
