data_mof_unit_29296.cif
_audit_creation_date              2012-12-11T14:43:34-0500
_audit_creation_method            fapswitch 2.2
_symmetry_space_group_name_H-M    P1
_symmetry_Int_Tables_number       1
_space_group_crystal_system       triclinic
_cell_length_a                    20.819653
_cell_length_b                    7.092713
_cell_length_c                    16.450866
_cell_angle_alpha                 89.755213
_cell_angle_beta                  92.569382
_cell_angle_gamma                 90.070563
_cell_volume                      2426.79789804

loop_
_atom_site_label
_atom_site_type_symbol
_atom_type_description
_atom_site_fract_x
_atom_site_fract_y
_atom_site_fract_z
_atom_type_partial_charge
O1    O     O_R   0.564840 0.505290 0.579830 -0.536635
O2    O     O_R   0.435160 0.005290 0.420170 -0.538925
O3    O     O_R   0.556720 0.179930 0.409350 -0.540036
O4    O     O_R   0.443280 0.679930 0.590650 -0.540602
C1    C     C_R   0.569018 0.346401 0.379535 0.721788
C2    C     C_R   0.429471 0.844832 0.618815 0.719878
O5    O     O_R   0.572280 0.175810 0.578530 -0.532352
O6    O     O_R   0.427720 0.675810 0.421470 -0.534973
O7    O     O_R   0.450830 0.001920 0.590540 -0.534147
O8    O     O_R   0.549170 0.501920 0.409460 -0.542178
C3    C     C_R   0.590565 0.345076 0.603879 0.696228
C4    C     C_R   0.409482 0.844713 0.396070 0.689732
O9    O     O_3   0.460130 0.338030 0.503750 -0.368182
O10   O     O_3   0.539870 0.838030 0.496250 -0.367602
V1    V     V_3+5 0.507400 0.064560 0.499310 1.447076
V2    V     V_3+5 0.492600 0.564560 0.500690 1.443053
C5    C     C_R   0.140090 0.906739 0.171271 -0.052640
C6    C     C_R   0.859765 0.406851 0.828907 -0.056102
C7    C     C_R   0.355160 0.858861 0.334395 -0.097652
C8    C     C_R   0.644824 0.362750 0.665509 -0.108527
C9    C     C_R   0.315781 0.999661 0.206720 -0.022016
C10   C     C_R   0.686301 0.523463 0.787492 -0.029143
C11   C     C_R   0.365709 0.959120 0.263230 -0.212946
C12   C     C_R   0.636334 0.483734 0.731016 -0.204543
C13   C     C_R   0.292851 0.789697 0.348526 -0.107942
C14   C     C_R   0.705748 0.280208 0.655374 -0.112086
C15   C     C_R   0.239984 0.831611 0.291926 0.053074
C16   C     C_R   0.759139 0.326644 0.710259 0.056654
C17   C     C_R   0.252772 0.934921 0.219435 0.087582
C18   C     C_R   0.747935 0.444820 0.778568 0.090790
C19   C     C_R   0.202595 0.969842 0.160251 -0.201381
C20   C     C_R   0.798429 0.481664 0.837063 -0.206489
C21   C     C_R   0.126491 0.816184 0.243858 -0.207190
C22   C     C_R   0.872103 0.304100 0.759330 -0.202121
C23   C     C_R   0.174678 0.778625 0.304062 -0.027852
C24   C     C_R   0.823592 0.263921 0.700123 -0.028432
H1    H     H_    0.212379 0.039925 0.103739 0.133807
H2    H     H_    0.789724 0.563033 0.890781 0.138350
H3    H     H_    0.077263 0.775647 0.253663 0.109126
H4    H     H_    0.920707 0.256221 0.751098 0.110346
H5    H     H_    0.413905 0.006238 0.251864 0.119920
H6    H     H_    0.589732 0.548390 0.738106 0.119824
C25   C     C_R   0.385485 0.952144 0.834449 -0.051378
C26   C     C_R   0.613614 0.499476 0.167594 -0.066398
H7    H     H_    0.304061 0.083597 0.941413 0.164348
H8    H     H_    0.697235 0.611546 0.059454 0.159788
C27   C     C_R   0.392384 0.858032 0.693177 -0.088395
C28   C     C_R   0.604719 0.368096 0.303835 -0.075968
C29   C     C_R   0.084080 0.831424 0.736424 0.105423
C30   C     C_R   0.914503 0.325250 0.262709 0.108657
C31   C     C_R   0.117353 0.844051 0.664781 -0.179422
C32   C     C_R   0.879565 0.325432 0.333174 -0.178872
C33   C     C_R   0.181242 0.904461 0.664584 0.120395
C34   C     C_R   0.815010 0.379268 0.332572 0.117480
C35   C     C_R   0.216636 0.919814 0.740599 0.073358
C36   C     C_R   0.780925 0.405009 0.256026 0.071721
C37   C     C_R   0.180104 0.954211 0.811321 -0.033432
C38   C     C_R   0.818663 0.448490 0.186840 -0.033405
C39   C     C_R   0.285954 0.910676 0.748964 0.077656
C40   C     C_R   0.711571 0.404753 0.246826 0.076921
C41   C     C_R   0.317392 0.960884 0.824030 0.046950
C42   C     C_R   0.681418 0.479058 0.174831 0.050497
C43   C     C_R   0.280561 0.026535 0.886932 -0.208162
C44   C     C_R   0.719462 0.543202 0.112643 -0.204325
C45   C     C_R   0.213810 0.031078 0.880439 -0.077198
C46   C     C_R   0.786117 0.535010 0.118579 -0.077155
C47   C     C_R   0.325035 0.844982 0.686705 -0.253353
C48   C     C_R   0.670924 0.327563 0.305482 -0.258886
C49   C     C_R   0.423361 0.907832 0.768059 0.078100
C50   C     C_R   0.575873 0.462403 0.235102 0.088337
C51   C     C_R   0.112446 0.907304 0.809434 -0.119176
C52   C     C_R   0.886535 0.403564 0.189708 -0.118987
H9    H     H_    0.304489 0.781445 0.632642 0.145871
H10   H     H_    0.689890 0.238417 0.353679 0.139861
H11   H     H_    0.092081 0.812601 0.607351 0.142060
H12   H     H_    0.904091 0.289188 0.390655 0.138123
O11   O     O_R   0.950790 0.256670 0.090520 -0.537635
O12   O     O_R   0.049210 0.756670 0.909480 -0.537159
O13   O     O_R   0.927720 0.590370 0.921470 -0.526628
O14   O     O_R   0.072280 0.090370 0.078530 -0.525909
C53   C     C_R   0.910595 0.421336 0.894643 0.691243
C54   C     C_R   0.089293 0.921059 0.105485 0.689958
O15   O     O_R   0.943270 0.586180 0.090640 -0.536671
O16   O     O_R   0.056730 0.086180 0.909360 -0.537197
O17   O     O_R   0.064850 0.759970 0.079840 -0.538011
O18   O     O_R   0.935150 0.259970 0.920160 -0.537989
C55   C     C_R   0.927550 0.416573 0.117019 0.701350
C56   C     C_R   0.072186 0.917334 0.882717 0.701815
O19   O     O_3   0.039850 0.428050 0.996240 -0.356519
O20   O     O_3   0.960150 0.928050 0.003760 -0.356391
V3    V     V_3+5 0.992610 0.701540 0.000700 1.473135
V4    V     V_3+5 0.007390 0.201540 0.999300 1.474666
C57   C     C_3   0.017667 0.741258 0.730649 -0.358704
C58   C     C_3   0.963919 0.886199 0.732813 -0.709471
H13   H     H_    0.962989 0.953862 0.793311 0.219799
H14   H     H_    0.970548 0.995118 0.685237 0.228369
H15   H     H_    0.916852 0.815516 0.720626 0.226798
H16   H     H_    0.010894 0.662208 0.672625 0.180049
H17   H     H_    0.012506 0.633783 0.779016 0.188403
C59   C     C_3   0.982580 0.246727 0.269994 -0.359402
C60   C     C_3   0.033394 0.401500 0.270360 -0.712593
H18   H     H_    0.033884 0.473224 0.210454 0.220225
H19   H     H_    0.023965 0.506158 0.318399 0.228731
H20   H     H_    0.081646 0.338743 0.283273 0.225674
H21   H     H_    0.989972 0.165408 0.327621 0.178464
H22   H     H_    0.990862 0.143471 0.221232 0.188479
C61   C     C_3   0.203046 0.986913 0.584391 -0.364588
C62   C     C_3   0.230119 0.186383 0.593918 -0.687980
H23   H     H_    0.195141 0.278719 0.623665 0.233982
H24   H     H_    0.276275 0.186748 0.630192 0.228268
H25   H     H_    0.239088 0.245034 0.532838 0.245819
H26   H     H_    0.236568 0.895489 0.553022 0.187862
H27   H     H_    0.161285 0.998612 0.540024 0.193177
C63   C     C_3   0.790368 0.442605 0.414310 -0.361754
C64   C     C_3   0.765819 0.645729 0.411683 -0.688766
H28   H     H_    0.803387 0.741860 0.389312 0.234866
H29   H     H_    0.721686 0.659469 0.371879 0.226400
H30   H     H_    0.754040 0.689750 0.473956 0.240702
H31   H     H_    0.754291 0.347199 0.438961 0.184726
H32   H     H_    0.830059 0.439295 0.461878 0.193818
C65   C     C_1   0.185029 0.153191 0.938146 0.280907
N1    N     N_1   0.164427 0.257167 0.984224 -0.308689
C66   C     C_1   0.816325 0.656500 0.061388 0.279189
N2    N     N_1   0.837710 0.760579 0.015544 -0.306665
C67   C     C_1   0.330369 0.118331 0.138314 0.289177
N3    N     N_1   0.342069 0.215277 0.084209 -0.344093
C68   C     C_1   0.673165 0.653389 0.852211 0.290062
N4    N     N_1   0.662620 0.758146 0.903659 -0.336100
C69   C     C_1   0.153265 0.690967 0.377561 0.280827
N5    N     N_1   0.135375 0.621105 0.436136 -0.361207
C70   C     C_1   0.843962 0.165338 0.629029 0.278624
N6    N     N_1   0.860966 0.086856 0.572303 -0.360129
C71   C     C_1   0.285834 0.674561 0.420446 0.289728
N7    N     N_1   0.281313 0.582036 0.478022 -0.375409
C72   C     C_1   0.711165 0.148607 0.588944 0.299301
N8    N     N_1   0.714557 0.043198 0.535780 -0.364265
C73   C     C_3   0.496602 0.909684 0.777873 -0.355540
C74   C     C_3   0.522987 0.110708 0.779568 -0.682061
H33   H     H_    0.505876 0.188992 0.724224 0.216249
H34   H     H_    0.507563 0.187523 0.833928 0.231200
H35   H     H_    0.576343 0.106412 0.781679 0.224690
H36   H     H_    0.512604 0.834206 0.834539 0.205276
H37   H     H_    0.519118 0.832718 0.727980 0.162051
C75   C     C_3   0.506074 0.530695 0.234328 -0.368499
C76   C     C_3   0.458277 0.368396 0.232103 -0.701374
H38   H     H_    0.467515 0.273495 0.180383 0.242675
H39   H     H_    0.461658 0.287912 0.289940 0.210367
H40   H     H_    0.408664 0.425061 0.224349 0.229265
H41   H     H_    0.498188 0.621557 0.287436 0.189000
H42   H     H_    0.493604 0.623664 0.181651 0.193851
C77   C     C_1   0.417054 0.987072 0.913526 0.318993
N9    N     N_1   0.442459 0.014331 0.976408 -0.307765
C78   C     C_1   0.582623 0.562442 0.091297 0.311521
N10   N     N_1   0.557817 0.612244 0.030593 -0.310132

loop_
_geom_bond_atom_site_label_1
_geom_bond_atom_site_label_2
_ccdc_geom_bond_type
O15   C55   A    
C73   H36   S    
C43   C45   A    
O11   V4    S    
O4    V2    S    
C57   C58   S    
C35   C39   A    
C15   C17   A    
C12   H6    S    
C61   H26   S    
O1    C3    A    
O2    C4    A    
C76   H40   S    
C2    O7    A    
C63   C64   S    
O17   V3    S    
C25   C77   S    
C72   N8    T    
O5    C3    A    
C59   H21   S    
C60   H18   S    
C22   H4    S    
C26   C78   S    
C31   H11   S    
C48   H10   S    
C64   H28   S    
C6    C53   S    
C62   H23   S    
C40   C42   A    
C5    C54   S    
O6    V2    S    
C29   C31   A    
C41   C43   A    
C30   C52   A    
C61   H27   S    
C75   H42   S    
C14   C72   S    
C39   C47   A    
C38   C46   A    
C27   C49   A    
C8    C12   A    
C62   H24   S    
C64   H29   S    
C30   C32   A    
C61   C62   S    
C26   C50   A    
C47   H9    S    
C20   H2    S    
O19   V3    S    
C13   C71   S    
C23   C69   S    
C42   C44   A    
C53   O18   A    
O20   V3    S    
O5    V1    S    
C73   H37   S    
C77   N9    T    
C25   C49   A    
C5    C21   A    
C27   C47   A    
C76   H39   S    
C32   C34   A    
C76   H38   S    
C33   C35   A    
C49   C73   S    
C1    C28   S    
C34   C36   A    
C3    C8    S    
C39   C41   A    
C2    C27   S    
O13   V3    S    
C66   N2    T    
C16   C24   A    
O4    C2    A    
C24   C70   S    
C28   C50   A    
O13   C53   A    
C58   H15   S    
C15   C23   A    
C9    C17   A    
H7    C43   S    
C28   C48   A    
C36   C40   A    
H8    C44   S    
C31   C33   A    
C44   C46   A    
O14   V4    S    
C7    C11   A    
C75   H41   S    
C33   C61   S    
O20   V4    S    
O6    C4    A    
C64   H30   S    
O1    V2    S    
C21   H3    S    
C37   C51   A    
O19   V4    S    
C58   H14   S    
O2    V1    S    
C6    C22   A    
C40   C48   A    
C65   N1    T    
C74   H34   S    
O14   C54   A    
C60   H20   S    
C45   C65   S    
C35   C37   A    
C32   H12   S    
C67   N3    T    
C5    C19   A    
C10   C12   A    
C6    C20   A    
C9    C67   S    
C68   N4    T    
C52   C55   S    
O3    V1    S    
C25   C41   A    
C69   N5    T    
O12   C56   A    
C57   H17   S    
C10   C18   A    
O10   V1    S    
C14   C16   A    
O16   C56   A    
C37   C45   A    
C75   C76   S    
O3    C1    A    
C74   H35   S    
O12   V3    S    
C13   C15   A    
C54   O17   A    
O15   V3    S    
C73   C74   S    
C59   H22   S    
C11   H5    S    
C62   H25   S    
C26   C42   A    
C9    C11   A    
O7    V1    S    
C1    O8    A    
C17   C19   A    
O8    V2    S    
C18   C20   A    
C38   C52   A    
C10   C68   S    
C71   N7    T    
C63   H31   S    
C8    C14   A    
C34   C63   S    
C4    C7    S    
C16   C18   A    
C59   C60   S    
C21   C23   A    
C36   C38   A    
C22   C24   A    
C50   C75   S    
C58   H13   S    
C7    C13   A    
C30   C59   S    
C74   H33   S    
C51   C56   S    
C19   H1    S    
O11   C55   A    
C60   H19   S    
C29   C51   A    
O9    V2    S    
C46   C66   S    
O18   V4    S    
O16   V4    S    
C29   C57   S    
C78   N10   T    
C57   H16   S    
C63   H32   S    
C70   N6    T    
