data_mof_unit_31994.cif
_audit_creation_date              2012-10-26T21:12:15-0400
_audit_creation_method            fapswitch 2.2
_symmetry_space_group_name_H-M    P1
_symmetry_Int_Tables_number       1
_space_group_crystal_system       triclinic
_cell_length_a                    19.36189
_cell_length_b                    18.241314
_cell_length_c                    10.922081
_cell_angle_alpha                 90.000172
_cell_angle_beta                  90.899267
_cell_angle_gamma                 89.999765
_cell_volume                      3857.05442282

loop_
_atom_site_label
_atom_site_type_symbol
_atom_type_description
_atom_site_fract_x
_atom_site_fract_y
_atom_site_fract_z
_atom_type_partial_charge
C1    C     C_R   0.367987 0.499979 0.501718 0.530307
C2    C     C_R   0.963594 0.431119 0.500574 -0.025030
C3    C     C_R   0.484209 0.721325 0.604044 0.046634
C4    C     C_R   0.515790 0.721326 0.395958 0.046634
C5    C     C_R   0.484796 0.798355 0.606332 -0.157372
C6    C     C_R   0.515204 0.798356 0.393673 -0.157367
C7    C     C_R   0.500000 0.838091 0.500004 -0.023428
C8    C     C_R   0.561156 0.960693 0.473207 0.022660
C9    C     C_R   0.438842 0.960692 0.526807 0.022661
C10   C     C_R   0.559590 0.038116 0.470272 -0.075567
C11   C     C_R   0.440408 0.038116 0.529750 -0.075564
C12   C     C_R   0.632013 0.499979 0.498279 0.530312
C13   C     C_R   0.499999 0.077501 0.500013 -0.022662
C14   C     C_R   0.499022 0.500009 0.265202 0.539669
C15   C     C_R   0.500978 0.500010 0.734798 0.539672
C16   C     C_R   0.500000 0.920721 0.500006 -0.044363
C17   C     C_R   0.453523 0.200174 0.424572 -0.053494
C18   C     C_R   0.546473 0.200175 0.575446 -0.053502
C19   C     C_R   0.454031 0.278138 0.426483 0.136665
C20   C     C_R   0.545968 0.278139 0.573524 0.136671
C21   C     C_R   0.499998 0.160370 0.500011 -0.032797
C22   C     C_2   0.497901 0.439775 0.933024 -0.146294
C23   C     C_R   0.707091 0.499667 0.494439 0.008110
C24   C     C_2   0.502096 0.439774 0.066975 -0.146296
C25   C     C_2   0.504989 0.501078 0.866900 -0.116421
C26   C     C_2   0.495010 0.501078 0.133100 -0.116421
C27   C     C_R   0.742646 0.468956 0.394578 0.015182
C28   C     C_R   0.257353 0.468969 0.605424 0.015178
C29   C     C_R   0.815025 0.469587 0.397295 -0.072427
C30   C     C_R   0.184974 0.469600 0.602703 -0.072428
C31   C     C_R   0.851280 0.498652 0.498046 0.004370
C32   C     C_R   0.148721 0.498653 0.501942 0.004369
C33   C     C_R   0.815416 0.528307 0.596556 -0.109114
C34   C     C_R   0.292909 0.499668 0.505555 0.008110
C35   C     C_R   0.184585 0.528295 0.403424 -0.109110
C36   C     C_R   0.743691 0.529636 0.593986 -0.115898
C37   C     C_R   0.256311 0.529625 0.405996 -0.115892
C38   C     C_2   0.627962 0.922744 0.452360 0.208907
C39   C     C_2   0.372035 0.922743 0.547640 0.208910
C40   C     C_R   0.406839 0.160334 0.338375 0.022581
C41   C     C_R   0.335825 0.155327 0.361330 -0.060784
C42   C     C_R   0.292322 0.116735 0.280871 -0.095893
C43   C     C_R   0.319446 0.082821 0.177399 -0.090116
C44   C     C_R   0.390128 0.087422 0.154257 -0.106412
C45   C     C_R   0.963627 0.565800 0.499041 -0.023023
C46   C     C_R   0.433795 0.126014 0.234465 -0.096719
C47   C     C_R   0.593151 0.160339 0.661661 0.022566
C48   C     C_R   0.664168 0.155333 0.638729 -0.060794
C49   C     C_R   0.707665 0.116758 0.719219 -0.095904
C50   C     C_R   0.680534 0.082858 0.822698 -0.090120
C51   C     C_R   0.609850 0.087456 0.845815 -0.106413
C52   C     C_R   0.566187 0.126032 0.765576 -0.096724
C53   C     C_2   0.405634 0.317542 0.344259 0.302259
C54   C     C_2   0.594363 0.317546 0.655747 0.302272
C55   C     C_2   0.705250 0.438222 0.286286 0.230620
C56   C     C_R   0.036373 0.565800 0.500918 -0.023023
C57   C     C_2   0.294748 0.438248 0.713726 0.230615
C58   C     C_R   0.925160 0.636351 0.495911 0.039168
C59   C     C_R   0.926940 0.683445 0.597646 -0.089027
C60   C     C_R   0.890034 0.749315 0.594924 -0.109767
C61   C     C_R   0.851093 0.768486 0.490930 -0.097229
C62   C     C_R   0.849129 0.721882 0.389352 -0.108248
C63   C     C_R   0.886080 0.656042 0.391587 -0.092170
C64   C     C_R   0.074838 0.636352 0.504018 0.039167
C65   C     C_R   0.073057 0.683430 0.402262 -0.089027
C66   C     C_R   0.109962 0.749301 0.404956 -0.109769
C67   C     C_R   0.072546 0.498504 0.500340 -0.020909
C68   C     C_R   0.148903 0.768488 0.508941 -0.097228
C69   C     C_R   0.150869 0.721900 0.610538 -0.108244
C70   C     C_R   0.113919 0.656060 0.608333 -0.092171
C71   C     C_R   0.075085 0.360637 0.497846 0.029329
C72   C     C_R   0.073683 0.313418 0.599360 -0.083349
C73   C     C_R   0.111491 0.248120 0.598905 -0.090904
C74   C     C_R   0.151032 0.229638 0.497470 -0.090839
C75   C     C_R   0.152693 0.276337 0.396124 -0.086016
C76   C     C_R   0.114753 0.341567 0.396009 -0.081128
C77   C     C_R   0.924917 0.360636 0.502185 0.029329
C78   C     C_R   0.927454 0.498504 0.499644 -0.020909
C79   C     C_R   0.926319 0.313405 0.400686 -0.083350
C80   C     C_R   0.888511 0.248108 0.401162 -0.090905
C81   C     C_R   0.848971 0.229638 0.502603 -0.090835
C82   C     C_R   0.847309 0.276349 0.603933 -0.086015
C83   C     C_R   0.885249 0.341579 0.604028 -0.081129
C84   C     C_R   0.036406 0.431119 0.499434 -0.025030
Cu1   Cu    Cu3+1 0.500000 0.573360 0.500000 0.930751
Cu2   Cu    Cu3+1 0.500000 0.426640 0.500000 0.974539
H1    H     H_    0.489936 0.387219 0.888257 0.139433
H2    H     H_    0.156369 0.447779 0.679024 0.155464
H3    H     H_    0.843109 0.550484 0.675130 0.116534
H4    H     H_    0.156893 0.550462 0.324840 0.116538
H5    H     H_    0.716538 0.552876 0.670836 0.119943
H6    H     H_    0.283465 0.552855 0.329140 0.119942
H7    H     H_    0.470982 0.692184 0.686432 0.126870
H8    H     H_    0.529017 0.692186 0.313567 0.126868
H9    H     H_    0.633294 0.864382 0.468390 0.119525
H10   H     H_    0.366707 0.864379 0.531619 0.119525
H11   H     H_    0.314439 0.180747 0.441928 0.138181
H12   H     H_    0.510061 0.387218 0.111741 0.139433
H13   H     H_    0.237632 0.112946 0.298894 0.103758
H14   H     H_    0.285719 0.052884 0.115261 0.114435
H15   H     H_    0.411089 0.061032 0.074229 0.108684
H16   H     H_    0.488516 0.129090 0.215945 0.108648
H17   H     H_    0.685559 0.180744 0.558129 0.138182
H18   H     H_    0.762358 0.112972 0.701217 0.103753
H19   H     H_    0.714258 0.052937 0.884861 0.114443
H20   H     H_    0.588883 0.061078 0.925848 0.108685
H21   H     H_    0.511464 0.129108 0.784080 0.108650
H22   H     H_    0.423159 0.339094 0.257840 0.102845
H23   H     H_    0.472857 0.826814 0.690409 0.102161
H24   H     H_    0.576840 0.339086 0.742176 0.102827
H25   H     H_    0.649497 0.441982 0.278324 0.125469
H26   H     H_    0.350500 0.442011 0.721692 0.125459
H27   H     H_    0.956535 0.668863 0.679017 0.103335
H28   H     H_    0.891466 0.785409 0.673565 0.109639
H29   H     H_    0.822418 0.819423 0.489075 0.132295
H30   H     H_    0.818953 0.736773 0.308890 0.113705
H31   H     H_    0.884255 0.620358 0.312343 0.105606
H32   H     H_    0.043461 0.668836 0.320899 0.103336
H33   H     H_    0.108529 0.785383 0.326300 0.109635
H34   H     H_    0.527143 0.826817 0.309598 0.102165
H35   H     H_    0.177579 0.819425 0.510774 0.132289
H36   H     H_    0.181045 0.736803 0.690993 0.113710
H37   H     H_    0.115745 0.620388 0.687591 0.105606
H38   H     H_    0.043828 0.327553 0.678995 0.108483
H39   H     H_    0.110361 0.211973 0.677420 0.116653
H40   H     H_    0.180393 0.179156 0.497472 0.108874
H41   H     H_    0.183447 0.262020 0.317742 0.133796
H42   H     H_    0.116442 0.377378 0.317021 0.114779
H43   H     H_    0.956174 0.327531 0.321046 0.108483
H44   H     H_    0.889642 0.211951 0.322658 0.116654
H45   H     H_    0.605573 0.068378 0.446422 0.161131
H46   H     H_    0.819611 0.179156 0.502618 0.108873
H47   H     H_    0.816555 0.262041 0.682320 0.133791
H48   H     H_    0.883560 0.377399 0.683004 0.114777
H49   H     H_    0.394425 0.068377 0.553603 0.161130
H50   H     H_    0.515702 0.553810 0.908466 0.098726
H51   H     H_    0.484299 0.553810 0.091535 0.098728
H52   H     H_    0.843629 0.447758 0.320980 0.155465
N1    N     N_R   0.500000 0.683620 0.500000 -0.216420
N2    N     N_R   0.500000 0.316380 0.500000 -0.272407
O1    O     O_R   0.400190 0.561980 0.499980 -0.500987
O2    O     O_2   0.321398 0.956543 0.581778 -0.531559
O3    O     O_2   0.344681 0.322669 0.369894 -0.519111
O4    O     O_2   0.655315 0.322682 0.630104 -0.519100
O5    O     O_2   0.736450 0.408310 0.203788 -0.516876
O6    O     O_2   0.263548 0.408342 0.796230 -0.516875
O7    O     O_R   0.599810 0.561980 0.500020 -0.500986
O8    O     O_R   0.400190 0.438070 0.500040 -0.467326
O9    O     O_R   0.599810 0.438070 0.499960 -0.467318
O10   O     O_R   0.500000 0.561940 0.321950 -0.515085
O11   O     O_R   0.500000 0.561940 0.678050 -0.515088
O12   O     O_R   0.500010 0.438030 0.322010 -0.526941
O13   O     O_R   0.499990 0.438030 0.677990 -0.526932
O14   O     O_2   0.678594 0.956542 0.418199 -0.531557

loop_
_geom_bond_atom_site_label_1
_geom_bond_atom_site_label_2
_ccdc_geom_bond_type
C54   O4    D    
C27   C29   A    
C34   C37   A    
C41   C42   A    
C66   C68   A    
C41   H11   S    
C75   C76   A    
C26   H51   S    
C18   C47   S    
C49   H18   S    
C15   O11   A    
C81   C82   A    
C28   C57   S    
C40   C46   A    
C29   H52   S    
C46   H16   S    
C12   C23   S    
C24   H12   S    
C12   O7    A    
C35   C37   A    
C9    C16   A    
C24   C26   D    
C33   H3    S    
C71   C76   A    
C63   H31   S    
C27   C55   S    
C15   C25   S    
C57   H26   S    
C77   C83   A    
C18   C21   A    
C9    C39   S    
C33   C36   A    
C54   H24   S    
C73   C74   A    
C25   H50   S    
C10   H45   S    
C83   H48   S    
Cu1   O10   S    
C60   H28   S    
C70   H37   S    
C52   H21   S    
C68   C69   A    
C22   C25   D    
C38   H9    S    
C61   H29   S    
C50   H19   S    
C65   H32   S    
C31   C33   A    
C45   C78   A    
C23   C27   A    
Cu1   N1    S    
C75   H41   S    
Cu2   N2    S    
C72   C73   A    
C19   C53   S    
C28   C34   A    
C59   C60   A    
C8    C16   A    
C57   O6    D    
C72   H38   S    
C61   C62   A    
C8    C38   S    
C6    H34   S    
C44   C46   A    
C1    C34   S    
C50   C51   A    
C77   C79   A    
C45   C58   S    
C80   H44   S    
C74   C75   A    
C51   C52   A    
C32   C35   A    
C1    O1    A    
C43   H14   S    
C45   C56   A    
C4    C6    A    
Cu2   O9    S    
Cu1   O1    S    
C5    C7    A    
C19   N2    A    
C81   H46   S    
C58   C59   A    
Cu1   Cu2   S    
C48   H17   S    
C82   C83   A    
C17   C21   A    
C60   C61   A    
C53   O3    D    
C17   C40   S    
C43   C44   A    
Cu1   O11   S    
C62   H30   S    
C62   C63   A    
C2    C78   A    
Cu2   O12   S    
C47   C48   A    
C73   H39   S    
C39   O2    D    
C59   H27   S    
C14   O10   A    
C56   C64   S    
C2    C84   A    
C13   C21   S    
C3    H7    S    
C22   H1    S    
C14   C26   S    
C9    C11   A    
C6    C7    A    
C32   C67   S    
C4    H8    S    
C36   H5    S    
C20   C54   S    
C40   C41   A    
C23   C36   A    
C64   C70   A    
C66   H33   S    
C76   H42   S    
C22   C24   S    
C3    N1    A    
C42   C43   A    
C38   O14   D    
C30   H2    S    
C31   C78   S    
C71   C84   S    
C58   C63   A    
C7    C16   S    
C37   H6    S    
C55   H25   S    
C12   O9    A    
Cu2   O13   S    
C11   H49   S    
Cu1   O7    S    
C80   C81   A    
C3    C5    A    
C10   C13   A    
Cu2   O8    S    
C68   H35   S    
C44   H15   S    
C47   C52   A    
C56   C67   A    
C64   C65   A    
C20   N2    A    
C82   H47   S    
C28   C30   A    
C71   C72   A    
C29   C31   A    
C2    C77   S    
C42   H13   S    
C4    N1    A    
C30   C32   A    
C11   C13   A    
C53   H22   S    
C74   H40   S    
C5    H23   S    
C69   H36   S    
C51   H20   S    
C48   C49   A    
C17   C19   A    
C18   C20   A    
C65   C66   A    
C69   C70   A    
C39   H10   S    
C15   O13   A    
C55   O5    D    
C79   C80   A    
C35   H4    S    
C67   C84   A    
C8    C10   A    
C49   C50   A    
C14   O12   A    
C1    O8    A    
C79   H43   S    
