data_mof_unit_21540.cif
_audit_creation_date              2013-03-05T15:56:46-0500
_audit_creation_method            fapswitch 2.2
_symmetry_space_group_name_H-M    P1
_symmetry_Int_Tables_number       1
_space_group_crystal_system       triclinic
_cell_length_a                    20.935026
_cell_length_b                    21.706272
_cell_length_c                    13.860048
_cell_angle_alpha                 89.831148
_cell_angle_beta                  90.717791
_cell_angle_gamma                 89.945396
_cell_volume                      6297.77730702

loop_
_atom_site_label
_atom_site_type_symbol
_atom_site_description
_atom_site_fract_x
_atom_site_fract_y
_atom_site_fract_z
_atom_type_partial_charge
O1    O     O_R   0.064880 0.435140 0.582280 -0.601147
O2    O     O_R   0.935120 0.564860 0.417720 -0.604834
O3    O     O_R   0.935120 0.564860 0.582280 -0.553082
O4    O     O_R   0.064880 0.435140 0.417720 -0.568413
O5    O     O_R   0.935120 0.435140 0.417720 -0.605653
O6    O     O_R   0.064880 0.564860 0.582280 -0.604667
O7    O     O_R   0.064880 0.564860 0.417720 -0.552304
O8    O     O_R   0.935120 0.435140 0.582280 -0.567119
O9    O     O_R   0.564880 0.935140 0.582280 -0.604834
O10   O     O_R   0.435120 0.064860 0.417720 -0.601147
O11   O     O_R   0.435120 0.064860 0.582280 -0.568413
O12   O     O_R   0.564880 0.935140 0.417720 -0.553081
O13   O     O_R   0.435120 0.935140 0.417720 -0.604667
O14   O     O_R   0.564880 0.064860 0.582280 -0.605653
O15   O     O_R   0.564880 0.064860 0.417720 -0.567119
O16   O     O_R   0.435120 0.935140 0.582280 -0.552304
C1    C     C_R   0.085916 0.414746 0.500289 0.806380
C2    C     C_R   0.914384 0.585599 0.499657 0.813499
C3    C     C_R   0.914443 0.414343 0.499830 0.810059
C4    C     C_R   0.085832 0.585397 0.500258 0.809856
C5    C     C_R   0.585616 0.914401 0.500343 0.813498
C6    C     C_R   0.414084 0.085254 0.499711 0.806380
C7    C     C_R   0.414168 0.914603 0.499742 0.809857
C8    C     C_R   0.585557 0.085657 0.500170 0.810059
Cu1   Cu    Cu3+1 0.000000 0.500000 0.597420 0.947308
Cu2   Cu    Cu3+1 0.000000 0.500000 0.402580 0.943521
Cu3   Cu    Cu3+1 0.500000 0.000000 0.597420 0.943521
Cu4   Cu    Cu3+1 0.500000 0.000000 0.402580 0.947308
C9    C     C_R   0.148809 0.664462 0.414877 -0.224537
C10   C     C_R   0.854243 0.331568 0.416414 -0.234298
C11   C     C_R   0.839386 0.654964 0.412416 -0.234159
C12   C     C_R   0.135194 0.323499 0.425611 -0.230331
C13   C     C_R   0.645757 0.168432 0.583586 -0.234299
C14   C     C_R   0.351191 0.835538 0.585123 -0.224536
C15   C     C_R   0.364806 0.176501 0.574389 -0.230331
C16   C     C_R   0.660614 0.845036 0.587584 -0.234159
C17   C     C_R   0.134470 0.633644 0.500632 -0.075635
C18   C     C_R   0.866135 0.365778 0.499929 -0.075858
C19   C     C_R   0.866071 0.634157 0.499507 -0.077452
C20   C     C_R   0.134516 0.366564 0.500300 -0.069943
C21   C     C_R   0.633865 0.134221 0.500071 -0.075859
C22   C     C_R   0.365530 0.866356 0.499368 -0.075635
C23   C     C_R   0.365484 0.133436 0.499700 -0.069943
C24   C     C_R   0.633929 0.865843 0.500493 -0.077452
C25   C     C_R   0.166532 0.648940 0.586540 -0.245196
C26   C     C_R   0.832071 0.353424 0.584131 -0.234404
C27   C     C_R   0.846609 0.659722 0.587094 -0.234779
C28   C     C_R   0.180610 0.364067 0.574005 -0.249403
C29   C     C_R   0.667929 0.146576 0.415869 -0.234404
C30   C     C_R   0.333468 0.851060 0.413459 -0.245196
C31   C     C_R   0.319390 0.135933 0.425994 -0.249402
C32   C     C_R   0.653391 0.840278 0.412906 -0.234779
C33   C     C_R   0.213121 0.695331 0.587982 0.105503
C34   C     C_R   0.785168 0.307450 0.585797 0.101980
C35   C     C_R   0.800011 0.705932 0.589134 0.097663
C36   C     C_R   0.227120 0.317551 0.575834 0.110111
C37   C     C_R   0.714832 0.192550 0.414203 0.101980
C38   C     C_R   0.286879 0.804670 0.412018 0.105503
C39   C     C_R   0.272880 0.182449 0.424166 0.110111
C40   C     C_R   0.699988 0.794067 0.410866 0.097663
C41   C     C_R   0.226948 0.726551 0.500626 0.015645
C42   C     C_R   0.773265 0.273246 0.500493 0.013972
C43   C     C_R   0.773304 0.726785 0.500388 0.016403
C44   C     C_R   0.227037 0.273586 0.500335 0.013387
C45   C     C_R   0.726735 0.226753 0.499507 0.013972
C46   C     C_R   0.273052 0.773449 0.499374 0.015645
C47   C     C_R   0.272963 0.226414 0.499665 0.013387
C48   C     C_R   0.726695 0.773215 0.499612 0.016403
C49   C     C_R   0.194638 0.710830 0.414283 0.069245
C50   C     C_R   0.808025 0.285494 0.416012 0.076878
C51   C     C_R   0.793247 0.701161 0.412212 0.075885
C52   C     C_R   0.181018 0.276899 0.425195 0.074164
C53   C     C_R   0.691975 0.214506 0.583988 0.076878
C54   C     C_R   0.305362 0.789170 0.585717 0.069245
C55   C     C_R   0.318981 0.223101 0.574805 0.074164
C56   C     C_R   0.706753 0.798839 0.587789 0.075885
C57   C     C_R   0.246182 0.711373 0.674129 0.178873
C58   C     C_R   0.749840 0.294844 0.670152 0.178947
C59   C     C_R   0.779456 0.731787 0.677294 0.174815
C60   C     C_R   0.273586 0.313805 0.650872 0.174020
C61   C     C_R   0.750159 0.205156 0.329848 0.178947
C62   C     C_R   0.253817 0.788627 0.325871 0.178873
C63   C     C_R   0.226414 0.186195 0.349129 0.174020
C64   C     C_R   0.720544 0.768213 0.322706 0.174814
C65   C     C_R   0.796408 0.251620 0.331990 -0.207785
C66   C     C_R   0.208132 0.741674 0.328220 -0.209765
C67   C     C_R   0.181022 0.233574 0.350695 -0.210038
C68   C     C_R   0.766997 0.721867 0.324700 -0.206622
C69   C     C_R   0.291867 0.758326 0.671780 -0.209765
C70   C     C_R   0.703591 0.248380 0.668010 -0.207785
C71   C     C_R   0.733003 0.778132 0.675301 -0.206623
C72   C     C_R   0.318977 0.266426 0.649306 -0.210037
H1    H     H_    0.123840 0.652785 0.348393 0.155357
H2    H     H_    0.881522 0.340201 0.351863 0.141950
H3    H     H_    0.854420 0.635185 0.344579 0.150568
H4    H     H_    0.099438 0.325863 0.368376 0.146367
H5    H     H_    0.618478 0.159799 0.648137 0.141949
H6    H     H_    0.376160 0.847214 0.651607 0.155357
H7    H     H_    0.400562 0.174137 0.631624 0.146367
H8    H     H_    0.645580 0.864815 0.655421 0.150568
H9    H     H_    0.155003 0.624165 0.651871 0.164494
H10   H     H_    0.842228 0.380185 0.648036 0.160227
H11   H     H_    0.868318 0.643474 0.653582 0.173339
H12   H     H_    0.180722 0.399476 0.628320 0.153734
H13   H     H_    0.657771 0.119815 0.351963 0.160227
H14   H     H_    0.344997 0.875835 0.348129 0.164494
H15   H     H_    0.319278 0.100524 0.371680 0.153734
H16   H     H_    0.631682 0.856526 0.346418 0.173339
H17   H     H_    0.823598 0.261543 0.267688 0.143445
H18   H     H_    0.182696 0.729124 0.262522 0.143023
H19   H     H_    0.145348 0.236750 0.293470 0.144064
H20   H     H_    0.782927 0.701767 0.257570 0.142782
H21   H     H_    0.317304 0.770876 0.737478 0.143023
H22   H     H_    0.676402 0.238457 0.732312 0.143445
H23   H     H_    0.717072 0.798232 0.742430 0.142782
H24   H     H_    0.354651 0.263249 0.706530 0.144064
C73   C     C_R   0.056336 0.497663 0.796168 0.262373
C74   C     C_R   0.943523 0.498966 0.204051 0.257958
C75   C     C_R   0.943074 0.503366 0.791233 0.298544
C76   C     C_R   0.057001 0.501931 0.209005 0.294906
C77   C     C_R   0.556477 0.001034 0.795949 0.257959
C78   C     C_R   0.443664 0.002337 0.203832 0.262373
C79   C     C_R   0.442999 0.998069 0.790995 0.294906
C80   C     C_R   0.556926 0.996634 0.208767 0.298544
N1    N     N_R   0.000000 0.500000 0.743810 -0.195958
N2    N     N_R   0.000000 0.500000 0.256190 -0.197650
N3    N     N_R   0.500000 1.000000 0.743810 -0.197650
N4    N     N_R   0.500000 1.000000 0.256190 -0.195958
C81   C     C_R   0.940963 0.501564 0.895300 -0.078915
C82   C     C_R   0.059101 0.499948 0.105001 -0.079967
C83   C     C_R   0.057542 0.504896 0.898127 -0.019828
C84   C     C_R   0.942569 0.506425 0.102104 -0.021369
C85   C     C_R   0.440898 0.000052 0.894999 -0.079967
C86   C     C_R   0.559037 0.998436 0.104700 -0.078915
C87   C     C_R   0.557430 0.993575 0.897896 -0.021369
C88   C     C_R   0.442458 0.995104 0.101873 -0.019829
C89   C     C_R   0.999592 0.503934 0.948395 -0.060823
C90   C     C_R   0.000524 0.503886 0.051867 -0.059902
C91   C     C_R   0.499476 0.996114 0.948133 -0.059902
C92   C     C_R   0.500408 0.996066 0.051605 -0.060823
C93   C     C_R   0.883101 0.499609 0.948653 0.171307
C94   C     C_R   0.116878 0.496250 0.051732 0.167220
C95   C     C_R   0.115881 0.508437 0.951500 0.204796
C96   C     C_R   0.884424 0.511918 0.048692 0.202138
C97   C     C_R   0.383122 0.003750 0.948268 0.167219
C98   C     C_R   0.616898 0.000392 0.051347 0.171307
C99   C     C_R   0.615575 0.988082 0.951308 0.202137
C100  C     C_R   0.384118 0.991563 0.048500 0.204795
C101  C     C_3   0.234121 0.679101 0.768731 -0.900138
H25   H     H_    0.183355 0.684842 0.789180 0.234145
H26   H     H_    0.245526 0.629370 0.761775 0.234318
H27   H     H_    0.264209 0.697937 0.828249 0.235572
C102  C     C_3   0.760263 0.330130 0.762659 -0.902626
H28   H     H_    0.810324 0.324072 0.788377 0.232841
H29   H     H_    0.750298 0.379788 0.750170 0.232803
H30   H     H_    0.728311 0.313952 0.820865 0.237314
C103  C     C_3   0.805873 0.710789 0.773833 -0.891307
H31   H     H_    0.796117 0.660931 0.784174 0.226893
H32   H     H_    0.858185 0.719088 0.777328 0.234937
H33   H     H_    0.783848 0.735971 0.834673 0.233643
C104  C     C_3   0.275578 0.359230 0.733154 -0.887325
H34   H     H_    0.283504 0.406463 0.704778 0.233860
H35   H     H_    0.229847 0.357768 0.772842 0.235052
H36   H     H_    0.314764 0.348745 0.785448 0.233041
C105  C     C_3   0.739737 0.169870 0.237341 -0.902625
H37   H     H_    0.689675 0.175928 0.211623 0.232842
H38   H     H_    0.771689 0.186048 0.179134 0.237314
H39   H     H_    0.749702 0.120212 0.249830 0.232803
C106  C     C_3   0.265878 0.820899 0.231269 -0.900138
H40   H     H_    0.316644 0.815159 0.210820 0.234145
H41   H     H_    0.235789 0.802064 0.171751 0.235572
H42   H     H_    0.254474 0.870630 0.238226 0.234318
C107  C     C_3   0.224421 0.140769 0.266847 -0.887326
H43   H     H_    0.216495 0.093536 0.295223 0.233860
H44   H     H_    0.185235 0.151254 0.214553 0.233042
H45   H     H_    0.270152 0.142231 0.227158 0.235052
C108  C     C_3   0.694126 0.789210 0.226168 -0.891306
H46   H     H_    0.703883 0.839068 0.215827 0.226893
H47   H     H_    0.716152 0.764029 0.165327 0.233643
H48   H     H_    0.641814 0.780911 0.222671 0.234937
N5    N     N_3   0.113794 0.477793 0.751509 -0.613412
H49   H     H_    0.123847 0.503628 0.690347 0.256860
H50   H     H_    0.109913 0.430717 0.738005 0.235875
N6    N     N_3   0.885249 0.481287 0.249200 -0.603038
H51   H     H_    0.875527 0.507893 0.309344 0.262208
H52   H     H_    0.886573 0.434268 0.264486 0.233212
N7    N     N_3   0.887063 0.513939 0.733556 -0.528587
H53   H     H_    0.858805 0.474625 0.729094 0.209062
H54   H     H_    0.862329 0.552259 0.759064 0.196677
N8    N     N_3   0.113125 0.511047 0.267008 -0.525698
H55   H     H_    0.140267 0.470906 0.272401 0.220872
H56   H     H_    0.138901 0.548867 0.241792 0.199365
N9    N     N_3   0.614751 0.018713 0.750800 -0.603038
H57   H     H_    0.624473 0.992107 0.690656 0.262208
H58   H     H_    0.613427 0.065732 0.735514 0.233212
N10   N     N_3   0.386206 0.022207 0.248491 -0.613412
H59   H     H_    0.376153 0.996372 0.309653 0.256861
H60   H     H_    0.390087 0.069283 0.261995 0.235874
N11   N     N_3   0.386875 0.988952 0.732992 -0.525698
H61   H     H_    0.359733 0.029094 0.727599 0.220872
H62   H     H_    0.361099 0.951133 0.758208 0.199365
N12   N     N_3   0.612937 0.986061 0.266444 -0.528587
H63   H     H_    0.641194 0.025374 0.270906 0.209062
H64   H     H_    0.637671 0.947741 0.240936 0.196677
C109  C     C_3   0.821071 0.475124 0.906094 -0.907746
H65   H     H_    0.830614 0.432976 0.863754 0.229099
H66   H     H_    0.787728 0.459408 0.962656 0.248637
H67   H     H_    0.795539 0.510755 0.863151 0.228552
C110  C     C_3   0.178327 0.470535 0.094954 -0.896257
H68   H     H_    0.168031 0.428681 0.138081 0.227876
H69   H     H_    0.211433 0.454002 0.038746 0.246087
H70   H     H_    0.204481 0.505796 0.137365 0.228940
C111  C     C_3   0.176751 0.531455 0.905219 -0.849774
H71   H     H_    0.207196 0.556346 0.958480 0.233316
H72   H     H_    0.204572 0.492427 0.875568 0.247665
H73   H     H_    0.165539 0.565416 0.847428 0.235254
C112  C     C_3   0.824283 0.536995 0.094566 -0.840668
H74   H     H_    0.794542 0.562385 0.040680 0.229632
H75   H     H_    0.795321 0.498944 0.124944 0.248119
H76   H     H_    0.836335 0.570996 0.151694 0.229977
C113  C     C_3   0.321674 0.029466 0.905046 -0.896256
H77   H     H_    0.288567 0.045999 0.961254 0.246087
H78   H     H_    0.331970 0.071320 0.861919 0.227876
H79   H     H_    0.295519 0.994204 0.862635 0.228941
C114  C     C_3   0.678929 0.024877 0.093906 -0.907747
H80   H     H_    0.712271 0.040593 0.037344 0.248637
H81   H     H_    0.669385 0.067025 0.136246 0.229099
H82   H     H_    0.704461 0.989247 0.136849 0.228552
C115  C     C_3   0.675717 0.963005 0.905434 -0.840668
H83   H     H_    0.705458 0.937616 0.959320 0.229633
H84   H     H_    0.663665 0.929005 0.848306 0.229977
H85   H     H_    0.704679 0.001057 0.875056 0.248119
C116  C     C_3   0.323248 0.968545 0.094781 -0.849773
H86   H     H_    0.292804 0.943655 0.041520 0.233316
H87   H     H_    0.334460 0.934584 0.152571 0.235254
H88   H     H_    0.295428 0.007573 0.124433 0.247665

loop_
_geom_bond_atom_site_label_1
_geom_bond_atom_site_label_2
_geom_bond_distance
_ccdc_geom_bond_type
C84   C96   1.421482 A    
C63   C67   1.399972 A    
C103  H31   1.110734 S    
C8    C21   1.461521 S    
O2    C2    1.302225 A    
C40   C64   1.417729 A    
C106  H40   1.110351 S    
C14   C22   1.398193 A    
C88   C92   1.406700 A    
C23   C31   1.397352 A    
C80   C86   1.444021 A    
C52   C67   1.398690 A    
C104  H34   1.110368 S    
C47   C55   1.411450 A    
C45   C53   1.411080 A    
C12   C52   1.393500 A    
C109  H65   1.107731 S    
O10   C6    1.302476 A    
C112  H76   1.110894 S    
C87   C91   1.407537 A    
C26   H10   1.079682 S    
C10   C18   1.396950 A    
C105  H37   1.110331 S    
C7    C22   1.461339 S    
N12   H64   1.044249 S    
C79   C85   1.443484 A    
C76   C82   1.443485 A    
C54   C69   1.398216 A    
C79   N11   1.429577 S    
C66   H18   1.084679 S    
C39   C63   1.417229 A    
C53   C70   1.397937 A    
C77   N3    1.378182 A    
C113  H79   1.107502 S    
C65   H17   1.084665 S    
C101  H26   1.110073 S    
C86   C92   1.424242 A    
C97   C113  1.517474 S    
C73   N5    1.426646 S    
C107  H45   1.110565 S    
O6    Cu1   1.969784 S    
C67   H19   1.084582 S    
C84   C90   1.407537 A    
C46   C54   1.410188 A    
N5    H49   1.038871 S    
C110  H70   1.107502 S    
C29   C37   1.401006 A    
N6    H51   1.037641 S    
O13   C7    1.301298 A    
O3    C2    1.298697 A    
C20   C28   1.397352 A    
C100  C116  1.518152 S    
Cu2   N2    2.028972 S    
O14   C8    1.302310 A    
C43   C51   1.411952 A    
C94   C110  1.517474 S    
C27   C35   1.399116 A    
Cu1   N1    2.028972 S    
C32   C40   1.399116 A    
C39   C47   1.418303 A    
Cu3   N3    2.028972 S    
C41   C46   1.403711 A    
C38   C46   1.418911 A    
N6    H52   1.042019 S    
N9    H58   1.042021 S    
C35   C43   1.417539 A    
C36   C44   1.418303 A    
O13   Cu4   1.969787 S    
O14   Cu3   1.969784 S    
C102  H29   1.110360 S    
C15   C23   1.397021 A    
C116  H86   1.110975 S    
C59   C71   1.398502 A    
C95   C111  1.518151 S    
C115  H85   1.110139 S    
O16   C7    1.300238 A    
C24   C32   1.401283 A    
O16   Cu3   1.967044 S    
C70   H22   1.084665 S    
C40   C48   1.417540 A    
C62   C106  1.508940 S    
C25   C33   1.402556 A    
N11   H61   1.041763 S    
C105  H38   1.110811 S    
O1    Cu1   1.968819 S    
O8    Cu1   1.967044 S    
C106  H41   1.110812 S    
C42   C50   1.411080 A    
C64   C108  1.510392 S    
C33   C41   1.418909 A    
C15   H7    1.084940 S    
C77   N9    1.430312 S    
C10   C50   1.392192 A    
C115  H83   1.111057 S    
C110  H68   1.108833 S    
C31   C39   1.401970 A    
C9    C49   1.391240 A    
N5    H50   1.042452 S    
C114  H81   1.107731 S    
C69   H21   1.084679 S    
O8    C3    1.299272 A    
C27   H11   1.080488 S    
N12   H63   1.040354 S    
C30   C38   1.402558 A    
C44   C47   1.404030 A    
O3    Cu1   1.964302 S    
C74   C84   1.421651 A    
O2    Cu2   1.968819 S    
C101  H27   1.110812 S    
C57   C101  1.508939 S    
C10   H2    1.083383 S    
C104  H35   1.110566 S    
C34   C42   1.417497 A    
C108  H47   1.111057 S    
Cu1   Cu2   2.700490 S    
C107  H43   1.110369 S    
O12   C5    1.298697 A    
C58   C70   1.398876 A    
C51   C68   1.398145 A    
C80   N12   1.428844 S    
C1    C20   1.458425 S    
C60   C72   1.399972 A    
C33   C57   1.417096 A    
C2    C19   1.460091 S    
N8    H55   1.041763 S    
C113  H77   1.109398 S    
C83   C89   1.406701 A    
C3    C18   1.461522 S    
C76   N8    1.429577 S    
C5    C24   1.460088 S    
C35   C59   1.417730 A    
C79   N3    1.368567 A    
C6    C23   1.458425 S    
C11   C19   1.397329 A    
O11   Cu3   1.964302 S    
C108  H48   1.110523 S    
C15   C55   1.393500 A    
C26   C34   1.401009 A    
C114  H80   1.109414 S    
C81   C89   1.424243 A    
C16   H8    1.084877 S    
C75   N7    1.428845 S    
C77   C87   1.421650 A    
C102  H30   1.110810 S    
C116  H87   1.109757 S    
C78   C88   1.422229 A    
C88   C100  1.422209 A    
C107  H44   1.110807 S    
C25   H9    1.081766 S    
C55   C72   1.398692 A    
C22   C30   1.400455 A    
O4    C1    1.297528 A    
C75   N1    1.370179 A    
C13   C53   1.392194 A    
O15   C8    1.299272 A    
C12   H4    1.084939 S    
C14   C54   1.391240 A    
N9    H57   1.037640 S    
C105  H39   1.110361 S    
C87   C99   1.421482 A    
C12   C20   1.397020 A    
C63   C107  1.509992 S    
C106  H42   1.110073 S    
C37   C61   1.417376 A    
C93   C96   1.412770 A    
C103  H32   1.110522 S    
C85   C97   1.427263 A    
C17   C25   1.400454 A    
C114  H82   1.107534 S    
C82   C90   1.424894 A    
N11   H62   1.044569 S    
C104  H36   1.110809 S    
C83   C95   1.422207 A    
C97   C100  1.413310 A    
O9    Cu3   1.968819 S    
C19   C27   1.401282 A    
C98   C99   1.412770 A    
C109  H67   1.107534 S    
O10   Cu4   1.968819 S    
C28   C36   1.401968 A    
C111  H73   1.109756 S    
C43   C48   1.402058 A    
C110  H69   1.109397 S    
N8    H56   1.044570 S    
C42   C45   1.403252 A    
C57   C69   1.398905 A    
C29   H13   1.079683 S    
C64   C68   1.398503 A    
C78   N10   1.426646 S    
N10   H59   1.038871 S    
C36   C60   1.417230 A    
C59   C103  1.510395 S    
O4    Cu2   1.964302 S    
C91   C92   1.434010 A    
C58   C102  1.509064 S    
C85   C91   1.424894 A    
O5    C3    1.302310 A    
C98   C114  1.516822 S    
C74   N6    1.430312 S    
C103  H33   1.111056 S    
C48   C56   1.411950 A    
C21   C29   1.400668 A    
O6    C4    1.301298 A    
C89   C90   1.434008 A    
O11   C6    1.297528 A    
O1    C1    1.302476 A    
C72   H24   1.084583 S    
C80   N4    1.370177 A    
C113  H78   1.108834 S    
C86   C98   1.427686 A    
C41   C49   1.410190 A    
C14   H6    1.084517 S    
C38   C62   1.417095 A    
C112  H74   1.111058 S    
C111  H72   1.110358 S    
C13   C21   1.396950 A    
N7    H53   1.040353 S    
C115  H84   1.110894 S    
C62   C66   1.398906 A    
C101  H25   1.110351 S    
C9    H1    1.084516 S    
C4    C17   1.461340 S    
C99   C115  1.518745 S    
O9    C5    1.302225 A    
O15   Cu4   1.967041 S    
C73   C83   1.422228 A    
O7    Cu2   1.967041 S    
C111  H71   1.110975 S    
C11   C51   1.391625 A    
C75   C81   1.444021 A    
C71   H23   1.084962 S    
C50   C65   1.397937 A    
C76   N2    1.368565 A    
C44   C52   1.411452 A    
C78   N4    1.377813 A    
C112  H75   1.110139 S    
C82   C94   1.427263 A    
C116  H88   1.110360 S    
C93   C109  1.516822 S    
C60   C104  1.509990 S    
C18   C26   1.400670 A    
N10   H60   1.042452 S    
C16   C24   1.397329 A    
C11   H3    1.084877 S    
C108  H46   1.110733 S    
C56   C71   1.398146 A    
C96   C112  1.518745 S    
O5    Cu2   1.969787 S    
C68   H20   1.084963 S    
C16   C56   1.391627 A    
C81   C93   1.427687 A    
O12   Cu4   1.964302 S    
C31   H15   1.077422 S    
O7    C4    1.300238 A    
C9    C17   1.398191 A    
Cu3   Cu4   2.700490 S    
C30   H14   1.081766 S    
C61   C105  1.509063 S    
C94   C95   1.413311 A    
C32   H16   1.080489 S    
C74   N2    1.378184 A    
C13   H5    1.083382 S    
C34   C58   1.417375 A    
C102  H28   1.110332 S    
C109  H66   1.109414 S    
C73   N1    1.377812 A    
N7    H54   1.044250 S    
C61   C65   1.398875 A    
C49   C66   1.398216 A    
Cu4   N4    2.028972 S    
C37   C45   1.417496 A    
C28   H12   1.077421 S    
