data_mof_unit_16099.cif
_audit_creation_date              2012-10-26T21:01:31-0400
_audit_creation_method            fapswitch 2.2
_symmetry_space_group_name_H-M    P1
_symmetry_Int_Tables_number       1
_space_group_crystal_system       triclinic
_cell_length_a                    15.855269
_cell_length_b                    13.021983
_cell_length_c                    11.679241
_cell_angle_alpha                 101.188851
_cell_angle_beta                  93.579689
_cell_angle_gamma                 90.739153
_cell_volume                      2360.15901662

loop_
_atom_site_label
_atom_site_type_symbol
_atom_type_description
_atom_site_fract_x
_atom_site_fract_y
_atom_site_fract_z
_atom_type_partial_charge
C1    C     C_R   0.499716 0.298547 0.477004 0.555366
C2    C     C_R   0.484836 0.967309 0.447123 -0.049500
C3    C     C_R   0.416778 0.406234 0.019785 -0.176279
C4    C     C_R   0.583127 0.593895 0.980174 -0.172404
C5    C     C_R   0.423926 0.414564 0.143883 0.423951
C6    C     C_R   0.576677 0.584551 0.856084 0.440400
C7    C     C_R   0.536288 0.540251 0.157664 -0.001735
C8    C     C_R   0.463356 0.460211 0.842367 -0.002880
C9    C     C_R   0.530113 0.533997 0.034748 -0.052832
C10   C     C_R   0.469622 0.466340 0.965249 -0.047967
C11   C     C_R   0.339707 0.500289 0.500536 0.542443
C12   C     C_R   0.500392 0.701454 0.522988 0.557297
C13   C     C_R   0.660302 0.500152 0.499580 0.542757
C14   C     C_3   0.970617 0.402056 0.489403 -0.101984
C15   C     C_3   0.029459 0.599894 0.512139 -0.099686
C16   C     C_3   0.023555 0.443379 0.400072 -0.102244
C17   C     C_3   0.976512 0.558559 0.601478 -0.101883
C18   C     C_1   0.250020 0.501136 0.501892 -0.047121
C19   C     C_1   0.750019 0.500238 0.498696 -0.047033
C20   C     C_3   0.031309 0.459993 0.591161 -0.100911
C21   C     C_3   0.968777 0.541945 0.410374 -0.098799
C22   C     C_3   0.082702 0.501326 0.501816 0.054136
C23   C     C_R   0.461273 0.010533 0.348800 0.254565
C24   C     C_3   0.917376 0.500630 0.499714 0.054189
C25   C     C_1   0.174437 0.501458 0.502313 -0.077194
C26   C     C_1   0.825626 0.500377 0.498831 -0.075954
C27   C     C_R   0.501438 0.815934 0.538343 -0.054422
C28   C     C_R   0.498905 0.184069 0.461616 -0.056679
C29   C     C_3   0.475556 0.873564 0.823635 0.015129
C30   C     C_3   0.488646 0.826566 0.932602 -0.356521
C31   C     C_3   0.528695 0.128024 0.178908 0.016896
C32   C     C_3   0.515499 0.171375 0.067497 -0.355087
C33   C     C_3   0.337736 0.947248 0.251090 -0.003158
C34   C     C_R   0.539688 0.989393 0.650823 0.254111
C35   C     C_3   0.297620 0.883003 0.137611 -0.384873
C36   C     C_3   0.664734 0.050091 0.745783 -0.003756
C37   C     C_3   0.706619 0.116641 0.856693 -0.386893
C38   C     C_3   0.708339 0.670677 0.847975 -0.007556
C39   C     C_3   0.762287 0.573846 0.847444 -0.408446
C40   C     C_3   0.298264 0.315916 0.142565 -0.003860
C41   C     C_3   0.242902 0.275202 0.226600 -0.356344
C42   C     C_R   0.475545 0.117954 0.352922 0.256182
C43   C     C_R   0.525340 0.881975 0.646899 0.258652
C44   C     C_R   0.520303 0.140454 0.559550 -0.193712
C45   C     C_R   0.480015 0.859535 0.440398 -0.194246
C46   C     C_R   0.515578 0.032657 0.552737 -0.048876
Cu1   Cu    Cu3+1 0.506200 0.507730 0.615930 1.001540
Cu2   Cu    Cu3+1 0.493800 0.492270 0.384070 1.005018
H1    H     H_    0.044356 0.396090 0.317484 0.094358
H2    H     H_    0.540734 0.191046 0.641954 0.186626
H3    H     H_    0.412077 0.847351 0.780649 0.106498
H4    H     H_    0.476448 0.960097 0.852780 0.161725
H5    H     H_    0.556113 0.834348 0.965635 0.167986
H6    H     H_    0.449984 0.868054 0.002162 0.124267
H7    H     H_    0.468274 0.742942 0.912392 0.155776
H8    H     H_    0.531265 0.041383 0.152540 0.158884
H9    H     H_    0.590688 0.158657 0.223596 0.108002
H10   H     H_    0.531289 0.256328 0.086028 0.158045
H11   H     H_    0.557731 0.132057 0.001324 0.121254
H12   H     H_    0.955694 0.605749 0.684109 0.094623
H13   H     H_    0.449089 0.157355 0.030943 0.162140
H14   H     H_    0.313067 0.028026 0.261391 0.142893
H15   H     H_    0.318207 0.911172 0.324687 0.120156
H16   H     H_    0.323075 0.802759 0.122177 0.156725
H17   H     H_    0.228068 0.877555 0.142866 0.089122
H18   H     H_    0.311052 0.921115 0.063275 0.143952
H19   H     H_    0.684125 0.082997 0.669870 0.119808
H20   H     H_    0.688160 0.968839 0.738145 0.153003
H21   H     H_    0.694026 0.081192 0.933254 0.143314
H22   H     H_    0.776022 0.120802 0.849397 0.088623
H23   H     H_    0.371791 0.352323 0.964809 0.065841
H24   H     H_    0.681845 0.197212 0.870020 0.156776
H25   H     H_    0.416610 0.408074 0.788233 0.126161
H26   H     H_    0.582853 0.592648 0.211825 0.125823
H27   H     H_    0.709401 0.721760 0.935860 0.099182
H28   H     H_    0.738873 0.718904 0.792741 0.153918
H29   H     H_    0.760643 0.525246 0.758096 0.173853
H30   H     H_    0.828815 0.598848 0.875561 0.091049
H31   H     H_    0.739493 0.525802 0.908514 0.130140
H32   H     H_    0.308434 0.249549 0.069476 0.119384
H33   H     H_    0.264055 0.379671 0.109514 0.103921
H34   H     H_    0.627713 0.647987 0.035291 0.077894
H35   H     H_    0.227779 0.340162 0.298256 0.154338
H36   H     H_    0.182951 0.241128 0.179406 0.073421
H37   H     H_    0.276208 0.213910 0.264639 0.171249
H38   H     H_    0.945081 0.320860 0.480024 0.095809
H39   H     H_    0.054993 0.681091 0.521521 0.096390
H40   H     H_    0.941735 0.575535 0.336142 0.097689
H41   H     H_    0.058352 0.426399 0.665388 0.096824
H42   H     H_    0.459540 0.808923 0.358032 0.186106
N1    N     N_R   0.515540 0.519350 0.790140 -0.220992
N2    N     N_R   0.484460 0.480650 0.209860 -0.218723
O1    O     O_R   0.504400 0.354460 0.582000 -0.535770
O2    O     O_3   0.461864 0.158434 0.252260 -0.504557
O3    O     O_3   0.426570 0.947860 0.246856 -0.577911
O4    O     O_3   0.576045 0.051911 0.751790 -0.579654
O5    O     O_3   0.625099 0.645657 0.797871 -0.482883
O6    O     O_3   0.376416 0.352507 0.202125 -0.478801
O7    O     O_R   0.495600 0.645540 0.418000 -0.535619
O8    O     O_R   0.493920 0.341410 0.386200 -0.410258
O9    O     O_R   0.506080 0.658590 0.613800 -0.411195
O10   O     O_R   0.384320 0.506520 0.597880 -0.519372
O11   O     O_R   0.615680 0.493480 0.402120 -0.518486
O12   O     O_R   0.373840 0.493460 0.402080 -0.455941
O13   O     O_R   0.626160 0.506540 0.597920 -0.460925
O14   O     O_3   0.540212 0.841131 0.747149 -0.504257

loop_
_geom_bond_atom_site_label_1
_geom_bond_atom_site_label_2
_ccdc_geom_bond_type
C11   C18   S    
C16   C21   S    
Cu1   O9    S    
C37   H21   S    
C30   H7    S    
C32   H10   S    
C36   H19   S    
C38   H28   S    
C2    C46   A    
C30   H6    S    
C23   C42   A    
C39   H29   S    
C36   C37   S    
C34   O4    S    
C32   H13   S    
C40   O6    S    
C38   C39   S    
C35   H17   S    
C6    N1    A    
C41   H35   S    
C17   C20   S    
C7    C9    A    
C14   C24   S    
C19   C26   T    
C12   O7    A    
C15   C22   S    
Cu1   Cu2   S    
C33   H14   S    
Cu1   O13   S    
C22   C25   S    
C1    C28   S    
C40   H32   S    
C35   H16   S    
C34   C46   A    
C31   H8    S    
C13   O11   A    
C9    C10   A    
C27   C45   A    
C21   H40   S    
Cu1   O10   S    
C37   H22   S    
C18   C25   T    
C38   O5    S    
C33   O3    S    
C1    O8    A    
C44   C46   A    
C7    H26   S    
C38   H27   S    
C2    C45   A    
Cu2   O8    S    
C30   H5    S    
C17   C24   S    
C13   C19   S    
C12   C27   S    
C6    O5    S    
C14   C20   S    
C16   H1    S    
C14   H38   S    
C13   O13   A    
C35   H18   S    
Cu2   O11   S    
C28   C44   A    
C1    O1    A    
C43   O14   S    
C39   H31   S    
C3    H23   S    
C39   H30   S    
C29   C30   S    
C36   O4    S    
C31   C32   S    
C33   H15   S    
Cu1   O1    S    
C8    N1    A    
C45   H42   S    
C11   O12   A    
C4    C6    A    
C40   C41   S    
C20   C22   S    
C14   C16   S    
C29   O14   S    
C21   C24   S    
C15   H39   S    
C29   H3    S    
C44   H2    S    
C15   C17   S    
Cu2   O7    S    
C16   C22   S    
C42   O2    S    
Cu1   N1    S    
C40   H33   S    
C34   C43   A    
C24   C26   S    
C3    C5    A    
C36   H20   S    
C31   O2    S    
C41   H37   S    
C20   H41   S    
C31   H9    S    
C12   O9    A    
C3    C10   A    
C41   H36   S    
C7    N2    A    
C28   C42   A    
C8    H25   S    
C33   C35   S    
C23   O3    S    
C11   O10   A    
C5    N2    A    
C17   H12   S    
C27   C43   A    
C15   C21   S    
C4    H34   S    
C5    O6    S    
C8    C10   A    
Cu2   N2    S    
C37   H24   S    
C2    C23   A    
C32   H11   S    
C4    C9    A    
C29   H4    S    
Cu2   O12   S    
