data_mof_unit_35160.cif
_audit_creation_date              2013-03-05T16:44:34-0500
_audit_creation_method            fapswitch 2.2
_symmetry_space_group_name_H-M    P1
_symmetry_Int_Tables_number       1
_space_group_crystal_system       triclinic
_cell_length_a                    27.679902
_cell_length_b                    10.659235
_cell_length_c                    9.838946
_cell_angle_alpha                 90.142991
_cell_angle_beta                  90.13267
_cell_angle_gamma                 89.985311
_cell_volume                      2902.93045631

loop_
_atom_site_label
_atom_site_type_symbol
_atom_site_description
_atom_site_fract_x
_atom_site_fract_y
_atom_site_fract_z
_atom_type_partial_charge
O1    O     O_R   0.500010 0.316790 0.614690 -0.617832
O2    O     O_R   0.500000 0.316760 0.385350 -0.620745
C1    C     C_R   0.498374 0.259880 0.499927 0.889636
O3    O     O_R   0.428760 0.500040 0.614660 -0.621532
O4    O     O_R   0.428750 0.500000 0.385310 -0.623455
C2    C     C_R   0.405922 0.500370 0.499719 0.872009
Zn1   Zn    Zn3+2 0.500000 0.500020 0.653130 0.949457
Zn2   Zn    Zn3+2 0.500000 0.499980 0.346870 0.948389
O5    O     O_R   0.500000 0.683240 0.614650 -0.619505
O6    O     O_R   0.499990 0.683210 0.385310 -0.628671
O7    O     O_R   0.571250 0.500000 0.614690 -0.619397
O8    O     O_R   0.571240 0.499960 0.385340 -0.620235
C3    C     C_R   0.498346 0.740145 0.500111 0.887542
C4    C     C_R   0.594053 0.500170 0.500076 0.885236
C5    C     C_R   0.177649 0.389973 0.473166 0.503912
O9    O     O_2   0.203057 0.281916 0.468917 -0.550012
N1    N     N_R   0.201139 0.501722 0.488192 -0.358321
C6    C     C_R   0.176999 0.613340 0.491872 0.518201
C7    C     C_R   0.278261 0.507474 0.370737 -0.105573
C8    C     C_R   0.328365 0.507174 0.373381 -0.208127
C9    C     C_R   0.326901 0.497030 0.620059 -0.210749
C10   C     C_R   0.276647 0.497351 0.617024 -0.099931
C11   C     C_R   0.252494 0.502332 0.492317 0.325535
C12   C     C_R   0.101482 0.501431 0.466200 -0.056510
C13   C     C_R   0.127304 0.387562 0.461738 -0.010087
C14   C     C_R   0.102489 0.274294 0.446366 -0.137262
C15   C     C_R   0.126611 0.615443 0.480251 -0.071649
C16   C     C_R   0.353100 0.501472 0.498051 -0.040843
H1    H     H_    0.345105 0.493160 0.717385 0.152468
H2    H     H_    0.256458 0.493504 0.711062 0.135365
H3    H     H_    0.121589 0.185581 0.443309 0.189626
C17   C     C_R   0.646853 0.500140 0.499540 -0.093057
C18   C     C_R   0.974526 0.386312 0.435058 0.045150
C19   C     C_R   0.974829 0.610247 0.497077 0.041867
C20   C     C_R   0.949461 0.497344 0.470967 0.083058
C21   C     C_R   0.947517 0.278965 0.398097 -0.225685
C22   C     C_R   0.897380 0.279351 0.404157 -0.136854
C23   C     C_R   0.872660 0.386102 0.448723 -0.020907
C24   C     C_R   0.898659 0.495043 0.483604 -0.055308
C25   C     C_R   0.873897 0.601504 0.532145 -0.018014
C26   C     C_R   0.823476 0.598929 0.538765 0.493616
N2    N     N_R   0.798945 0.493875 0.499042 -0.358525
C27   C     C_R   0.822261 0.387522 0.457657 0.490263
C28   C     C_R   0.722583 0.475609 0.618272 -0.115963
C29   C     C_R   0.672517 0.477705 0.619837 -0.222062
C30   C     C_R   0.671784 0.522097 0.377805 -0.198142
C31   C     C_R   0.722447 0.521403 0.374806 0.202526
C32   C     C_R   0.747461 0.496592 0.497043 0.266012
O10   O     O_2   0.796600 0.284262 0.424147 -0.558163
C33   C     C_R   0.025570 0.385675 0.441840 0.061426
C34   C     C_R   0.050564 0.501124 0.458896 0.047261
C35   C     C_R   0.024996 0.616126 0.470342 -0.016547
C36   C     C_R   0.052493 0.273134 0.436287 -0.223967
H4    H     H_    0.653947 0.460593 0.714779 0.167584
H5    H     H_    0.742284 0.457443 0.711412 0.146277
H6    H     H_    0.878090 0.195131 0.374597 0.190961
H7    H     H_    0.964164 0.194055 0.361049 0.143038
H8    H     H_    0.035781 0.181972 0.429745 0.145645
O11   O     O_2   0.201825 0.721672 0.505343 -0.550849
C37   C     C_R   0.101404 0.728929 0.474826 -0.142034
H9    H     H_    0.347604 0.511666 0.277902 0.154046
H10   H     H_    0.259337 0.511619 0.274380 0.133957
H11   H     H_    0.121061 0.816762 0.476870 0.197044
C38   C     C_R   0.949866 0.710003 0.559863 -0.248705
C39   C     C_R   0.899997 0.706926 0.574381 -0.134482
O12   O     O_2   0.799008 0.700822 0.582489 -0.556928
C40   C     C_R   0.051209 0.730970 0.457712 0.150809
H12   H     H_    0.968741 0.790533 0.600615 0.153114
H13   H     H_    0.651320 0.540254 0.286311 0.173308
H14   H     H_    0.882037 0.787420 0.618834 0.191253
C41   C     C_R   0.489581 0.064382 0.623376 0.129798
C42   C     C_R   0.490162 0.128663 0.500405 -0.104314
C43   C     C_R   0.481104 0.064529 0.378397 -0.216415
H15   H     H_    0.477744 0.113259 0.282390 0.165062
C44   C     C_R   0.481022 0.934884 0.378560 -0.217097
H16   H     H_    0.477541 0.885574 0.282610 0.170690
C45   C     C_R   0.490062 0.871399 0.500729 -0.104548
C46   C     C_R   0.489489 0.936456 0.623577 0.148161
C47   C     C_3   0.523181 0.929680 0.742375 -0.493912
C48   C     C_3   0.523368 0.071849 0.741943 -0.472789
H17   H     H_    0.505455 0.889497 0.833701 0.202224
H18   H     H_    0.558765 0.887757 0.716041 0.206217
H19   H     H_    0.505922 0.113459 0.833168 0.200449
H20   H     H_    0.559038 0.112764 0.714997 0.209899
C49   C     C_R   0.482342 0.399303 0.070908 0.215960
N3    N     N_R   0.499670 0.499140 0.142800 -0.106739
C50   C     C_R   0.521805 0.593467 0.072463 -0.135590
H21   H     H_    0.538633 0.670004 0.127236 0.148473
C51   C     C_R   0.521880 0.593345 0.928306 -0.133234
H22   H     H_    0.538921 0.669472 0.874153 0.147277
N4    N     N_R   0.499670 0.499180 0.857150 -0.106047
C52   C     C_R   0.482321 0.399379 0.928199 0.212212
C53   C     C_3   0.432101 0.349421 0.921792 -0.503513
C54   C     C_3   0.432105 0.349260 0.076120 -0.505923
H23   H     H_    0.406173 0.417635 0.877508 0.215222
H24   H     H_    0.430683 0.253761 0.876767 0.202075
H25   H     H_    0.406137 0.417242 0.120689 0.215550
H26   H     H_    0.430681 0.253443 0.120126 0.197769
C55   C     C_3   0.751040 0.547070 0.245629 -0.396827
C56   C     C_3   0.721224 0.579094 0.119242 -0.875875
H27   H     H_    0.697508 0.499179 0.090660 0.258510
H28   H     H_    0.699207 0.664656 0.137210 0.263645
H29   H     H_    0.745913 0.597771 0.032808 0.264532
H30   H     H_    0.776047 0.626684 0.265233 0.218956
H31   H     H_    0.773287 0.463298 0.221281 0.229735
C57   C     C_3   0.028336 0.853814 0.411018 -0.450870
C58   C     C_3   0.052617 0.906988 0.283895 -0.847542
H32   H     H_    0.089640 0.940959 0.306858 0.259194
H33   H     H_    0.054240 0.834453 0.202740 0.273627
H34   H     H_    0.031354 0.987981 0.245599 0.244540
H35   H     H_    0.989976 0.840950 0.382001 0.230455
H36   H     H_    0.030499 0.924253 0.494270 0.202047

loop_
_geom_bond_atom_site_label_1
_geom_bond_atom_site_label_2
_geom_bond_distance
_ccdc_geom_bond_type
C50   H21   1.081574 S    
C53   C54   1.518428 S    
C43   C44   1.381928 A    
C26   N2    1.365537 A    
C20   C24   1.412176 A    
C7    C8    1.387072 A    
C12   C15   1.406765 A    
C48   H20   1.112353 S    
C57   H36   1.111297 S    
C45   C46   1.392112 A    
Zn1   O7    2.008990 S    
N1    C11   1.422008 S    
C37   H11   1.083094 S    
C38   H12   1.080782 S    
C21   C22   1.389204 A    
C15   C37   1.397377 A    
O3    Zn1   2.007053 S    
C23   C24   1.407625 A    
O7    C4    1.293580 A    
C5    C13   1.398057 A    
C57   C58   1.531326 S    
C54   H26   1.111051 S    
C7    H10   1.083073 S    
C5    O9    1.349996 S    
C18   C21   1.413339 A    
C31   C55   1.524186 S    
C5    N1    1.364750 A    
C19   C20   1.416134 A    
C43   H15   1.082939 S    
C8    H9    1.082089 S    
O5    C3    1.281863 A    
C52   C53   1.489853 S    
C30   H13   1.080346 S    
C22   H6    1.083429 S    
C2    C16   1.462218 S    
C31   C32   1.411892 A    
C37   C40   1.399341 A    
C58   H32   1.109542 S    
C51   N4    1.367612 A    
C12   C34   1.411052 A    
C55   H30   1.111466 S    
C14   H3    1.083639 S    
C53   H23   1.110610 S    
C9    C10   1.391261 A    
C58   H33   1.111053 S    
C48   H19   1.111502 S    
C56   H28   1.110793 S    
C41   C48   1.495472 S    
C49   C52   1.404104 A    
C33   C34   1.421286 A    
C57   H35   1.107348 S    
C55   H31   1.110512 S    
C3    C45   1.417677 S    
C33   C36   1.413089 A    
C34   C35   1.419667 A    
C12   C13   1.409061 A    
O3    C2    1.294313 A    
C21   H7    1.078542 S    
N4    C52   1.362527 A    
C47   H17   1.111613 S    
N3    C50   1.367850 A    
C27   O10   1.349887 S    
C8    C16   1.404815 A    
C54   H25   1.110702 S    
C18   C33   1.414331 A    
C49   N3    1.363016 A    
C9    H1    1.081917 S    
C56   H29   1.110606 S    
O1    C1    1.281156 A    
C7    C11   1.395321 A    
C44   H16   1.083466 S    
C22   C23   1.397774 A    
C47   H18   1.112362 S    
C49   C54   1.490518 S    
C55   C56   1.530099 S    
Zn2   O8    2.007053 S    
Zn1   N4    2.007426 S    
C19   C38   1.409976 A    
N1    C6    1.364846 A    
C17   C29   1.400054 A    
N2    C32   1.425458 S    
C44   C45   1.402838 A    
C35   C40   1.429013 A    
C25   C26   1.397595 A    
C9    C16   1.404815 A    
O8    C4    1.292210 A    
C29   H4    1.083151 S    
C53   H24   1.111396 S    
C25   C39   1.397871 A    
C50   C51   1.418358 A    
C58   H34   1.110875 S    
N2    C27   1.366012 A    
C14   C36   1.387252 A    
C24   C25   1.408573 A    
C28   C29   1.386120 A    
Zn1   O5    1.990271 S    
C30   C31   1.402737 A    
C10   H2    1.082891 S    
O1    Zn1   1.988448 S    
C17   C30   1.403873 A    
O2    Zn2   1.990272 S    
C6    C15   1.399334 A    
C4    C17   1.461540 S    
C42   C43   1.402072 A    
O6    C3    1.281800 A    
O4    Zn2   2.008993 S    
C36   H8    1.078035 S    
C40   C57   1.525687 S    
C26   O12   1.349833 S    
C19   C35   1.415357 A    
C38   C39   1.388476 A    
O2    C1    1.282231 A    
C13   C14   1.396933 A    
C23   C27   1.398088 A    
C46   C47   1.495486 S    
C28   H5    1.083126 S    
O4    C2    1.292156 A    
C56   H27   1.110808 S    
C18   C20   1.416165 A    
C1    C42   1.417110 S    
Zn2   N3    2.007831 S    
C47   C48   1.515442 S    
C28   C32   1.397179 A    
C6    O11   1.349974 S    
C41   C42   1.392064 A    
Zn2   O6    1.988447 S    
C10   C11   1.397066 A    
C51   H22   1.080901 S    
C41   C46   1.363601 A    
C39   H14   1.083291 S    
