data_mof_unit_29982.cif
_audit_creation_date              2012-10-26T17:11:28-0400
_audit_creation_method            fapswitch 2.2
_symmetry_space_group_name_H-M    P1
_symmetry_Int_Tables_number       1
_space_group_crystal_system       monoclinic
_cell_length_a                    28.079986
_cell_length_b                    18.846888
_cell_length_c                    16.93562
_cell_angle_alpha                 90.0
_cell_angle_beta                  62.206442
_cell_angle_gamma                 90.0
_cell_volume                      7928.68151573

loop_
_atom_site_label
_atom_site_type_symbol
_atom_type_description
_atom_site_fract_x
_atom_site_fract_y
_atom_site_fract_z
_atom_type_partial_charge
C1    C     C_R   0.296459 0.730895 0.329216 0.800483
C2    C     C_R   0.706336 0.275080 0.669161 0.848495
C3    C     C_R   0.703541 0.730895 0.670783 0.800483
C4    C     C_R   0.293664 0.275080 0.330839 0.848495
C5    C     C_R   0.796061 0.230129 0.329220 0.779209
C6    C     C_R   0.206269 0.774941 0.669331 0.819032
C7    C     C_R   0.203939 0.230129 0.670780 0.779210
C8    C     C_R   0.793731 0.774941 0.330669 0.819032
C9    C     C_R   0.403602 0.000279 0.485925 -0.010881
C10   C     C_R   0.596399 0.000279 0.514073 -0.010881
C11   C     C_R   0.904646 0.502364 0.482171 -0.010610
C12   C     C_R   0.095353 0.502364 0.517829 -0.010610
C13   C     C_R   0.606605 0.876015 0.472940 0.310728
C14   C     C_R   0.417909 0.124728 0.445932 0.316973
C15   C     C_R   0.393395 0.876016 0.527060 0.310728
C16   C     C_R   0.582091 0.124728 0.554065 0.316974
C17   C     C_R   0.106463 0.378600 0.474818 0.311069
C18   C     C_R   0.918881 0.627218 0.443689 0.314159
C19   C     C_R   0.893537 0.378601 0.525182 0.311069
C20   C     C_R   0.081119 0.627218 0.556310 0.314160
C21   C     C_R   0.217882 0.765607 0.957279 -0.083028
C22   C     C_R   0.770573 0.217075 0.056239 -0.076788
C23   C     C_R   0.782118 0.765607 0.042721 -0.083026
C24   C     C_R   0.229429 0.217071 0.943759 -0.076786
C25   C     C_R   0.714536 0.255588 0.958266 -0.074278
C26   C     C_R   0.275246 0.729387 0.053481 -0.081919
C27   C     C_R   0.285465 0.255586 0.041733 -0.074277
C28   C     C_R   0.724754 0.729387 0.946519 -0.081918
C29   C     C_R   0.264024 0.721254 0.920138 0.440235
C30   C     C_R   0.719617 0.250271 0.098503 0.410323
C31   C     C_R   0.735976 0.721254 0.079862 0.440235
C32   C     C_R   0.280384 0.250269 0.901496 0.410323
C33   C     C_R   0.760329 0.210102 0.921047 0.432857
C34   C     C_R   0.224151 0.762565 0.096340 0.417393
C35   C     C_R   0.239673 0.210098 0.078952 0.432854
C36   C     C_R   0.775849 0.762565 0.903660 0.417393
C37   C     C_R   0.296211 0.714682 0.962097 -0.227022
C38   C     C_R   0.697099 0.278018 0.047092 -0.273751
C39   C     C_R   0.703789 0.714683 0.037903 -0.227021
C40   C     C_R   0.302902 0.278016 0.952908 -0.273745
C41   C     C_R   0.791300 0.200932 0.965053 -0.225910
C42   C     C_R   0.201144 0.789730 0.045234 -0.281150
C43   C     C_R   0.208702 0.200926 0.034945 -0.225912
C44   C     C_R   0.798856 0.789730 0.954766 -0.281154
C45   C     C_R   0.134986 0.814694 0.948235 0.409932
C46   C     C_R   0.840819 0.144320 0.075421 0.404486
C47   C     C_R   0.865014 0.814694 0.051765 0.409933
C48   C     C_R   0.159182 0.144317 0.924577 0.404487
C49   C     C_R   0.633565 0.311472 0.948185 0.410288
C50   C     C_R   0.343372 0.651178 0.072208 0.405083
C51   C     C_R   0.366435 0.311472 0.051815 0.410285
C52   C     C_R   0.656628 0.651178 0.927792 0.405083
C53   C     C_R   0.114383 0.847772 0.896147 -0.144862
C54   C     C_R   0.876788 0.138366 0.111509 -0.153250
C55   C     C_R   0.885617 0.847772 0.103853 -0.144862
C56   C     C_R   0.123213 0.138366 0.888491 -0.153249
C57   C     C_R   0.614131 0.347139 0.895998 -0.149301
C58   C     C_R   0.377916 0.640929 0.110492 -0.152938
C59   C     C_R   0.385869 0.347139 0.104003 -0.149303
C60   C     C_R   0.622084 0.640929 0.889508 -0.152939
C61   C     C_R   0.136939 0.832818 0.805381 -0.291669
C62   C     C_R   0.864052 0.170444 0.193085 -0.299494
C63   C     C_R   0.863061 0.832818 0.194619 -0.291669
C64   C     C_R   0.135948 0.170444 0.806915 -0.299494
C65   C     C_R   0.637090 0.333186 0.804982 -0.269390
C66   C     C_R   0.364644 0.671157 0.193292 -0.277078
C67   C     C_R   0.362909 0.333187 0.195018 -0.269388
C68   C     C_R   0.635356 0.671157 0.806707 -0.277078
C69   C     C_R   0.184052 0.793545 0.764158 -0.092132
C70   C     C_R   0.818929 0.213733 0.233591 -0.091851
C71   C     C_R   0.815948 0.793545 0.235842 -0.092132
C72   C     C_R   0.181071 0.213733 0.766409 -0.091851
C73   C     C_R   0.683894 0.293324 0.763901 -0.093305
C74   C     C_R   0.320553 0.716323 0.233161 -0.094598
C75   C     C_R   0.316105 0.293324 0.236099 -0.093305
C76   C     C_R   0.679446 0.716323 0.766839 -0.094598
C77   C     C_R   0.211691 0.776630 0.812446 -0.197552
C78   C     C_R   0.792543 0.234892 0.184565 -0.222299
C79   C     C_R   0.788309 0.776630 0.187554 -0.197553
C80   C     C_R   0.207458 0.234890 0.815434 -0.222302
C81   C     C_R   0.710896 0.274771 0.812479 -0.199367
C82   C     C_R   0.296290 0.741493 0.182769 -0.216051
C83   C     C_R   0.289103 0.274771 0.187521 -0.199365
C84   C     C_R   0.703710 0.741493 0.817231 -0.216051
C85   C     C_R   0.196735 0.631899 0.526937 0.845308
C86   C     C_R   0.800736 0.369046 0.482164 0.827817
C87   C     C_R   0.803265 0.631899 0.473063 0.845309
C88   C     C_R   0.199263 0.369046 0.517836 0.827816
C89   C     C_R   0.697894 0.131452 0.522718 0.846720
C90   C     C_R   0.299512 0.868855 0.486151 0.824308
C91   C     C_R   0.302106 0.131452 0.477281 0.846721
C92   C     C_R   0.700488 0.868855 0.513849 0.824307
C93   C     C_R   0.187646 0.785253 0.906058 -0.011774
C94   C     C_R   0.801778 0.198956 0.105520 0.007396
C95   C     C_R   0.812353 0.785253 0.093942 -0.011773
C96   C     C_R   0.198224 0.198953 0.894478 0.007396
C97   C     C_R   0.685816 0.280204 0.906342 -0.008803
C98   C     C_R   0.305656 0.707655 0.102652 0.004950
C99   C     C_R   0.314184 0.280203 0.093658 -0.008801
C100  C     C_R   0.694344 0.707655 0.897348 0.004951
C101  C     C_R   0.928300 0.901160 0.065421 0.806124
C102  C     C_R   0.075756 0.092826 0.930927 0.820037
C103  C     C_R   0.071700 0.901161 0.934579 0.806126
C104  C     C_R   0.924244 0.092826 0.069073 0.820036
C105  C     C_R   0.428350 0.401002 0.065401 0.806934
C106  C     C_R   0.575548 0.593400 0.931151 0.819431
C107  C     C_R   0.571650 0.401002 0.934599 0.806935
C108  C     C_R   0.424452 0.593400 0.068849 0.819430
C109  C     C_R   0.041339 0.631390 0.526793 -0.088572
C110  C     C_R   0.947494 0.374825 0.508433 -0.082064
C111  C     C_R   0.958661 0.631390 0.473207 -0.088572
C112  C     C_R   0.052506 0.374825 0.491567 -0.082063
C113  C     C_R   0.541553 0.128897 0.526254 -0.089694
C114  C     C_R   0.447487 0.872297 0.508913 -0.078944
C115  C     C_R   0.458448 0.128897 0.473743 -0.089695
C116  C     C_R   0.552513 0.872297 0.491087 -0.078945
C117  C     C_R   0.019870 0.696432 0.514821 0.221894
C118  C     C_R   0.973448 0.309766 0.505492 0.251051
C119  C     C_R   0.980130 0.696432 0.485179 0.221895
C120  C     C_R   0.026552 0.309766 0.494509 0.251051
C121  C     C_R   0.519902 0.193939 0.514777 0.220550
C122  C     C_R   0.473508 0.807209 0.505404 0.252107
C123  C     C_R   0.480099 0.193939 0.485219 0.220550
C124  C     C_R   0.526492 0.807208 0.494597 0.252107
C125  C     C_R   0.977687 0.567565 0.491229 -0.038323
C126  C     C_R   0.024926 0.438787 0.500431 -0.024175
C127  C     C_R   0.022313 0.567565 0.508771 -0.038323
C128  C     C_R   0.975074 0.438787 0.499569 -0.024175
C129  C     C_R   0.477574 0.065136 0.491630 -0.038824
C130  C     C_R   0.525006 0.936333 0.500021 -0.024775
C131  C     C_R   0.522426 0.065136 0.508368 -0.038823
C132  C     C_R   0.474995 0.936333 0.499978 -0.024775
C133  C     C_R   0.452183 0.000655 0.492091 0.039269
C134  C     C_R   0.547818 0.000655 0.507908 0.039268
C135  C     C_R   0.952482 0.503021 0.490914 0.039118
C136  C     C_R   0.047518 0.503021 0.509086 0.039118
C137  C     C_R   0.374564 0.936210 0.499807 -0.071779
C138  C     C_R   0.615896 0.063888 0.532628 -0.073044
C139  C     C_R   0.625436 0.936210 0.500193 -0.071778
C140  C     C_R   0.384104 0.063888 0.467370 -0.073043
C141  C     C_R   0.875577 0.438250 0.495305 -0.070349
C142  C     C_R   0.114215 0.565871 0.537619 -0.071951
C143  C     C_R   0.124423 0.438250 0.504695 -0.070350
C144  C     C_R   0.885785 0.565871 0.462381 -0.071951
C145  C     C_R   0.326055 0.935715 0.492169 -0.198896
C146  C     C_R   0.668941 0.064502 0.525771 -0.195018
C147  C     C_R   0.673945 0.935714 0.507831 -0.198896
C148  C     C_R   0.331059 0.064502 0.474228 -0.195018
C149  C     C_R   0.829372 0.436501 0.480246 -0.189863
C150  C     C_R   0.165063 0.565551 0.538582 -0.190264
C151  C     C_R   0.170628 0.436501 0.519754 -0.189863
C152  C     C_R   0.834937 0.565551 0.461418 -0.190263
C153  C     C_R   0.301665 0.000545 0.492297 0.358324
C154  C     C_R   0.698335 0.000545 0.507703 0.358325
C155  C     C_R   0.810243 0.500372 0.462040 0.349102
C156  C     C_R   0.189757 0.500372 0.537960 0.349102
Cu1   Cu    Cu3+1 0.209920 0.785290 0.495070 1.063021
Cu2   Cu    Cu3+1 0.790080 0.214710 0.504930 1.064839
Cu3   Cu    Cu3+1 0.790080 0.785290 0.504930 1.063020
Cu4   Cu    Cu3+1 0.209920 0.214710 0.495070 1.064839
Cu5   Cu    Cu3+1 0.709920 0.285290 0.495070 1.043904
Cu6   Cu    Cu3+1 0.290080 0.714710 0.504930 1.082470
Cu7   Cu    Cu3+1 0.290080 0.285290 0.504930 1.043903
Cu8   Cu    Cu3+1 0.709920 0.714710 0.495070 1.082470
Cu9   Cu    Cu3+1 0.495240 0.500000 0.924150 1.038568
Cu10  Cu    Cu3+1 0.504760 0.500000 0.075850 1.038567
Cu11  Cu    Cu3+1 0.995240 0.000000 0.924150 1.021525
Cu12  Cu    Cu3+1 0.004760 0.000000 0.075850 1.021526
H1    H     H_    0.168029 0.825676 0.078826 0.239455
H2    H     H_    0.830629 0.177660 0.927083 0.236062
H3    H     H_    0.831971 0.825676 0.921174 0.239455
H4    H     H_    0.169374 0.177653 0.072914 0.236062
H5    H     H_    0.664480 0.314683 0.080607 0.239649
H6    H     H_    0.335464 0.691280 0.923865 0.235790
H7    H     H_    0.335520 0.314681 0.919393 0.239648
H8    H     H_    0.664536 0.691280 0.076136 0.235790
H9    H     H_    0.118576 0.853317 0.766221 0.210257
H10   H     H_    0.887651 0.158963 0.227111 0.203736
H11   H     H_    0.881424 0.853317 0.233779 0.210257
H12   H     H_    0.112348 0.158964 0.772890 0.203735
H13   H     H_    0.619328 0.354909 0.765527 0.214123
H14   H     H_    0.386861 0.656705 0.228761 0.208029
H15   H     H_    0.380671 0.354911 0.234474 0.214122
H16   H     H_    0.613139 0.656704 0.771238 0.208029
H17   H     H_    0.252153 0.757507 0.775232 0.259599
H18   H     H_    0.763490 0.277259 0.210913 0.219151
H19   H     H_    0.747847 0.757507 0.224767 0.259598
H20   H     H_    0.236511 0.277257 0.789087 0.219152
H21   H     H_    0.751613 0.256831 0.775032 0.261138
H22   H     H_    0.268453 0.785202 0.209030 0.221877
H23   H     H_    0.248387 0.256830 0.224968 0.261137
H24   H     H_    0.731546 0.785203 0.790970 0.221877
O1    O     O_R   0.255040 0.869590 0.478480 -0.539655
O2    O     O_R   0.744960 0.130410 0.521520 -0.535937
O3    O     O_R   0.744960 0.869590 0.521520 -0.539655
O4    O     O_R   0.255040 0.130410 0.478480 -0.535937
O5    O     O_R   0.755040 0.369590 0.478480 -0.553907
O6    O     O_R   0.244960 0.630410 0.521520 -0.534467
O7    O     O_R   0.244960 0.369590 0.521520 -0.553906
O8    O     O_R   0.755040 0.630410 0.478480 -0.534468
O9    O     O_R   0.182050 0.796550 0.624440 -0.568430
O10   O     O_R   0.817950 0.203450 0.375560 -0.586635
O11   O     O_R   0.817950 0.796550 0.375560 -0.568430
O12   O     O_R   0.182050 0.203450 0.624440 -0.586633
O13   O     O_R   0.682050 0.296550 0.624440 -0.556518
O14   O     O_R   0.317950 0.703450 0.375560 -0.573248
O15   O     O_R   0.317950 0.296550 0.375560 -0.556518
O16   O     O_R   0.682050 0.703450 0.624440 -0.573248
O17   O     O_R   0.250530 0.763330 0.367210 -0.586975
O18   O     O_R   0.749470 0.236670 0.632790 -0.565913
O19   O     O_R   0.749470 0.763330 0.632790 -0.586974
O20   O     O_R   0.250530 0.236670 0.367210 -0.565917
O21   O     O_R   0.750530 0.263330 0.367210 -0.596958
O22   O     O_R   0.249470 0.736670 0.632790 -0.564485
O23   O     O_R   0.249470 0.263330 0.632790 -0.596957
O24   O     O_R   0.750530 0.736670 0.367210 -0.564486
O25   O     O_R   0.177260 0.690030 0.513710 -0.555079
O26   O     O_R   0.822740 0.309970 0.486290 -0.551746
O27   O     O_R   0.822740 0.690030 0.486290 -0.555078
O28   O     O_R   0.177260 0.309970 0.513710 -0.551746
O29   O     O_R   0.677260 0.190030 0.513710 -0.554883
O30   O     O_R   0.322740 0.809970 0.486290 -0.553545
O31   O     O_R   0.322740 0.190030 0.486290 -0.554883
O32   O     O_R   0.677260 0.809970 0.513710 -0.553545
O33   O     O_R   0.051640 0.926880 0.885090 -0.602452
O34   O     O_R   0.948360 0.073120 0.114910 -0.604098
O35   O     O_R   0.948360 0.926880 0.114910 -0.602452
O36   O     O_R   0.051640 0.073120 0.885090 -0.604099
O37   O     O_R   0.551640 0.426880 0.885090 -0.592663
O38   O     O_R   0.448360 0.573120 0.114910 -0.594085
O39   O     O_R   0.448360 0.426880 0.114910 -0.592662
O40   O     O_R   0.551640 0.573120 0.885090 -0.594085
O41   O     O_R   0.940620 0.926560 0.986760 -0.540834
O42   O     O_R   0.059380 0.073440 0.013240 -0.529534
O43   O     O_R   0.059380 0.926560 0.013240 -0.540833
O44   O     O_R   0.940620 0.073440 0.986760 -0.529532
O45   O     O_R   0.440620 0.426560 0.986760 -0.548880
O46   O     O_R   0.559380 0.573440 0.013240 -0.532389
O47   O     O_R   0.559380 0.426560 0.013240 -0.548879
O48   O     O_R   0.440620 0.573440 0.986760 -0.532389
Br1   Br    Br    0.559657 0.718196 0.497965 -0.364664
Br2   Br    Br    0.449825 0.283803 0.475822 -0.406147
Br3   Br    Br    0.440342 0.718196 0.502037 -0.364664
Br4   Br    Br    0.550176 0.283803 0.524173 -0.406145
Br5   Br    Br    0.060135 0.220774 0.496435 -0.371819
Br6   Br    Br    0.949957 0.786457 0.475876 -0.409044
Br7   Br    Br    0.939865 0.220774 0.503566 -0.371819
Br8   Br    Br    0.050043 0.786457 0.524124 -0.409044
O49   O     O_3   0.247401 0.001565 0.515124 -0.536068
C157  C     C_3   0.217296 0.002021 0.609444 0.083633
H25   H     H_    0.227173 0.049549 0.638234 0.117101
H26   H     H_    0.225058 0.953270 0.638907 0.127256
C158  C     C_3   0.157559 0.004327 0.636289 -0.678400
H27   H     H_    0.133775 0.004928 0.710218 0.190017
H28   H     H_    0.148146 0.052917 0.609129 0.258106
H29   H     H_    0.146129 0.956818 0.610125 0.256439
O50   O     O_3   0.752599 0.001565 0.484876 -0.536069
C159  C     C_3   0.782704 0.002021 0.390556 0.083635
H30   H     H_    0.772827 0.049548 0.361766 0.117101
H31   H     H_    0.774943 0.953269 0.361093 0.127256
C160  C     C_3   0.842441 0.004327 0.363711 -0.678402
H32   H     H_    0.866225 0.004927 0.289783 0.190018
H33   H     H_    0.851854 0.052917 0.390871 0.258105
H34   H     H_    0.853871 0.956819 0.389877 0.256440
O51   O     O_3   0.762733 0.500067 0.456018 -0.537661
C161  C     C_3   0.774264 0.489704 0.366247 0.099364
H35   H     H_    0.804154 0.446394 0.333375 0.112694
H36   H     H_    0.790456 0.539421 0.327619 0.131529
C162  C     C_3   0.722231 0.468981 0.364470 -0.672557
H37   H     H_    0.695015 0.515568 0.381398 0.244181
H38   H     H_    0.731238 0.448483 0.297595 0.184414
H39   H     H_    0.700852 0.426411 0.413535 0.276141
O52   O     O_3   0.237267 0.500067 0.543982 -0.537661
C163  C     C_3   0.225735 0.489704 0.633753 0.099364
H40   H     H_    0.195846 0.446394 0.666625 0.112694
H41   H     H_    0.209544 0.539421 0.672382 0.131530
C164  C     C_3   0.277769 0.468981 0.635531 -0.672558
H42   H     H_    0.304985 0.515567 0.618602 0.244181
H43   H     H_    0.268762 0.448484 0.702406 0.184414
H44   H     H_    0.299147 0.426410 0.586466 0.276141
Br9   Br    Br    0.656768 0.831384 0.362842 -0.503335
Br10  Br    Br    0.428693 0.177434 0.341072 -0.523632
Br11  Br    Br    0.343231 0.831384 0.637158 -0.503336
Br12  Br    Br    0.571307 0.177434 0.658925 -0.523630
Br13  Br    Br    0.157495 0.336372 0.363525 -0.483689
Br14  Br    Br    0.929414 0.682090 0.340302 -0.535664
Br15  Br    Br    0.842505 0.336372 0.636475 -0.483689
Br16  Br    Br    0.070586 0.682090 0.659698 -0.535664
O53   O     O_3   0.275242 0.676469 0.849420 -0.562368
C165  C     C_3   0.238799 0.619048 0.881714 0.063476
H45   H     H_    0.196692 0.636977 0.903737 0.133151
H46   H     H_    0.240946 0.591712 0.938354 0.140723
C166  C     C_3   0.252918 0.566109 0.807341 -0.778089
H47   H     H_    0.293660 0.543914 0.786825 0.264749
H48   H     H_    0.222891 0.522462 0.830682 0.188000
H49   H     H_    0.252423 0.593173 0.749540 0.260719
O54   O     O_3   0.689199 0.252902 0.190142 -0.579619
C167  C     C_3   0.667037 0.184718 0.219804 0.040869
H50   H     H_    0.644661 0.165645 0.184058 0.140146
H51   H     H_    0.698953 0.145606 0.210307 0.136346
C168  C     C_3   0.627889 0.187713 0.318410 -0.707415
H52   H     H_    0.594975 0.225547 0.329946 0.276353
H53   H     H_    0.610490 0.134176 0.341502 0.188925
H54   H     H_    0.648976 0.204962 0.356674 0.269232
O55   O     O_3   0.724758 0.676469 0.150580 -0.562368
C169  C     C_3   0.761200 0.619048 0.118286 0.063475
H55   H     H_    0.803308 0.636977 0.096264 0.133151
H56   H     H_    0.759054 0.591712 0.061646 0.140723
C170  C     C_3   0.747081 0.566110 0.192659 -0.778087
H57   H     H_    0.706339 0.543915 0.213175 0.264749
H58   H     H_    0.777108 0.522461 0.169318 0.188000
H59   H     H_    0.747577 0.593173 0.250459 0.260717
O56   O     O_3   0.310802 0.252901 0.809857 -0.579620
C171  C     C_3   0.332965 0.184719 0.780193 0.040870
H60   H     H_    0.301050 0.145607 0.789686 0.136347
H61   H     H_    0.355340 0.165644 0.815940 0.140145
C172  C     C_3   0.372114 0.187717 0.681588 -0.707408
H62   H     H_    0.405029 0.225550 0.670055 0.276353
H63   H     H_    0.389515 0.134180 0.658494 0.188924
H64   H     H_    0.351029 0.204966 0.643323 0.269232
O57   O     O_3   0.776461 0.173573 0.842007 -0.566680
C173  C     C_3   0.742831 0.113743 0.858563 0.029302
H65   H     H_    0.745402 0.078202 0.908974 0.143039
H66   H     H_    0.700106 0.129752 0.882593 0.135292
C174  C     C_3   0.760886 0.072269 0.772276 -0.672894
H67   H     H_    0.803232 0.054584 0.747001 0.264608
H68   H     H_    0.734833 0.024922 0.784476 0.190790
H69   H     H_    0.757894 0.106149 0.721095 0.261217
O58   O     O_3   0.193777 0.764742 0.188061 -0.577074
C175  C     C_3   0.170716 0.696862 0.217235 0.033182
H70   H     H_    0.202145 0.656871 0.207473 0.140654
H71   H     H_    0.148263 0.678901 0.181162 0.137159
C176  C     C_3   0.131417 0.699740 0.315959 -0.691036
H72   H     H_    0.098838 0.738215 0.327715 0.274261
H73   H     H_    0.113438 0.646438 0.338954 0.187822
H74   H     H_    0.152561 0.716114 0.354449 0.273431
O59   O     O_3   0.223540 0.173571 0.157992 -0.566681
C177  C     C_3   0.257170 0.113741 0.141438 0.029307
H75   H     H_    0.254597 0.078196 0.091033 0.143043
H76   H     H_    0.299896 0.129749 0.117401 0.135286
C178  C     C_3   0.239120 0.072273 0.227729 -0.672890
H77   H     H_    0.196773 0.054587 0.253011 0.264609
H78   H     H_    0.265172 0.024926 0.215531 0.190789
H79   H     H_    0.242114 0.106157 0.278904 0.261215
O60   O     O_3   0.806222 0.764742 0.811939 -0.577075
C179  C     C_3   0.829284 0.696862 0.782765 0.033182
H80   H     H_    0.797855 0.656871 0.792525 0.140656
H81   H     H_    0.851736 0.678900 0.818839 0.137158
C180  C     C_3   0.868584 0.699741 0.684041 -0.691034
H82   H     H_    0.901164 0.738214 0.672287 0.274257
H83   H     H_    0.886562 0.646438 0.661045 0.187822
H84   H     H_    0.847441 0.716117 0.645550 0.273435
O61   O     O_3   0.102650 0.811405 0.039387 -0.586698
C181  C     C_3   0.081642 0.742104 0.061908 0.005313
H85   H     H_    0.114287 0.701758 0.041057 0.131333
H86   H     H_    0.055498 0.729528 0.030498 0.148517
C182  C     C_3   0.047972 0.737303 0.162409 -0.660835
H87   H     H_    0.012208 0.772354 0.184772 0.279078
H88   H     H_    0.034739 0.681614 0.181291 0.219294
H89   H     H_    0.072020 0.754070 0.195817 0.256782
O62   O     O_3   0.842149 0.093812 0.015094 -0.579808
C183  C     C_3   0.806575 0.038309 0.063114 0.055239
H90   H     H_    0.764232 0.057699 0.096988 0.127720
H91   H     H_    0.816999 0.015167 0.113724 0.124946
C184  C     C_3   0.810615 0.979571 0.998770 -0.729618
H92   H     H_    0.852201 0.958113 0.965060 0.277732
H93   H     H_    0.782341 0.936085 0.035989 0.199233
H94   H     H_    0.800192 0.000366 0.947487 0.239578
O63   O     O_3   0.897350 0.811404 0.960612 -0.586698
C185  C     C_3   0.918357 0.742104 0.938091 0.005313
H95   H     H_    0.885711 0.701758 0.958943 0.131332
H96   H     H_    0.944501 0.729526 0.969502 0.148518
C186  C     C_3   0.952027 0.737302 0.837591 -0.660837
H97   H     H_    0.987792 0.772351 0.815227 0.279078
H98   H     H_    0.965258 0.681612 0.818708 0.219293
H99   H     H_    0.927979 0.754072 0.804183 0.256783
O64   O     O_3   0.157854 0.093807 0.984900 -0.579810
C187  C     C_3   0.193427 0.038304 0.936877 0.055236
H100  H     H_    0.235770 0.057695 0.902999 0.127723
H101  H     H_    0.182999 0.015164 0.886269 0.124948
C188  C     C_3   0.189390 0.979565 0.001216 -0.729624
H102  H     H_    0.147802 0.958110 0.034933 0.277736
H103  H     H_    0.217661 0.936079 0.963993 0.199237
H104  H     H_    0.199818 0.000359 0.052493 0.239573
O65   O     O_3   0.599962 0.305840 0.038706 -0.586482
C189  C     C_3   0.577233 0.237242 0.056449 0.002589
H105  H     H_    0.608805 0.195216 0.032905 0.136046
H106  H     H_    0.550919 0.229598 0.024169 0.146719
C190  C     C_3   0.543279 0.228554 0.156388 -0.659016
H107  H     H_    0.509044 0.266445 0.181425 0.279205
H108  H     H_    0.527671 0.173438 0.171032 0.219812
H109  H     H_    0.567926 0.238872 0.190808 0.256096
O66   O     O_3   0.344987 0.603333 0.008968 -0.578812
C191  C     C_3   0.307282 0.548794 0.052964 0.055834
H110  H     H_    0.265516 0.569543 0.079302 0.126745
H111  H     H_    0.312596 0.525523 0.108941 0.134544
C192  C     C_3   0.315185 0.489495 0.986975 -0.729107
H112  H     H_    0.356066 0.466431 0.961576 0.274766
H113  H     H_    0.284954 0.447031 0.020433 0.196943
H114  H     H_    0.310486 0.510305 0.929711 0.246358
O67   O     O_3   0.400039 0.305837 0.961294 -0.586481
C193  C     C_3   0.422768 0.237240 0.943556 0.002592
H115  H     H_    0.449080 0.229599 0.975840 0.146715
H116  H     H_    0.391197 0.195213 0.967098 0.136047
C194  C     C_3   0.456726 0.228550 0.843618 -0.659017
H117  H     H_    0.490960 0.266444 0.818582 0.279202
H118  H     H_    0.472337 0.173435 0.828977 0.219812
H119  H     H_    0.432080 0.238863 0.809193 0.256095
O68   O     O_3   0.655012 0.603333 0.991033 -0.578812
C195  C     C_3   0.692717 0.548794 0.947038 0.055835
H120  H     H_    0.734484 0.569542 0.920698 0.126744
H121  H     H_    0.687401 0.525522 0.891061 0.134544
C196  C     C_3   0.684813 0.489495 0.013027 -0.729104
H122  H     H_    0.643932 0.466433 0.038429 0.274768
H123  H     H_    0.715043 0.447030 0.979570 0.196943
H124  H     H_    0.689514 0.510306 0.070290 0.246356

loop_
_geom_bond_atom_site_label_1
_geom_bond_atom_site_label_2
_ccdc_geom_bond_type
C121  Br4   S    
C173  H66   S    
C61   H9    S    
Cu10  O39   S    
C165  C166  S    
C34   C42   A    
C16   C113  A    
C110  C118  A    
Cu12  O35   S    
O59   C177  S    
C176  H72   S    
C27   C99   S    
C182  H87   S    
Cu1   O1    S    
C13   C139  A    
C119  Br6   S    
C192  H113  S    
C168  H54   S    
C173  C174  S    
C157  H26   S    
Cu3   O19   S    
C30   C38   A    
C163  H40   S    
C20   Br16  S    
C109  C127  A    
C111  C125  A    
C78   H18   S    
Cu4   O4    S    
C125  C135  A    
C157  C158  S    
C178  H78   S    
C66   H14   S    
C126  C136  A    
C196  H123  S    
C92   C147  S    
Cu9   O37   S    
C82   C98   A    
Cu5   O13   S    
C130  C134  A    
C87   O8    A    
C73   C81   A    
C115  C123  A    
C175  H70   S    
C84   C100  A    
Cu4   Cu7   S    
C92   O32   A    
C127  C136  A    
C186  H99   S    
C112  C120  A    
C27   C35   A    
C171  H60   S    
C168  H52   S    
C21   C29   A    
C23   C31   A    
C16   Br12  S    
C172  H64   S    
C189  H106  S    
C24   C32   A    
C5    C70   S    
C20   C142  A    
Cu8   O32   S    
C146  C154  A    
Cu2   O26   S    
C5    O21   A    
C169  H55   S    
C35   O59   S    
C50   O66   S    
C33   O57   S    
Cu2   O2    S    
C81   H21   S    
C155  O51   S    
C129  C133  A    
C63   C71   A    
C102  O42   A    
C182  H89   S    
C162  H38   S    
C188  H102  S    
C36   C44   A    
C189  C190  S    
C103  O33   A    
C167  H50   S    
C160  H33   S    
C176  H74   S    
C83   H23   S    
Cu11  O41   S    
C68   H16   S    
C8    C71   S    
C48   C96   A    
C16   C138  A    
C8    O24   A    
C122  Br3   S    
C18   Br14  S    
C166  H49   S    
O66   C191  S    
Cu6   O6    S    
C101  O35   A    
C117  C119  A    
C149  C155  A    
C184  H92   S    
Cu11  O36   S    
C90   O1    A    
C21   C93   S    
C78   C94   A    
C23   C95   S    
C118  C120  A    
C121  C123  A    
C191  H110  S    
C49   C97   A    
C21   C42   A    
C85   O6    A    
C116  C130  A    
O57   C173  S    
C125  C127  A    
C24   C43   A    
C105  O45   A    
C54   C104  S    
C10   C138  A    
C187  H100  S    
C194  H117  S    
Cu1   Cu6   S    
C110  C128  A    
C15   C137  A    
C9    C133  A    
C6    C69   S    
Cu1   O17   S    
C180  H82   S    
C69   C77   A    
C45   C93   A    
C71   C79   A    
O67   C193  S    
Cu1   O9    S    
C108  O38   A    
Cu3   O3    S    
C62   C70   A    
O49   C157  S    
C1    C74   S    
C88   O7    A    
C19   C110  A    
C31   O55   S    
C89   O29   A    
C158  H27   S    
C9    C140  A    
C183  H90   S    
C66   C74   A    
C161  H36   S    
C49   C57   A    
C111  C119  A    
O50   C159  S    
C86   O26   A    
Cu7   O15   S    
C174  H68   S    
C52   C60   A    
C59   C67   A    
C53   C61   A    
Cu5   O29   S    
C188  H104  S    
C56   C64   A    
C35   C43   A    
C184  H94   S    
C45   C53   A    
C45   O61   S    
C164  H42   S    
C22   C94   S    
C9    C137  A    
C170  H58   S    
C3    O19   A    
C50   C98   A    
C1    O17   A    
C185  C186  S    
Cu10  O46   S    
C6    O9    A    
Cu8   O16   S    
C194  H119  S    
C7    C72   S    
C52   C100  A    
C36   O60   S    
C166  H47   S    
C25   C38   A    
C179  H81   S    
C46   C94   A    
C27   C40   A    
C24   C96   S    
C102  O36   A    
O53   C165  S    
C80   H20   S    
C1    O14   A    
C11   C141  A    
C28   C36   A    
C195  H120  S    
C2    C73   S    
C67   H15   S    
Cu12  O43   S    
C25   C97   S    
C14   C140  A    
C180  H84   S    
C177  H76   S    
C87   C152  S    
C88   C151  S    
C67   C75   A    
C51   O67   S    
C122  C124  A    
C60   C106  S    
C179  C180  S    
C190  H108  S    
C193  H115  S    
Cu6   O22   S    
C117  Br8   S    
Cu9   O48   S    
C103  O43   A    
C22   C30   A    
C161  C162  S    
C160  H34   S    
C68   C76   A    
C177  C178  S    
C12   C143  A    
C159  H30   S    
O68   C195  S    
C56   C102  S    
C144  C152  A    
C192  H112  S    
C13   Br9   S    
Cu4   O28   S    
C138  C146  A    
C143  C151  A    
C163  H41   S    
C104  O44   A    
C113  C121  A    
Cu10  O38   S    
C181  H85   S    
C12   C136  A    
C164  H44   S    
Cu3   Cu8   S    
C124  Br1   S    
C49   O65   S    
C25   C33   A    
C196  H122  S    
C163  C164  S    
C63   H11   S    
C131  C134  A    
C76   C84   A    
O61   C181  S    
C109  C117  A    
Cu8   O24   S    
C59   C105  S    
C175  H71   S    
C137  C145  A    
C90   C145  S    
C186  H98   S    
C115  C129  A    
C170  H59   S    
C22   C41   A    
C171  H61   S    
C14   C115  A    
C165  H45   S    
O54   C167  S    
C172  H63   S    
C85   C150  S    
C4    C75   S    
Cu2   Cu5   S    
C37   H6    S    
Cu7   O23   S    
C175  C176  S    
C169  H56   S    
C112  C126  A    
C171  C172  S    
C168  H53   S    
C173  H65   S    
C182  H88   S    
C83   C99   A    
C162  H37   S    
Cu6   O14   S    
C167  H51   S    
C74   C82   A    
C185  H95   S    
C176  H73   S    
Cu11  O44   S    
C169  C170  S    
C34   O58   S    
C50   C58   A    
C19   C141  A    
C192  H114  S    
Cu11  Cu12  S    
C118  Br7   S    
C54   C62   A    
C28   C39   A    
C157  H25   S    
C170  H57   S    
C107  O47   A    
C23   C44   A    
C88   O28   A    
C167  C168  S    
C130  C132  A    
C79   C95   A    
C7    O12   A    
C42   H1    S    
C11   C135  A    
C158  H29   S    
C6    O22   A    
C152  C155  A    
C46   C54   A    
Cu1   O25   S    
C151  C156  A    
C18   C111  A    
C156  O52   S    
C191  H111  S    
C196  H124  S    
Cu3   O27   S    
C101  O41   A    
C128  C135  A    
C10   C139  A    
C187  H101  S    
C46   O62   S    
C29   O53   S    
C4    O15   A    
Cu12  O42   S    
O65   C189  S    
C116  C124  A    
C8    O11   A    
C57   C65   A    
C191  C192  S    
Cu4   O12   S    
C185  H96   S    
C26   C37   A    
C41   H2    S    
Cu9   O45   S    
Cu5   O5    S    
C17   C143  A    
C33   C41   A    
C142  C150  A    
C187  C188  S    
C18   C144  A    
C189  H105  S    
Cu10  O47   S    
C44   H3    S    
Cu12  O34   S    
C91   O4    A    
C75   C83   A    
O56   C171  S    
C160  H32   S    
C183  H91   S    
C32   O56   S    
C53   C103  S    
C89   O2    A    
C77   C93   A    
C12   C142  A    
C58   C108  S    
C174  H67   S    
C13   C116  A    
C86   O5    A    
C60   C68   A    
C72   C80   A    
O55   C169  S    
C106  O46   A    
C162  H39   S    
C29   C37   A    
C188  H103  S    
C52   O68   S    
C7    O23   A    
Cu8   O8    S    
C183  C184  S    
Cu2   O18   S    
Cu9   Cu10  S    
C70   C78   A    
C77   H17   S    
O58   C175  S    
C15   Br11  S    
C92   O3    A    
C140  C148  A    
C141  C149  A    
C65   H13   S    
C178  H77   S    
C14   Br10  S    
C139  C147  A    
C79   H19   S    
C3    O16   A    
C105  O39   A    
C90   O30   A    
C184  H93   S    
C64   H12   S    
Cu11  O33   S    
C194  H118  S    
C65   C73   A    
C47   O63   S    
C147  C154  A    
C85   O25   A    
C58   C66   A    
C108  O48   A    
C31   C39   A    
C132  C133  A    
Cu9   O40   S    
C87   O27   A    
C80   C96   A    
C11   C144  A    
C195  H121  S    
C145  C153  A    
C28   C100  S    
C32   C40   A    
C180  H83   S    
C150  C156  A    
C82   H22   S    
C91   C148  S    
C26   C34   A    
C193  H116  S    
C51   C99   A    
C89   C146  S    
Cu4   O20   S    
C2    O18   A    
Cu6   O30   S    
C195  C196  S    
C86   C149  S    
C5    O10   A    
C158  H28   S    
C38   H5    S    
C153  O49   S    
C55   C63   A    
C174  H69   S    
C159  H31   S    
C190  H109  S    
C193  C194  S    
C17   Br13  S    
Cu3   O11   S    
C19   Br15  S    
O52   C163  S    
C15   C114  A    
C2    O13   A    
C126  C128  A    
C3    C76   S    
O64   C187  S    
C154  O50   S    
C26   C98   S    
C57   C107  S    
C181  H86   S    
C164  H43   S    
Cu2   O10   S    
C159  C160  S    
C51   C59   A    
C120  Br5   S    
C17   C112  A    
C47   C55   A    
O63   C185  S    
O51   C161  S    
C178  H79   S    
C61   C69   A    
C48   C56   A    
Cu5   O21   S    
C113  C131  A    
C114  C132  A    
C10   C134  A    
C39   H8    S    
C62   H10   S    
C40   H7    S    
C43   H4    S    
C30   O54   S    
C104  O34   A    
Cu7   O31   S    
C181  C182  S    
O62   C183  S    
C55   C101  S    
C4    O20   A    
C107  O37   A    
C166  H48   S    
C186  H97   S    
C179  H80   S    
C190  H107  S    
C81   C97   A    
C106  O40   A    
C84   H24   S    
C165  H46   S    
C64   C72   A    
C172  H62   S    
C161  H35   S    
Cu7   O7    S    
C20   C109  A    
C114  C122  A    
C177  H75   S    
C148  C153  A    
C48   O64   S    
C47   C95   A    
O60   C179  S    
C91   O31   A    
C123  Br2   S    
C129  C131  A    
