data_mof_unit_30563.cif
_audit_creation_date              2012-12-10T19:08:04-0500
_audit_creation_method            fapswitch 2.2
_symmetry_space_group_name_H-M    P1
_symmetry_Int_Tables_number       1
_space_group_crystal_system       triclinic
_cell_length_a                    9.073291
_cell_length_b                    10.863182
_cell_length_c                    9.556559
_cell_angle_alpha                 89.991855
_cell_angle_beta                  90.105451
_cell_angle_gamma                 90.166502
_cell_volume                      941.934854736

loop_
_atom_site_label
_atom_site_type_symbol
_atom_type_description
_atom_site_fract_x
_atom_site_fract_y
_atom_site_fract_z
_atom_type_partial_charge
C1    C     C_R   0.500226 0.262729 0.499868 0.795516
C2    C     C_R   0.512429 0.935443 0.370963 -0.202077
C3    C     C_R   0.502832 0.869852 0.498232 -0.106350
C4    C     C_R   0.494909 0.937888 0.620729 0.038892
C5    C     C_3   0.479769 0.929940 0.776250 0.241412
C6    C     C_3   0.478518 0.072103 0.775783 -0.517065
C7    C     C_R   0.565770 0.593733 0.073974 0.197463
C8    C     C_R   0.422014 0.414902 0.074233 -0.058456
C9    C     C_R   0.421574 0.415183 0.925425 -0.053767
C10   C     C_R   0.568040 0.592499 0.926825 0.281007
C11   C     C_3   0.727621 0.628093 0.924806 0.151809
C12   C     C_R   0.220710 0.500010 0.499908 0.842583
C13   C     C_3   0.722875 0.632989 0.083676 -0.524849
C14   C     C_R   0.500694 0.737254 0.499836 0.799164
C15   C     C_R   0.779278 0.500141 0.500104 0.843160
C16   C     C_1   0.065548 0.500126 0.499909 -0.181467
C17   C     C_1   0.934419 0.500178 0.500146 -0.170640
C18   C     C_R   0.494354 0.062036 0.620837 0.043880
C19   C     C_R   0.502108 0.130099 0.498264 -0.070159
C20   C     C_R   0.512064 0.064599 0.370981 -0.211092
Cu1   Cu    Cu3+1 0.499990 0.499980 0.640670 0.993959
Cu2   Cu    Cu3+1 0.500010 0.500020 0.359330 0.951187
H1    H     H_    0.794365 0.563470 0.135200 0.244037
H2    H     H_    0.733990 0.727951 0.125761 0.155681
H3    H     H_    0.361199 0.344494 0.129778 0.137042
N1    N     N_R   0.500920 0.500930 0.147930 -0.176234
N2    N     N_R   0.500930 0.500890 0.852020 -0.166180
O1    O     O_R   0.500000 0.319640 0.618810 -0.580322
O2    O     O_R   0.500020 0.319680 0.381230 -0.596104
O3    O     O_R   0.288380 0.499980 0.618770 -0.576684
O4    O     O_R   0.288400 0.500020 0.381190 -0.578190
O5    O     O_R   0.499980 0.680320 0.618770 -0.574395
O6    O     O_R   0.500000 0.680360 0.381190 -0.587097
O7    O     O_R   0.711600 0.499980 0.618810 -0.521875
O8    O     O_R   0.711620 0.500020 0.381230 -0.589672
H4    H     H_    0.519117 0.112378 0.271721 0.166501
H5    H     H_    0.748861 0.718058 0.872769 0.083690
H6    H     H_    0.519727 0.887743 0.271696 0.169889
O9    O     O_3   0.345555 0.876749 0.819193 -0.710857
H7    H     H_    0.264314 0.913402 0.763315 0.332275
H8    H     H_    0.577163 0.888768 0.828709 0.113244
H9    H     H_    0.371526 0.113585 0.806590 0.196703
H10   H     H_    0.577469 0.113845 0.825696 0.186097
H11   H     H_    0.360020 0.345301 0.869646 0.132162
O10   O     O_3   0.817404 0.531969 0.877669 -0.674603
H12   H     H_    0.919358 0.565231 0.877370 0.330781

loop_
_geom_bond_atom_site_label_1
_geom_bond_atom_site_label_2
_ccdc_geom_bond_type
C10   N2    A    
C7    C10   A    
C8    H3    S    
Cu2   O2    S    
C1    O1    A    
C8    N1    A    
Cu1   O3    S    
C2    H6    S    
C15   O7    A    
C19   C20   A    
C7    C13   S    
C4    C18   A    
C14   O6    A    
C1    O2    A    
C2    C3    A    
Cu1   N2    S    
C10   C11   S    
O10   H12   S    
Cu2   O8    S    
C7    N1    A    
C9    N2    A    
C16   C17   T    
C3    C14   S    
C15   O8    A    
Cu1   O1    S    
C6    H10   S    
C5    O9    S    
C12   O4    A    
C6    H9    S    
C5    C6    S    
C6    C18   S    
Cu1   O5    S    
C11   O10   S    
C1    C19   S    
Cu2   O4    S    
C2    C20   A    
C3    C4    A    
C20   H4    S    
C11   C13   S    
C13   H1    S    
C11   H5    S    
C18   C19   A    
Cu2   N1    S    
O9    H7    S    
C15   C17   S    
Cu2   O6    S    
C5    H8    S    
C8    C9    A    
C9    H11   S    
Cu1   O7    S    
C12   O3    A    
Cu1   Cu2   S    
C12   C16   S    
C13   H2    S    
C14   O5    A    
C4    C5    S    
