data_mof_unit_45233.cif
_audit_creation_date              2012-12-10T18:06:42-0500
_audit_creation_method            fapswitch 2.2
_symmetry_space_group_name_H-M    P1
_symmetry_Int_Tables_number       1
_space_group_crystal_system       triclinic
_cell_length_a                    12.794767
_cell_length_b                    12.974036
_cell_length_c                    15.385133
_cell_angle_alpha                 86.470241
_cell_angle_beta                  99.038039
_cell_angle_gamma                 96.672134
_cell_volume                      2502.69362351

loop_
_atom_site_label
_atom_site_type_symbol
_atom_type_description
_atom_site_fract_x
_atom_site_fract_y
_atom_site_fract_z
_atom_type_partial_charge
C1    C     C_R   0.441931 0.308634 0.503334 0.850237
C2    C     C_R   0.467608 0.581350 0.101269 0.092689
C3    C     C_R   0.367309 0.615071 0.066912 0.175694
C4    C     C_R   0.545749 0.579211 0.046193 0.069515
C5    C     C_R   0.514828 0.589913 0.954336 0.071071
C6    C     C_R   0.416733 0.629179 0.921539 -0.228792
C7    C     C_R   0.345026 0.643649 0.977725 -0.234511
C8    C     C_R   0.652557 0.563397 0.079590 -0.232350
C9    C     C_R   0.722229 0.543031 0.023681 -0.237732
C10   C     C_R   0.685905 0.533857 0.934034 0.177621
C11   C     C_R   0.581563 0.556983 0.898866 0.092554
C12   C     C_R   0.436980 0.515481 0.336180 0.837361
C13   C     C_R   0.751071 0.498454 0.879516 -0.206620
C14   C     C_R   0.711714 0.481257 0.791336 -0.188036
C15   C     C_R   0.543305 0.537236 0.810923 -0.260295
C16   C     C_R   0.668873 0.948733 0.383836 -0.239762
C17   C     C_R   0.565936 0.798167 0.442594 -0.159810
C18   C     C_R   0.321535 0.156505 0.542414 -0.172924
C19   C     C_R   0.294900 0.049932 0.548342 -0.152708
C20   C     C_R   0.349943 0.984699 0.508381 -0.173518
C21   C     C_R   0.427292 0.025769 0.455248 0.088222
C22   C     C_R   0.448453 0.134452 0.443787 0.088526
C23   C     C_R   0.550565 0.690994 0.479847 0.883596
C24   C     C_R   0.493949 0.962621 0.422447 0.027750
C25   C     C_R   0.586216 0.008622 0.389552 0.148406
C26   C     C_R   0.593935 0.113699 0.364232 -0.226690
C27   C     C_R   0.520694 0.174872 0.386282 -0.200230
C28   C     C_R   0.477152 0.854993 0.428307 -0.093252
C29   C     C_R   0.662770 0.845373 0.416541 -0.014843
C30   C     C_R   0.401685 0.199069 0.493962 -0.104803
C31   C     C_R   0.146535 0.625724 0.639734 -0.296611
C32   C     C_R   0.754843 0.396715 0.381174 0.024430
C33   C     C_R   0.845425 0.392468 0.344030 -0.262785
C34   C     C_R   0.564432 0.489107 0.663832 0.878030
C35   C     C_R   0.942084 0.437302 0.386349 -0.163994
C36   C     C_R   0.950978 0.480286 0.469974 0.008080
C37   C     C_R   0.854588 0.494587 0.500801 0.195326
C38   C     C_R   0.050830 0.518269 0.519407 -0.050507
C39   C     C_R   0.052338 0.576837 0.594583 0.174495
C40   C     C_R   0.960079 0.590596 0.623819 -0.312632
C41   C     C_R   0.862570 0.558197 0.576143 -0.046976
C42   C     C_R   0.151160 0.499778 0.500862 0.068508
C43   C     C_R   0.240309 0.614838 0.611215 -0.004731
C44   C     C_R   0.407448 0.543723 0.242892 -0.051878
C45   C     C_R   0.606980 0.499666 0.757111 -0.050933
C46   C     C_R   0.289860 0.616823 0.121907 -0.207637
C47   C     C_R   0.310162 0.581972 0.209899 -0.175477
C48   C     C_R   0.483974 0.542190 0.188025 -0.263143
H1    H     H_    0.269851 0.672230 0.950548 0.143741
H2    H     H_    0.831420 0.481912 0.905528 0.136344
H3    H     H_    0.657805 0.148970 0.329931 0.142269
H4    H     H_    0.740525 0.984237 0.359751 0.145771
H5    H     H_    0.283177 0.205225 0.579655 0.161275
H6    H     H_    0.334523 0.902630 0.523878 0.147263
H7    H     H_    0.235933 0.017394 0.588629 0.146213
H8    H     H_    0.525118 0.254835 0.362036 0.160801
H9    H     H_    0.314896 0.651606 0.644449 0.132227
H10   H     H_    0.461935 0.547063 0.784038 0.158924
H11   H     H_    0.965133 0.636207 0.681954 0.150577
H12   H     H_    0.147411 0.672767 0.695785 0.139718
H13   H     H_    0.678660 0.366121 0.346593 0.121413
H14   H     H_    0.006820 0.442930 0.348946 0.150372
H15   H     H_    0.840167 0.358448 0.280756 0.147289
H16   H     H_    0.762915 0.453372 0.750266 0.159054
H17   H     H_    0.802821 0.528830 0.051361 0.146248
H18   H     H_    0.213496 0.644049 0.096665 0.138512
H19   H     H_    0.250179 0.585114 0.251822 0.170674
H20   H     H_    0.555543 0.506944 0.213229 0.160013
H21   H     H_    0.394325 0.650623 0.852772 0.141775
H22   H     H_    0.684252 0.567437 0.148784 0.154815
N1    N     N_R   0.239390 0.551900 0.544730 -0.118440
N2    N     N_R   0.759950 0.448600 0.455730 -0.129070
O1    O     O_R   0.374950 0.371210 0.521360 -0.602883
O2    O     O_R   0.542050 0.338030 0.492790 -0.612066
O3    O     O_R   0.368720 0.526070 0.390200 -0.606272
O4    O     O_R   0.535820 0.492890 0.361630 -0.639679
O5    O     O_R   0.457950 0.661970 0.507210 -0.608363
O6    O     O_R   0.625050 0.628790 0.478640 -0.605778
O7    O     O_R   0.464180 0.507110 0.638370 -0.620184
O8    O     O_R   0.631280 0.473930 0.609800 -0.617258
Zn1   Zn    Zn3+2 0.388420 0.522150 0.519080 0.954346
Zn2   Zn    Zn3+2 0.611580 0.477850 0.480920 0.942402
C49   C     C_1   0.754621 0.790141 0.417532 0.208385
N3    N     N_1   0.828544 0.746440 0.417738 -0.205797
C50   C     C_1   0.370651 0.804836 0.399365 0.205366
N4    N     N_1   0.285934 0.765031 0.376161 -0.203118
C51   C     C_1   0.166753 0.417757 0.446662 0.206268
N5    N     N_1   0.178914 0.351691 0.403147 -0.216799
C52   C     C_1   0.786432 0.617252 0.603535 0.306656
N6    N     N_1   0.733231 0.669782 0.631255 -0.230938

loop_
_geom_bond_atom_site_label_1
_geom_bond_atom_site_label_2
_ccdc_geom_bond_type
C6    H21   S    
C41   C52   S    
C51   N5    T    
C17   C29   A    
C35   C36   A    
C4    C8    A    
C32   N2    A    
C50   N4    T    
C26   C27   A    
C17   C23   S    
C31   C43   A    
C1    O2    A    
C36   C37   A    
C32   H13   S    
C46   H18   S    
C3    C7    A    
C5    C6    A    
C18   C19   A    
O1    Zn1   S    
C42   N1    A    
C18   H5    S    
C34   O8    A    
C11   C15   A    
C19   C20   A    
C8    C9    A    
C18   C30   A    
C9    C10   A    
C44   C47   A    
C40   H11   S    
C21   C22   A    
C37   N2    A    
O2    Zn2   S    
C47   H19   S    
C14   C45   A    
C16   H4    S    
C24   C25   A    
C7    H1    S    
O8    Zn2   S    
O4    Zn2   S    
C39   C40   A    
O7    Zn1   S    
C27   H8    S    
O3    Zn1   S    
C2    C48   A    
C25   C26   A    
C48   H20   S    
C31   H12   S    
C2    C4    A    
C34   O7    A    
O6    Zn2   S    
C49   N3    T    
O5    Zn1   S    
C33   H15   S    
C14   H16   S    
C34   C45   S    
C23   O5    A    
C20   H6    S    
C40   C41   A    
C22   C27   A    
C12   O4    A    
C5    C11   A    
C15   H10   S    
C21   C24   A    
C15   C45   A    
C19   H7    S    
C16   C25   A    
C46   C47   A    
C43   N1    A    
C22   C30   A    
C17   C28   A    
C24   C28   A    
C4    C5    A    
C10   C13   A    
C29   C49   S    
C6    C7    A    
C3    C46   A    
C8    H22   S    
C1    O1    A    
C32   C33   A    
C36   C38   A    
C2    C3    A    
C16   C29   A    
C12   C44   S    
C26   H3    S    
C38   C39   A    
C1    C30   S    
C33   C35   A    
C31   C39   A    
C35   H14   S    
C23   O6    A    
C37   C41   A    
C9    H17   S    
C10   C11   A    
C43   H9    S    
C13   H2    S    
C38   C42   A    
C20   C21   A    
C12   O3    A    
C28   C50   S    
C42   C51   S    
C52   N6    T    
C13   C14   A    
N2    Zn2   S    
C44   C48   A    
N1    Zn1   S    
