data_mof_unit_10563.cif
_audit_creation_date              2012-12-11T14:01:07-0500
_audit_creation_method            fapswitch 2.2
_symmetry_space_group_name_H-M    P1
_symmetry_Int_Tables_number       1
_space_group_crystal_system       triclinic
_cell_length_a                    19.030367
_cell_length_b                    10.968218
_cell_length_c                    18.771602
_cell_angle_alpha                 90.287448
_cell_angle_beta                  89.865592
_cell_angle_gamma                 89.969428
_cell_volume                      3918.12105603

loop_
_atom_site_label
_atom_site_type_symbol
_atom_type_description
_atom_site_fract_x
_atom_site_fract_y
_atom_site_fract_z
_atom_type_partial_charge
C1    C     C_R   0.272445 0.042462 0.853542 0.557610
C2    C     C_R   0.727575 0.042137 0.146467 0.556795
C3    C     C_R   0.772445 0.542462 0.853542 0.557610
C4    C     C_R   0.227575 0.542137 0.146467 0.556795
C5    C     C_R   0.479110 0.050879 0.075535 -0.087729
C6    C     C_R   0.504718 0.059775 0.929448 -0.081792
C7    C     C_R   0.979110 0.550879 0.075535 -0.087729
C8    C     C_R   0.004718 0.559775 0.929448 -0.081792
C9    C     C_R   0.978886 0.662513 0.040374 -0.127083
C10   C     C_R   0.993889 0.667264 0.967918 -0.125685
C11   C     C_R   0.478886 0.162513 0.040374 -0.127083
C12   C     C_R   0.493890 0.167264 0.967918 -0.125685
C13   C     C_2   0.248813 0.580075 0.920457 -0.111580
C14   C     C_2   0.751127 0.579304 0.079421 -0.111493
C15   C     C_2   0.748813 0.080075 0.920457 -0.111580
C16   C     C_2   0.251127 0.079304 0.079421 -0.111493
C17   C     C_2   0.250188 0.586286 0.077133 -0.106403
C18   C     C_2   0.749911 0.586926 0.923044 -0.106404
C19   C     C_2   0.750188 0.086285 0.077133 -0.106403
C20   C     C_2   0.249911 0.086926 0.923044 -0.106404
C21   C     C_2   0.294433 0.519906 0.036801 -0.164733
C22   C     C_2   0.705185 0.521069 0.962693 -0.166204
C23   C     C_2   0.794433 0.019906 0.036801 -0.164733
C24   C     C_2   0.205185 0.021069 0.962693 -0.166204
C25   C     C_2   0.303341 0.545039 0.960830 -0.161728
C26   C     C_2   0.696452 0.545339 0.038840 -0.161569
C27   C     C_2   0.803341 0.045039 0.960830 -0.161728
C28   C     C_2   0.196452 0.045339 0.038840 -0.161569
C29   C     C_2   0.485888 0.828661 0.571385 -0.102779
C30   C     C_2   0.487396 0.840176 0.415454 -0.115943
C31   C     C_2   0.985888 0.328661 0.571385 -0.102780
C32   C     C_2   0.987396 0.340176 0.415454 -0.115943
C33   C     C_2   0.467266 0.742522 0.451906 -0.146944
C34   C     C_2   0.452815 0.749729 0.527602 -0.138016
C35   C     C_2   0.967267 0.242522 0.451906 -0.146944
C36   C     C_2   0.952815 0.249728 0.527602 -0.138016
C37   C     C_2   0.246354 0.563497 0.583718 0.353031
C38   C     C_2   0.753890 0.564001 0.415911 0.360820
C39   C     C_2   0.746354 0.063497 0.583718 0.353031
C40   C     C_2   0.253890 0.064001 0.415911 0.360820
C41   C     C_2   0.238218 0.572194 0.427142 -0.028846
C42   C     C_2   0.761676 0.571018 0.572805 -0.030340
C43   C     C_2   0.738218 0.072194 0.427142 -0.028846
C44   C     C_2   0.261676 0.071018 0.572805 -0.030340
C45   C     C_R   0.471899 0.822762 0.852829 0.539067
C46   C     C_R   0.528871 0.821751 0.146623 0.534000
C47   C     C_R   0.971899 0.322762 0.852829 0.539067
C48   C     C_R   0.028871 0.321751 0.146623 0.534000
C49   C     C_2   0.183483 0.556839 0.471705 -0.094140
C50   C     C_2   0.816584 0.557506 0.528129 -0.097684
C51   C     C_2   0.683483 0.056839 0.471705 -0.094140
C52   C     C_2   0.316584 0.057506 0.528129 -0.097684
C53   C     C_2   0.188052 0.585468 0.546750 -0.121992
C54   C     C_2   0.811911 0.586802 0.453290 -0.121780
C55   C     C_2   0.688052 0.085468 0.546750 -0.121992
C56   C     C_2   0.311911 0.086802 0.453290 -0.121780
C57   C     C_R   0.260909 0.636324 0.851429 0.549411
C58   C     C_R   0.739128 0.635911 0.148608 0.547317
C59   C     C_R   0.760909 0.136324 0.851429 0.549411
C60   C     C_R   0.239129 0.135911 0.148608 0.547317
C61   C     C_R   0.273715 0.042931 0.646637 0.541023
C62   C     C_R   0.726385 0.043607 0.353245 0.541081
C63   C     C_R   0.773715 0.542931 0.646637 0.541023
C64   C     C_R   0.226385 0.543607 0.353245 0.541081
C65   C     C_R   0.467966 0.823110 0.646111 0.544313
C66   C     C_R   0.527605 0.824807 0.350624 0.551426
C67   C     C_R   0.967966 0.323110 0.646111 0.544313
C68   C     C_R   0.027605 0.324807 0.350624 0.551427
C69   C     C_R   0.260089 0.633902 0.647387 0.567644
C70   C     C_R   0.739981 0.634098 0.352502 0.573604
C71   C     C_R   0.760089 0.133902 0.647387 0.567644
C72   C     C_R   0.239981 0.134098 0.352502 0.573604
C73   C     C_R   0.502901 0.828554 0.073512 0.003540
C74   C     C_R   0.501610 0.833032 0.924448 -0.001257
C75   C     C_R   0.002901 0.328555 0.073512 0.003540
C76   C     C_R   0.001610 0.333032 0.924448 -0.001257
C77   C     C_R   0.493968 0.941478 0.038247 0.024609
C78   C     C_R   0.500335 0.944892 0.963124 0.025482
C79   C     C_R   0.993968 0.441478 0.038247 0.024609
C80   C     C_R   0.000335 0.444892 0.963124 0.025482
C81   C     C_R   0.509430 0.723103 0.960805 -0.153900
C82   C     C_R   0.508377 0.720592 0.033637 -0.150145
C83   C     C_R   0.009430 0.223103 0.960805 -0.153900
C84   C     C_R   0.008377 0.220592 0.033637 -0.150145
Cr1   Cr    Cr6+3 0.230530 0.836340 0.748870 1.028553
Cr2   Cr    Cr6+3 0.769470 0.836340 0.251130 1.025534
Cr3   Cr    Cr6+3 0.730530 0.336340 0.748870 1.028553
Cr4   Cr    Cr6+3 0.269470 0.336340 0.251130 1.025534
Cr5   Cr    Cr6+3 0.387420 0.989430 0.750820 1.025618
Cr6   Cr    Cr6+3 0.612580 0.989430 0.249180 1.027655
Cr7   Cr    Cr6+3 0.887420 0.489430 0.750820 1.025618
Cr8   Cr    Cr6+3 0.112580 0.489430 0.249180 1.027655
Cr9   Cr    Cr6+3 0.385640 0.677860 0.749230 1.049270
Cr10  Cr    Cr6+3 0.614360 0.677860 0.250770 1.052566
Cr11  Cr    Cr6+3 0.885640 0.177860 0.749230 1.049270
Cr12  Cr    Cr6+3 0.114360 0.177860 0.250770 1.052566
H1    H     H_    0.512347 0.636416 0.932963 0.137819
H2    H     H_    0.514989 0.632437 0.058541 0.137147
H3    H     H_    0.012347 0.136415 0.932963 0.137819
H4    H     H_    0.014989 0.132437 0.058541 0.137147
H5    H     H_    0.131723 0.532357 0.451765 0.136042
H6    H     H_    0.868554 0.534399 0.547938 0.140047
H7    H     H_    0.631723 0.032357 0.451765 0.136042
H8    H     H_    0.368554 0.034399 0.547938 0.140047
H9    H     H_    0.144536 0.636665 0.569623 0.116465
H10   H     H_    0.855153 0.638879 0.430935 0.115470
H11   H     H_    0.644536 0.136665 0.569623 0.116465
H12   H     H_    0.355153 0.138879 0.430935 0.115470
H13   H     H_    0.290343 0.597755 0.445237 0.147710
H14   H     H_    0.709333 0.595179 0.554848 0.160506
H15   H     H_    0.790343 0.097755 0.445237 0.147711
H16   H     H_    0.209333 0.095179 0.554848 0.160506
H17   H     H_    0.466167 0.050978 0.131657 0.128903
H18   H     H_    0.518223 0.068055 0.873722 0.132262
H19   H     H_    0.966167 0.550978 0.131657 0.128903
H20   H     H_    0.018223 0.568055 0.873722 0.132262
H21   H     H_    0.968200 0.745756 0.069688 0.110853
H22   H     H_    0.996326 0.754427 0.941223 0.107873
H23   H     H_    0.468200 0.245756 0.069688 0.110853
H24   H     H_    0.496326 0.254427 0.941223 0.107873
H25   H     H_    0.323610 0.443944 0.059007 0.152358
H26   H     H_    0.675554 0.445911 0.939807 0.153360
H27   H     H_    0.823610 0.943944 0.059007 0.152358
H28   H     H_    0.175554 0.945911 0.939807 0.153360
H29   H     H_    0.356015 0.537770 0.938768 0.154595
H30   H     H_    0.643790 0.538483 0.060878 0.150745
H31   H     H_    0.856015 0.037770 0.938768 0.154595
H32   H     H_    0.143789 0.038483 0.060878 0.150745
H33   H     H_    0.222735 0.664188 0.054871 0.113459
H34   H     H_    0.777767 0.664181 0.945954 0.113553
H35   H     H_    0.722735 0.164188 0.054871 0.113460
H36   H     H_    0.277767 0.164181 0.945954 0.113553
H37   H     H_    0.195978 0.583647 0.942530 0.112079
H38   H     H_    0.803974 0.582360 0.057368 0.113615
H39   H     H_    0.695978 0.083647 0.942530 0.112079
H40   H     H_    0.303974 0.082360 0.057368 0.113615
H41   H     H_    0.467248 0.652265 0.427751 0.174269
H42   H     H_    0.417643 0.680472 0.548604 0.193538
H43   H     H_    0.967248 0.152264 0.427751 0.174269
H44   H     H_    0.917644 0.180471 0.548604 0.193538
H45   H     H_    0.483303 0.931149 0.438352 0.097215
H46   H     H_    0.521003 0.899287 0.552205 0.087986
H47   H     H_    0.983302 0.431149 0.438352 0.097215
H48   H     H_    0.021003 0.399287 0.552205 0.087986
O1    O     O_R   0.215090 0.709860 0.828130 -0.523566
O2    O     O_R   0.784910 0.709860 0.171870 -0.525146
O3    O     O_R   0.715090 0.209860 0.828130 -0.523566
O4    O     O_R   0.284910 0.209860 0.171870 -0.525146
O5    O     O_R   0.445660 0.919250 0.676780 -0.506227
O6    O     O_R   0.554340 0.919250 0.323220 -0.509898
O7    O     O_R   0.945660 0.419250 0.676780 -0.506227
O8    O     O_R   0.054340 0.419250 0.323220 -0.509899
O9    O     O_R   0.456260 0.718170 0.670000 -0.500869
O10   O     O_R   0.543740 0.718170 0.330000 -0.497621
O11   O     O_R   0.956260 0.218170 0.670000 -0.500869
O12   O     O_R   0.043740 0.218170 0.330000 -0.497622
O13   O     O_R   0.320940 0.626760 0.674370 -0.464668
O14   O     O_R   0.679060 0.626760 0.325630 -0.452256
O15   O     O_R   0.820940 0.126760 0.674370 -0.464668
O16   O     O_R   0.179060 0.126760 0.325630 -0.452257
O17   O     O_3   0.334530 0.834540 0.749640 -0.257134
O18   O     O_3   0.665470 0.834540 0.250360 -0.255119
O19   O     O_3   0.834530 0.334540 0.749640 -0.257134
O20   O     O_3   0.165470 0.334540 0.250360 -0.255119
O21   O     O_R   0.236990 0.958390 0.823710 -0.498502
O22   O     O_R   0.763010 0.958390 0.176290 -0.499228
O23   O     O_R   0.736990 0.458390 0.823710 -0.498502
O24   O     O_R   0.263010 0.458390 0.176290 -0.499228
O25   O     O_R   0.332380 0.074750 0.830850 -0.509080
O26   O     O_R   0.667620 0.074750 0.169150 -0.507751
O27   O     O_R   0.832380 0.574750 0.830850 -0.509080
O28   O     O_R   0.167620 0.574750 0.169150 -0.507751
O29   O     O_R   0.445800 0.917770 0.825070 -0.509023
O30   O     O_R   0.554200 0.917770 0.174930 -0.507325
O31   O     O_R   0.945800 0.417770 0.825070 -0.509023
O32   O     O_R   0.054200 0.417770 0.174930 -0.507325
O33   O     O_R   0.456410 0.716580 0.829970 -0.522853
O34   O     O_R   0.543590 0.716580 0.170030 -0.527874
O35   O     O_R   0.956410 0.216580 0.829970 -0.522853
O36   O     O_R   0.043590 0.216580 0.170030 -0.527874
O37   O     O_R   0.321080 0.625290 0.822650 -0.497948
O38   O     O_R   0.678920 0.625290 0.177350 -0.499753
O39   O     O_R   0.821080 0.125290 0.822650 -0.497948
O40   O     O_R   0.178920 0.125290 0.177350 -0.499753
O41   O     O_R   0.214930 0.711450 0.668160 -0.548163
O42   O     O_R   0.785070 0.711450 0.331840 -0.551580
O43   O     O_R   0.714930 0.211450 0.668160 -0.548163
O44   O     O_R   0.285070 0.211450 0.331840 -0.551580
O45   O     O_R   0.236850 0.959870 0.675420 -0.486811
O46   O     O_R   0.763150 0.959870 0.324580 -0.488470
O47   O     O_R   0.736850 0.459870 0.675420 -0.486811
O48   O     O_R   0.263150 0.459870 0.324580 -0.488470
O49   O     O_R   0.332230 0.076350 0.670880 -0.508152
O50   O     O_R   0.667770 0.076350 0.329120 -0.507248
O51   O     O_R   0.832230 0.576350 0.670880 -0.508152
O52   O     O_R   0.167770 0.576350 0.329120 -0.507249
F1    F     F_    0.297634 0.488552 0.557811 -0.650140
F2    F     F_    0.703017 0.488038 0.441076 -0.639261
F3    F     F_    0.797634 0.988552 0.557811 -0.650140
F4    F     F_    0.203017 0.988038 0.441076 -0.639261

loop_
_geom_bond_atom_site_label_1
_geom_bond_atom_site_label_2
_ccdc_geom_bond_type
C16   C28   D    
C69   O41   A    
Cr3   O19   S    
C38   C70   S    
C60   O40   A    
C37   C69   S    
C9    H21   S    
C46   O34   A    
C35   C36   S    
Cr2   O22   S    
C53   H9    S    
Cr5   O29   S    
Cr6   O6    S    
C11   H23   S    
Cr10  O38   S    
C57   O37   A    
C81   C82   A    
C3    O23   A    
C62   O46   A    
C77   C78   A    
Cr8   O32   S    
C31   C67   S    
C50   C54   S    
C30   H45   S    
Cr3   O3    S    
Cr6   O18   S    
Cr11  O15   S    
C7    C79   A    
Cr1   O1    S    
C47   C76   S    
C66   O6    A    
C45   O29   A    
C31   C36   D    
C16   C60   S    
C49   C53   S    
C75   C84   A    
C6    C78   A    
C15   H39   S    
C51   H7    S    
C24   H28   S    
Cr1   O17   S    
C3    C18   S    
C67   O11   A    
C26   H30   S    
C7    H19   S    
C31   H48   S    
C25   H29   S    
C6    H18   S    
C32   H47   S    
C65   O9    A    
C35   H43   S    
C12   H24   S    
C27   H31   S    
C41   C49   D    
C39   C55   D    
C20   C24   D    
C33   H41   S    
C40   C56   D    
Cr6   O50   S    
Cr8   O8    S    
C69   O13   A    
C38   F2    S    
Cr2   O18   S    
C37   F1    S    
C4    O28   A    
C9    C10   A    
Cr10  O18   S    
C51   C55   S    
C30   C33   D    
C45   O33   A    
C32   C68   S    
C37   C53   D    
Cr8   O20   S    
Cr5   O5    S    
C28   H32   S    
Cr10  O14   S    
C41   H13   S    
C61   O45   A    
C82   H2    S    
C48   C75   S    
Cr7   O19   S    
Cr9   O37   S    
Cr12  O40   S    
Cr2   O2    S    
C76   C83   A    
Cr5   O17   S    
C64   O48   A    
C22   H26   S    
C7    C9    A    
C19   H35   S    
C14   C58   S    
Cr3   O23   S    
Cr2   O46   S    
C54   H10   S    
C67   O7    A    
C84   H4    S    
C32   C35   D    
C76   C80   A    
C21   C25   S    
C66   O10   A    
Cr9   O33   S    
Cr3   O43   S    
C14   H38   S    
Cr4   O24   S    
Cr4   O20   S    
C17   H33   S    
C29   C34   D    
C34   H42   S    
C14   C26   D    
C4    O24   A    
C55   H11   S    
C45   C74   S    
C70   O14   A    
C20   H36   S    
C19   C23   D    
C68   O8    A    
Cr11  O19   S    
C10   H22   S    
Cr7   O51   S    
C57   O1    A    
C15   C27   D    
C83   C84   A    
C38   C54   D    
Cr9   O17   S    
Cr10  O10   S    
Cr5   O49   S    
Cr6   O26   S    
C46   O30   A    
C33   C34   S    
Cr4   O4    S    
Cr7   O31   S    
Cr12  O36   S    
Cr9   O13   S    
C36   H44   S    
C30   C66   S    
C47   O35   A    
C42   C50   D    
C29   C65   S    
C4    C17   S    
C44   H16   S    
Cr11  O35   S    
Cr12  O16   S    
C2    O26   A    
C50   H6    S    
C23   C27   S    
C3    O27   A    
C5    C11   A    
C72   O44   A    
C63   O51   A    
C18   H34   S    
C75   C79   A    
C62   O50   A    
C74   C81   A    
C5    C77   A    
C16   H40   S    
C6    C12   A    
C61   O49   A    
C73   C82   A    
C48   O36   A    
C71   O15   A    
Cr3   O47   S    
Cr4   O48   S    
C39   F3    S    
C52   H8    S    
C1    C20   S    
C39   C71   S    
C40   C72   S    
Cr11  O39   S    
C5    H17   S    
C2    C19   S    
C18   C22   D    
C13   H37   S    
C1    O21   A    
C24   C28   S    
C71   O43   A    
Cr8   O52   S    
C68   O12   A    
Cr10  O34   S    
C44   C52   D    
C23   H27   S    
C11   C12   A    
C58   O2    A    
Cr2   O42   S    
C44   C61   S    
C40   F4    S    
Cr6   O30   S    
C72   O16   A    
Cr7   O27   S    
C58   O38   A    
Cr1   O21   S    
Cr7   O7    S    
Cr9   O9    S    
C42   H14   S    
C70   O42   A    
Cr5   O25   S    
Cr1   O41   S    
C49   H5    S    
C43   C51   D    
Cr12  O12   S    
C81   H1    S    
C13   C25   D    
Cr8   O28   S    
C63   O47   A    
C29   H46   S    
C64   O52   A    
C1    O25   A    
C2    O22   A    
Cr11  O11   S    
C65   O5    A    
C15   C59   S    
C8    H20   S    
C22   C26   S    
C79   C80   A    
C43   H15   S    
Cr12  O20   S    
Cr4   O44   S    
C13   C57   S    
C73   C77   A    
C8    C10   A    
C74   C78   A    
C8    C80   A    
C56   H12   S    
C59   O39   A    
C21   H25   S    
C83   H3    S    
C60   O4    A    
C41   C64   S    
Cr1   O45   S    
C42   C63   S    
C46   C73   S    
C47   O31   A    
C52   C56   S    
C43   C62   S    
C59   O3    A    
C48   O32   A    
C17   C21   D    
