data_mof_unit_48518.cif
_audit_creation_date              2012-12-10T20:30:15-0500
_audit_creation_method            fapswitch 2.2
_symmetry_space_group_name_H-M    P1
_symmetry_Int_Tables_number       1
_space_group_crystal_system       triclinic
_cell_length_a                    9.908654
_cell_length_b                    10.683325
_cell_length_c                    13.105926
_cell_angle_alpha                 90.092993
_cell_angle_beta                  71.503429
_cell_angle_gamma                 90.031871
_cell_volume                      1315.68984464

loop_
_atom_site_label
_atom_site_type_symbol
_atom_type_description
_atom_site_fract_x
_atom_site_fract_y
_atom_site_fract_z
_atom_type_partial_charge
C1    C     C_R   0.502459 0.739804 0.494580 0.906917
C2    C     C_R   0.368635 0.494416 0.819866 -0.109552
C3    C     C_R   0.383463 0.936053 0.488716 -0.000613
C4    C     C_R   0.421118 0.502352 0.703469 0.856241
C5    C     C_R   0.509687 0.871364 0.475987 -0.183354
C6    C     C_R   0.640971 0.936122 0.444720 0.546597
C7    C     C_R   0.637827 0.066891 0.445552 -0.352568
C8    C     C_R   0.506570 0.128860 0.481349 -0.134142
C9    C     C_R   0.381604 0.063200 0.493310 0.022701
C10   C     C_3   0.239531 0.067300 0.579068 0.408455
C11   C     C_3   0.240938 0.925126 0.572768 -0.525471
C12   C     C_R   0.425355 0.508556 0.985413 0.118731
C13   C     C_R   0.890615 0.511727 0.593666 0.193192
C14   C     C_R   0.964795 0.468632 0.410330 -0.212931
C15   C     C_R   0.108293 0.463189 0.411292 0.563504
C16   C     C_R   0.501049 0.260202 0.497290 0.943210
C17   C     C_R   0.032320 0.513747 0.593338 0.103345
C18   C     C_3   0.006400 0.619026 0.671117 -0.492371
C19   C     C_3   0.852078 0.615036 0.673678 -0.491452
C20   C     C_R   0.577992 0.504175 0.296620 0.910424
C21   C     C_R   0.710126 0.693439 0.046846 -0.297270
C22   C     C_R   0.620543 0.535264 0.183358 -0.199628
C23   C     C_R   0.439643 0.555763 0.882422 0.081730
C24   C     C_R   0.258782 0.409624 0.867359 -0.172251
C25   C     C_R   0.229018 0.376782 0.974542 -0.151602
C26   C     C_R   0.314323 0.422389 0.032458 -0.177157
C27   C     C_3   0.113162 0.124274 0.752194 -0.330181
C28   C     C_3   0.201692 0.287135 0.320515 -0.376983
C29   C     C_3   0.856717 0.904461 0.472426 -0.270180
C30   C     C_R   0.523647 0.548665 0.036383 0.090510
C31   C     C_R   0.614477 0.651980 0.994755 0.076664
C32   C     C_R   0.607809 0.712294 0.902110 -0.218200
C33   C     C_R   0.524444 0.662212 0.844342 -0.229198
C34   C     C_R   0.535797 0.487045 0.126580 -0.317353
C35   C     C_R   0.711608 0.636546 0.142255 0.631817
F1    F     F_    0.792717 0.686417 0.198334 -0.633366
H1    H     H_    0.736458 0.119246 0.422937 0.173267
H2    H     H_    0.815446 0.700947 0.642718 0.205075
H3    H     H_    0.779251 0.772752 0.016154 0.167359
H4    H     H_    0.474470 0.404307 0.158212 0.181058
H5    H     H_    0.199844 0.365418 0.820336 0.164144
H6    H     H_    0.288658 0.391770 0.114379 0.182863
H7    H     H_    0.144109 0.311343 0.011372 0.142607
H8    H     H_    0.527794 0.706261 0.769179 0.148194
H9    H     H_    0.050707 0.036062 0.760331 0.160127
H10   H     H_    0.055379 0.202993 0.729139 0.155821
H11   H     H_    0.122928 0.145793 0.832353 0.189168
H12   H     H_    0.156705 0.113333 0.551045 0.042224
H13   H     H_    0.198428 0.244593 0.398725 0.166371
H14   H     H_    0.106751 0.258025 0.298361 0.153312
H15   H     H_    0.297265 0.249073 0.258737 0.181800
H16   H     H_    0.937376 0.829757 0.463786 0.191979
H17   H     H_    0.796160 0.912736 0.559804 0.125490
H18   H     H_    0.915116 0.992588 0.442141 0.142818
H19   H     H_    0.245842 0.877623 0.647019 0.214739
H20   H     H_    0.159514 0.888023 0.538741 0.153498
H21   H     H_    0.940667 0.445263 0.337668 0.181627
H22   H     H_    0.021184 0.590971 0.748541 0.211151
H23   H     H_    0.062633 0.705697 0.634702 0.205130
H24   H     H_    0.781841 0.578521 0.751148 0.224619
H25   H     H_    0.673733 0.793248 0.870568 0.151229
N1    N     N_R   0.856940 0.500860 0.500710 -0.123666
N2    N     N_R   0.142580 0.500820 0.500710 -0.150573
O1    O     O_R   0.385310 0.683210 0.499990 -0.621596
O2    O     O_3   0.212667 0.418843 0.322060 -0.586641
O3    O     O_3   0.768849 0.870985 0.410341 -0.533649
O4    O     O_R   0.614650 0.683240 0.500000 -0.561451
O5    O     O_R   0.328390 0.499940 0.653610 -0.614426
O6    O     O_R   0.557730 0.499980 0.653620 -0.611575
O7    O     O_R   0.385350 0.316760 0.500000 -0.614128
O8    O     O_R   0.614690 0.316790 0.500010 -0.634075
O9    O     O_R   0.442270 0.500020 0.346380 -0.553187
O10   O     O_R   0.671610 0.500060 0.346390 -0.581460
O11   O     O_3   0.250819 0.111687 0.677666 -0.577804
Zn1   Zn    Zn3+2 0.346870 0.499980 0.499990 0.982732
Zn2   Zn    Zn3+2 0.653130 0.500020 0.500010 0.987612

loop_
_geom_bond_atom_site_label_1
_geom_bond_atom_site_label_2
_ccdc_geom_bond_type
C35   F1    S    
C25   H7    S    
C7    C8    A    
O5    Zn1   S    
C22   C35   A    
C21   C31   A    
C12   C23   A    
N2    Zn1   S    
C1    C5    S    
C32   H25   S    
O8    Zn2   S    
C28   H15   S    
C29   H18   S    
C14   N1    A    
O6    Zn2   S    
C18   C19   S    
C28   H14   S    
C18   H22   S    
C13   N1    A    
C8    C9    A    
C23   C33   A    
C27   O11   S    
C9    C10   S    
C27   H9    S    
C8    C16   S    
C24   H5    S    
N1    Zn2   S    
C16   O8    A    
O9    Zn1   S    
C4    O6    A    
C22   C34   A    
C30   C34   A    
C16   O7    A    
C24   C25   A    
C4    O5    A    
C13   C19   S    
C25   C26   A    
C12   C26   A    
C2    C4    S    
C3    C9    A    
C19   H2    S    
C28   H13   S    
C31   C32   A    
C21   H3    S    
C30   C31   A    
C17   C18   S    
C7    H1    S    
C27   H10   S    
C20   C22   S    
C2    C24   A    
O10   Zn2   S    
C34   H4    S    
C1    O1    A    
O7    Zn1   S    
C11   H19   S    
C26   H6    S    
C27   H11   S    
C14   H21   S    
C12   C30   A    
C33   H8    S    
C3    C5    A    
C6    C7    A    
C21   C35   A    
C19   H24   S    
C13   C17   A    
C32   C33   A    
C28   O2    S    
C17   N2    A    
C10   H12   S    
C10   O11   S    
C5    C6    A    
C29   H17   S    
C1    O4    A    
O1    Zn1   S    
C20   O10   A    
C3    C11   S    
C10   C11   S    
C29   O3    S    
C18   H23   S    
C6    O3    S    
C2    C23   A    
C15   N2    A    
C14   C15   A    
C20   O9    A    
O4    Zn2   S    
C11   H20   S    
C29   H16   S    
C15   O2    S    
