data_mof_unit_13923.cif
_audit_creation_date              2012-12-11T15:48:46-0500
_audit_creation_method            fapswitch 2.2
_symmetry_space_group_name_H-M    P1
_symmetry_Int_Tables_number       1
_space_group_crystal_system       triclinic
_cell_length_a                    10.995585
_cell_length_b                    10.941023
_cell_length_c                    18.758958
_cell_angle_alpha                 90.435284
_cell_angle_beta                  89.762367
_cell_angle_gamma                 60.114139
_cell_volume                      1956.51531562

loop_
_atom_site_label
_atom_site_type_symbol
_atom_type_description
_atom_site_fract_x
_atom_site_fract_y
_atom_site_fract_z
_atom_type_partial_charge
C1    C     C_R   0.294258 0.621398 0.615562 0.580033
C2    C     C_3   0.647155 0.569034 0.799972 -0.262271
C3    C     C_3   0.699475 0.674022 0.811684 0.023166
C4    C     C_3   0.670133 0.650779 0.675186 0.055966
C5    C     C_3   0.821884 0.618686 0.689441 0.100856
C6    C     C_3   0.643907 0.545154 0.719343 -0.262713
C7    C     C_R   0.681605 0.154635 0.822909 0.014913
C8    C     C_R   0.777005 0.178669 0.785047 -0.012063
C9    C     C_R   0.769537 0.190419 0.711171 0.001313
C10   C     C_R   0.576917 0.145731 0.710607 -0.164172
C11   C     C_R   0.573235 0.151971 0.783861 -0.173852
C12   C     C_R   0.653737 0.623537 0.600254 0.602394
C13   C     C_3   0.932642 0.102694 0.784975 -0.276994
C14   C     C_3   0.925822 0.117376 0.704386 -0.272977
C15   C     C_R   0.672629 0.168363 0.672640 0.059447
C16   C     C_R   0.213687 0.657503 0.842285 0.020560
C17   C     C_R   0.260801 0.527749 0.807379 0.013241
C18   C     C_R   0.284999 0.515375 0.733933 0.025914
C19   C     C_R   0.253072 0.748378 0.731656 -0.145547
C20   C     C_R   0.231843 0.759231 0.805401 -0.166798
C21   C     C_3   0.206407 0.428211 0.807320 -0.286774
C22   C     C_3   0.221613 0.422690 0.726533 -0.252379
C23   C     C_R   0.629787 0.226361 0.601868 0.570924
C24   C     C_R   0.269475 0.629855 0.693454 0.064009
C25   C     C_R   0.654459 0.657456 0.165572 0.001967
C26   C     C_R   0.756629 0.539913 0.202778 0.068035
C27   C     C_R   0.749734 0.533014 0.275413 -0.005738
C28   C     C_R   0.527341 0.747757 0.277372 -0.162685
C29   C     C_R   0.532745 0.755051 0.202646 -0.178873
C30   C     C_3   0.913017 0.480476 0.206408 0.035352
C31   C     C_3   0.903407 0.469283 0.285972 -0.246827
C32   C     C_R   0.642579 0.641466 0.314491 0.008404
C33   C     C_R   0.632492 0.190172 0.168517 0.016553
C34   C     C_R   0.220980 0.648844 0.402038 0.585097
C35   C     C_R   0.519274 0.200371 0.207720 0.020240
C36   C     C_R   0.517286 0.211878 0.280456 0.023823
C37   C     C_R   0.724138 0.233834 0.276472 -0.157496
C38   C     C_R   0.724939 0.224633 0.202188 -0.157463
C39   C     C_3   0.459541 0.103754 0.211102 -0.263392
C40   C     C_3   0.456116 0.118707 0.291322 -0.277923
C41   C     C_R   0.626905 0.213792 0.316374 0.018735
C42   C     C_R   0.120648 0.689164 0.188098 0.014085
C43   C     C_R   0.067287 0.809410 0.231781 0.025651
C44   C     C_R   0.080341 0.800218 0.304195 0.012965
C45   C     C_R   0.638881 0.619462 0.390472 0.567463
C46   C     C_R   0.184060 0.547098 0.293254 -0.164447
C47   C     C_R   0.171370 0.557490 0.219413 -0.180267
C48   C     C_3   0.090793 0.932404 0.228510 -0.238911
C49   C     C_3   0.100730 0.925802 0.308797 -0.266460
C50   C     C_R   0.150870 0.667955 0.335264 0.023513
C51   C     C_R   0.702171 0.100218 0.895487 0.542461
C52   C     C_R   0.723516 0.687648 0.888142 0.543181
C53   C     C_R   0.123118 0.704095 0.906859 0.538016
C54   C     C_R   0.672229 0.111729 0.102215 0.547005
C55   C     C_R   0.695206 0.688280 0.096828 0.539983
C56   C     C_R   0.612289 0.238067 0.392337 0.557437
C57   C     C_R   0.090326 0.711324 0.113503 0.542065
C58   C     C_3   0.590490 0.818442 0.779851 -0.241450
C59   C     C_3   0.562777 0.801550 0.701377 -0.230945
C60   C     C_3   0.840820 0.620316 0.770707 -0.222832
Cr1   Cr    Cr6+3 0.392960 0.397920 0.502240 1.046312
Cr2   Cr    Cr6+3 0.398340 0.708480 0.501250 1.022964
Cr3   Cr    Cr6+3 0.708670 0.393570 0.496460 1.025352
Cr4   Cr    Cr6+3 0.937650 0.938540 0.007610 1.039235
Cr5   Cr    Cr6+3 0.625330 0.937370 0.994520 1.014481
Cr6   Cr    Cr6+3 0.937940 0.625230 0.001190 1.048412
H1    H     H_    0.633871 0.890245 0.783597 0.140843
H2    H     H_    0.728108 0.437089 0.706181 0.138216
H3    H     H_    0.909541 0.509054 0.786449 0.092283
H4    H     H_    0.895314 0.508785 0.671029 0.117925
H5    H     H_    0.500035 0.128551 0.683469 0.131682
H6    H     H_    0.493360 0.136280 0.808847 0.137994
H7    H     H_    0.975683 0.992576 0.802785 0.175930
H8    H     H_    0.975186 0.164167 0.811823 0.133427
H9    H     H_    0.962195 0.189676 0.685010 0.128229
H10   H     H_    0.971187 0.015618 0.674819 0.207959
H11   H     H_    0.247174 0.837692 0.704301 0.126235
H12   H     H_    0.489618 0.866354 0.810192 0.127760
H13   H     H_    0.212094 0.856291 0.831261 0.131472
H14   H     H_    0.099153 0.476594 0.828462 0.161252
H15   H     H_    0.279677 0.327818 0.833568 0.133715
H16   H     H_    0.294901 0.316520 0.705407 0.131026
H17   H     H_    0.119900 0.475511 0.698891 0.189999
H18   H     H_    0.436969 0.827998 0.306014 0.129566
H19   H     H_    0.448416 0.842756 0.175159 0.131163
H20   H     H_    0.942302 0.559876 0.191204 0.164692
H21   H     H_    0.952193 0.359391 0.305596 0.166856
H22   H     H_    0.455315 0.818928 0.696410 0.114836
H23   H     H_    0.930650 0.539552 0.316632 0.132133
H24   H     H_    0.801985 0.251226 0.302349 0.146059
H25   H     H_    0.805985 0.229440 0.171899 0.182839
H26   H     H_    0.536249 0.995788 0.192517 0.165072
H27   H     H_    0.353637 0.150677 0.187073 0.183028
H28   H     H_    0.347935 0.176714 0.313816 0.148240
H29   H     H_    0.528946 0.019116 0.318824 0.146600
H30   H     H_    0.233457 0.442920 0.316126 0.151987
H31   H     H_    0.204341 0.463494 0.187098 0.162311
H32   H     H_    0.998238 0.028348 0.208997 0.178570
H33   H     H_    0.564949 0.884536 0.669212 0.172769
H34   H     H_    0.191395 0.906190 0.201638 0.156030
H35   H     H_    0.205337 0.902925 0.327343 0.159055
H36   H     H_    0.011090 0.016950 0.335987 0.141583
H37   H     H_    0.892387 0.681053 0.786787 0.159721
H38   H     H_    0.717442 0.467050 0.826324 0.136106
H39   H     H_    0.540371 0.611528 0.823458 0.136264
H40   H     H_    0.542978 0.552021 0.705183 0.109356
O1    O     O_R   0.507380 0.255700 0.581440 -0.531086
O2    O     O_R   0.524480 0.695810 0.424040 -0.505667
O3    O     O_R   0.736390 0.504290 0.414790 -0.510769
O4    O     O_R   0.691300 0.277290 0.422170 -0.509588
O5    O     O_3   0.499990 0.499990 0.499980 -0.294958
O6    O     O_R   0.089400 0.825690 0.930570 -0.527646
O7    O     O_R   0.818460 0.054440 0.929850 -0.495849
O8    O     O_R   0.606060 0.077150 0.915510 -0.534381
O9    O     O_R   0.646550 0.806680 0.917570 -0.509686
O10   O     O_R   0.837170 0.593410 0.915250 -0.523008
O11   O     O_R   0.065200 0.635530 0.931570 -0.506101
O12   O     O_R   0.280320 0.527350 0.578930 -0.450340
O13   O     O_R   0.068260 0.828890 0.091840 -0.512078
O14   O     O_R   0.798870 0.057410 0.079340 -0.497553
O15   O     O_R   0.584930 0.080350 0.076780 -0.516332
O16   O     O_R   0.626960 0.809650 0.067060 -0.508515
O17   O     O_R   0.816040 0.596610 0.076510 -0.481805
O18   O     O_R   0.045610 0.638500 0.081060 -0.499350
O19   O     O_3   0.833640 0.833710 0.001100 -0.260226
O20   O     O_R   0.260510 0.739590 0.584590 -0.501675
O21   O     O_R   0.532300 0.695080 0.573820 -0.524914
O22   O     O_R   0.744840 0.503500 0.576370 -0.519406
O23   O     O_R   0.699120 0.276560 0.571960 -0.506236
O24   O     O_R   0.498940 0.256500 0.419860 -0.515902
O25   O     O_R   0.272500 0.528080 0.429150 -0.500084
O26   O     O_R   0.252060 0.740380 0.423010 -0.521019
Br1   Br    Br    0.021734 0.299090 0.158660 -0.620655
S1    S     S_3+6 0.874432 0.727411 0.640045 -0.027602
O27   O     O_2   0.991272 0.632968 0.589974 -0.239111
O28   O     O_2   0.757890 0.836658 0.595798 -0.302573
O29   O     O_3   0.933422 0.808148 0.694799 -0.548538
H41   H     H_    0.849037 0.880306 0.720614 0.332589

loop_
_geom_bond_atom_site_label_1
_geom_bond_atom_site_label_2
_ccdc_geom_bond_type
C44   C49   S    
C8    C13   S    
C54   O14   A    
C28   H18   S    
C59   H33   S    
C32   C45   S    
C35   C36   A    
C9    C14   S    
S1    O29   S    
C7    C8    A    
C12   O21   A    
C7    C11   A    
C26   C27   A    
C51   O7    A    
Cr4   O13   S    
Cr6   O10   S    
C37   H24   S    
C18   C24   A    
C22   H16   S    
C28   C29   A    
C10   C15   A    
C49   H35   S    
Cr2   O21   S    
C53   O11   A    
Cr4   O6    S    
C14   H9    S    
Cr2   O2    S    
C23   O23   A    
Cr5   O8    S    
C19   H11   S    
C16   C53   S    
C39   H27   S    
C59   H22   S    
Cr2   O5    S    
C19   C20   A    
C16   C17   A    
C31   H23   S    
Cr6   O11   S    
Cr5   O15   S    
C30   H20   S    
C60   H37   S    
C43   C48   S    
C29   H19   S    
Cr3   O22   S    
C20   H13   S    
C45   O2    A    
C57   O13   A    
C3    C60   S    
C15   C23   S    
Cr1   O12   S    
C55   O16   A    
C34   O26   A    
C21   C22   S    
C37   C41   A    
Cr5   O9    S    
C36   C41   A    
C2    C6    S    
C42   C57   S    
C56   O4    A    
C42   C47   A    
C52   O10   A    
C25   C29   A    
C5    S1    S    
C48   H34   S    
C55   O17   A    
C34   C50   S    
C51   O8    A    
C31   H21   S    
C27   C31   S    
Cr2   O26   S    
C28   C32   A    
C1    O20   A    
C4    C6    S    
C40   H28   S    
C49   H36   S    
Cr2   O20   S    
C58   H12   S    
C11   H6    S    
C8    C9    A    
S1    O28   D    
C25   C26   A    
C38   H25   S    
C17   C21   S    
Cr5   O19   S    
Cr3   O3    S    
C35   C39   S    
C43   C44   A    
C41   C56   S    
C37   C38   A    
C4    C59   S    
C36   C40   S    
C16   C20   A    
C30   Br1   S    
C23   O1    A    
C17   C18   A    
C6    H40   S    
Cr5   O16   S    
Cr1   O24   S    
C53   O6    A    
C48   C49   S    
C54   O15   A    
C21   H15   S    
C2    H38   S    
C26   C30   S    
Cr6   O18   S    
C4    C12   S    
C42   C43   A    
C40   H29   S    
Cr1   O5    S    
C39   H26   S    
C39   C40   S    
C52   O9    A    
C44   C50   A    
C33   C54   S    
C46   C47   A    
Cr4   O7    S    
C5    C60   S    
C27   C32   A    
C18   C22   S    
C25   C55   S    
C13   H7    S    
C4    C5    S    
C5    H4    S    
Cr4   O14   S    
C34   O25   A    
C3    C52   S    
S1    O27   D    
C12   O22   A    
C48   H32   S    
O29   H41   S    
C46   C50   A    
C2    H39   S    
C33   C38   A    
C47   H31   S    
Cr6   O19   S    
C22   H17   S    
Cr3   O4    S    
C19   C24   A    
C58   C59   S    
C7    C51   S    
C10   H5    S    
C57   O18   A    
C30   C31   S    
C60   H3    S    
C21   H14   S    
C6    H2    S    
C33   C35   A    
C2    C3    S    
C45   O3    A    
C1    O12   A    
Cr3   O23   S    
Cr3   O5    S    
Cr1   O1    S    
C10   C11   A    
Cr1   O25   S    
C3    C58   S    
C58   H1    S    
C46   H30   S    
C13   H8    S    
C1    C24   S    
Cr4   O19   S    
Cr6   O17   S    
C13   C14   S    
C56   O24   A    
C9    C15   A    
C14   H10   S    
