data_mof_unit_9635.cif
_audit_creation_date              2012-10-26T18:59:38-0400
_audit_creation_method            fapswitch 2.2
_symmetry_space_group_name_H-M    P1
_symmetry_Int_Tables_number       1
_space_group_crystal_system       triclinic
_cell_length_a                    23.477478
_cell_length_b                    10.78793
_cell_length_c                    9.543493
_cell_angle_alpha                 89.984933
_cell_angle_beta                  90.453958
_cell_angle_gamma                 90.293652
_cell_volume                      2417.00514609

loop_
_atom_site_label
_atom_site_type_symbol
_atom_type_description
_atom_site_fract_x
_atom_site_fract_y
_atom_site_fract_z
_atom_type_partial_charge
C1    C     C_R   0.499506 0.262344 0.499887 0.550049
C2    C     C_R   0.119142 0.592950 0.447445 0.383284
C3    C     C_R   0.240280 0.563212 0.615265 0.053522
C4    C     C_R   0.390888 0.499306 0.499547 0.573660
C5    C     C_R   0.299938 0.561311 0.609050 -0.183905
C6    C     C_R   0.328131 0.500283 0.499687 0.002013
C7    C     C_R   0.296055 0.441055 0.393282 0.241229
C8    C     C_R   0.236557 0.437133 0.404151 -0.067503
C9    C     C_R   0.208628 0.499580 0.511548 0.208124
C10   C     C_R   0.758674 0.402374 0.434801 -0.139892
C11   C     C_R   0.699439 0.404449 0.435695 -0.233321
C12   C     C_R   0.968948 0.280436 0.593611 0.282346
C13   C     C_R   0.670836 0.502500 0.499663 -0.029445
C14   C     C_R   0.701819 0.601657 0.559029 0.219390
C15   C     C_R   0.761580 0.595825 0.565519 0.312049
C16   C     C_R   0.499046 0.737589 0.499847 0.546324
C17   C     C_R   0.790093 0.497468 0.499531 0.193458
C18   C     C_R   0.478941 0.063455 0.617268 0.022451
C19   C     C_R   0.494840 0.129156 0.497755 0.011228
C20   C     C_R   0.502226 0.064338 0.371551 -0.160808
C21   C     C_R   0.501856 0.935512 0.371530 -0.165639
C22   C     C_R   0.493814 0.870540 0.497604 0.006334
C23   C     C_R   0.028958 0.282134 0.600427 0.273701
C24   C     C_R   0.477907 0.936157 0.617069 0.020374
C25   C     C_3   0.497578 0.928767 0.766215 -0.276529
C26   C     C_3   0.499798 0.069779 0.765372 -0.266730
C27   C     C_R   0.538820 0.570092 0.074743 0.110525
C28   C     C_R   0.608754 0.501703 0.500187 0.575542
C29   C     C_R   0.460428 0.435242 0.073681 -0.019044
C30   C     C_R   0.459902 0.436423 0.924944 -0.012316
C31   C     C_R   0.539643 0.567665 0.927000 0.172357
C32   C     C_3   0.602774 0.547956 0.925848 0.126976
C33   C     C_3   0.601838 0.555823 0.084436 -0.239951
C34   C     C_R   0.059613 0.388628 0.555464 -0.026118
C35   C     C_R   0.880336 0.587078 0.429559 0.435861
C36   C     C_R   0.879283 0.397834 0.559104 0.384943
C37   C     C_R   0.938949 0.386989 0.547669 -0.025999
C38   C     C_R   0.969511 0.487318 0.490036 -0.087013
C39   C     C_R   0.939959 0.588106 0.430017 0.038014
C40   C     C_3   0.920429 0.109107 0.515332 0.004624
C41   C     C_3   0.906592 0.975965 0.555753 -0.346831
C42   C     C_3   0.670365 0.793811 0.503694 0.007859
C43   C     C_3   0.651944 0.917062 0.565251 -0.370748
C44   C     C_3   0.799317 0.662345 0.771571 -0.007548
C45   C     C_R   0.029633 0.488372 0.494143 -0.084876
C46   C     C_3   0.839360 0.757002 0.838097 -0.363086
C47   C     C_3   0.073868 0.098864 0.555555 0.027727
C48   C     C_3   0.113724 0.002919 0.619143 -0.342251
C49   C     C_3   0.675448 0.411197 0.876224 -0.009328
C50   C     C_3   0.688762 0.285045 0.813721 -0.360766
C51   C     C_3   0.211744 0.633998 0.731967 -0.244189
C52   C     C_3   0.221201 0.571111 0.873357 -0.441380
C53   C     C_3   0.309026 0.421468 0.155120 -0.017194
C54   C     C_3   0.308810 0.315932 0.049136 -0.380368
C55   C     C_R   0.059636 0.591121 0.439412 0.043792
C56   C     C_R   0.029674 0.689524 0.377666 -0.131142
C57   C     C_R   0.970469 0.687691 0.372304 -0.137206
C58   C     C_R   0.119510 0.398655 0.567563 0.405455
Cu1   Cu    Cu3+1 0.500000 0.499980 0.640670 0.987409
Cu2   Cu    Cu3+1 0.500000 0.500020 0.359330 0.946595
H1    H     H_    0.675805 0.329184 0.387035 0.125455
H2    H     H_    0.625758 0.625062 0.872445 0.124839
H3    H     H_    0.614783 0.468219 0.136799 0.176875
H4    H     H_    0.623038 0.640684 0.126002 0.072682
H5    H     H_    0.051848 0.768834 0.334226 0.151445
H6    H     H_    0.948714 0.765547 0.324741 0.145645
H7    H     H_    0.324545 0.609502 0.688919 0.129258
H8    H     H_    0.211553 0.385510 0.327923 0.120856
H9    H     H_    0.780334 0.326584 0.383761 0.138675
H10   H     H_    0.951970 0.107583 0.428748 0.079408
H11   H     H_    0.880910 0.151952 0.473560 0.165937
H12   H     H_    0.511396 0.112378 0.274556 0.138302
H13   H     H_    0.873911 0.974756 0.639164 0.182819
H14   H     H_    0.889672 0.925028 0.463203 0.139428
H15   H     H_    0.945558 0.928669 0.594555 0.150749
H16   H     H_    0.638245 0.764367 0.423739 0.124852
H17   H     H_    0.712146 0.809413 0.451369 0.166447
H18   H     H_    0.683279 0.948607 0.645619 0.164306
H19   H     H_    0.649081 0.987955 0.481112 0.096059
H20   H     H_    0.609619 0.906981 0.614097 0.152250
H21   H     H_    0.818253 0.568621 0.786849 0.143710
H22   H     H_    0.757693 0.666926 0.826380 0.137565
H23   H     H_    0.511034 0.887589 0.274623 0.133951
H24   H     H_    0.820999 0.851326 0.828532 0.160320
H25   H     H_    0.845602 0.735074 0.950863 0.120969
H26   H     H_    0.881318 0.754939 0.785148 0.161943
H27   H     H_    0.096688 0.146707 0.468792 0.134324
H28   H     H_    0.036636 0.048414 0.511621 0.119796
H29   H     H_    0.091719 0.951457 0.703963 0.156965
H30   H     H_    0.126904 0.935972 0.537307 0.126642
H31   H     H_    0.152298 0.049044 0.663072 0.193301
H32   H     H_    0.693673 0.415164 0.984129 0.118311
H33   H     H_    0.696304 0.483011 0.810773 0.129925
H34   H     H_    0.463932 0.890943 0.835758 0.139920
H35   H     H_    0.670352 0.277818 0.706467 0.164076
H36   H     H_    0.735614 0.272648 0.807930 0.139481
H37   H     H_    0.670406 0.210460 0.879987 0.143644
H38   H     H_    0.205310 0.473960 0.869960 0.190267
H39   H     H_    0.267163 0.571720 0.901501 0.131153
H40   H     H_    0.197747 0.621965 0.955771 0.151124
H41   H     H_    0.229239 0.729876 0.735896 0.141656
H42   H     H_    0.165177 0.642306 0.714017 0.170455
H43   H     H_    0.341589 0.491239 0.124677 0.141465
H44   H     H_    0.266775 0.467704 0.148086 0.118370
H45   H     H_    0.539915 0.884719 0.779407 0.136032
H46   H     H_    0.273114 0.251179 0.071639 0.167299
H47   H     H_    0.303331 0.353327 0.941511 0.106101
H48   H     H_    0.349426 0.263934 0.054473 0.147845
H49   H     H_    0.468116 0.112761 0.836130 0.138570
H50   H     H_    0.543799 0.107902 0.774183 0.151490
H51   H     H_    0.429943 0.379188 0.129433 0.144364
H52   H     H_    0.428089 0.382769 0.868747 0.110509
N1    N     N_R   0.851279 0.494401 0.496436 -0.384031
N2    N     N_R   0.147572 0.498244 0.511598 -0.404610
N3    N     N_R   0.500360 0.500930 0.147930 -0.231972
N4    N     N_R   0.500360 0.500890 0.852020 -0.206186
O1    O     O_R   0.500000 0.319640 0.618810 -0.491790
O2    O     O_R   0.582120 0.500020 0.618760 -0.431729
O3    O     O_R   0.582120 0.500060 0.381180 -0.526376
O4    O     O_2   0.851558 0.678238 0.363393 -0.506391
O5    O     O_3   0.940639 0.173763 0.635358 -0.487163
O6    O     O_3   0.674107 0.704228 0.611562 -0.567224
O7    O     O_3   0.792306 0.690628 0.628130 -0.521415
O8    O     O_3   0.056683 0.182295 0.661268 -0.484472
O9    O     O_3   0.615840 0.427192 0.878394 -0.518500
O10   O     O_3   0.323000 0.373894 0.289514 -0.546812
O11   O     O_2   0.849519 0.315264 0.635908 -0.490646
O12   O     O_2   0.149754 0.310635 0.634866 -0.472707
O13   O     O_2   0.148561 0.688760 0.392129 -0.526107
O14   O     O_R   0.500010 0.319680 0.381230 -0.506717
O15   O     O_R   0.417880 0.499940 0.618820 -0.526093
O16   O     O_R   0.417880 0.499980 0.381240 -0.466512
O17   O     O_R   0.499990 0.680320 0.618770 -0.504524
O18   O     O_R   0.500000 0.680360 0.381190 -0.511938

loop_
_geom_bond_atom_site_label_1
_geom_bond_atom_site_label_2
_ccdc_geom_bond_type
C55   C56   A    
C58   O12   S    
C14   O6    S    
C40   H11   S    
C11   C13   A    
C19   C20   A    
C18   C26   S    
C57   H6    S    
C5    H7    S    
C16   O18   A    
Cu2   O16   S    
C17   N1    S    
C7    C8    A    
C4    O16   A    
C30   N4    A    
C53   C54   S    
C27   C33   S    
C51   H42   S    
C40   O5    S    
C12   C23   A    
Cu1   O15   S    
C29   C30   A    
C40   H10   S    
C54   H47   S    
C18   C24   A    
C9    N2    S    
C36   C37   A    
C44   H22   S    
C2    C55   A    
C38   C39   A    
C50   H35   S    
C16   O17   A    
C10   C17   A    
C43   H19   S    
C56   H5    S    
C39   C57   A    
C2    O13   S    
C56   C57   A    
Cu2   O3    S    
C18   C19   A    
C12   C37   A    
C38   C45   A    
C41   H14   S    
C12   O5    S    
C21   H23   S    
Cu1   N4    S    
C48   H31   S    
C13   C28   S    
C26   H50   S    
C46   H25   S    
C29   N3    A    
Cu1   Cu2   S    
Cu1   O1    S    
C48   H30   S    
C21   C22   A    
C35   O4    S    
C36   N1    A    
C44   C46   S    
C4    O15   A    
C1    C19   S    
C54   H46   S    
C25   H45   S    
C51   C52   S    
C24   C25   S    
C4    C6    S    
C44   H21   S    
C53   O10   S    
Cu2   O14   S    
C3    C51   S    
C8    C9    A    
C3    C5    A    
C43   H20   S    
C27   C31   A    
C52   H40   S    
C30   H52   S    
C43   H18   S    
C47   H27   S    
C32   O9    S    
C35   C39   A    
C37   C38   A    
C3    C9    A    
C41   H15   S    
C47   C48   S    
C33   H3    S    
C23   C34   A    
C34   C45   A    
C1    O1    A    
C26   H49   S    
C6    C7    A    
C15   O7    S    
C46   H24   S    
C40   C41   S    
C1    O14   A    
Cu1   O2    S    
C48   H29   S    
C22   C24   A    
C36   O11   S    
C42   C43   S    
C49   H32   S    
Cu2   O18   S    
C31   N4    A    
C42   O6    S    
C58   N2    A    
C15   C17   A    
C50   H37   S    
C16   C22   S    
C44   O7    S    
C29   H51   S    
C31   C32   S    
C11   H1    S    
C28   O3    A    
C8    H8    S    
C23   O8    S    
C51   H41   S    
C49   O9    S    
C52   H39   S    
C42   H16   S    
C54   H48   S    
C47   H28   S    
C25   C26   S    
C32   H2    S    
C28   O2    A    
C32   C33   S    
C2    N2    A    
C50   H36   S    
C47   O8    S    
C5    C6    A    
C53   H43   S    
C33   H4    S    
C52   H38   S    
Cu1   O17   S    
C35   N1    A    
C7    O10   S    
C10   C11   A    
C41   H13   S    
C10   H9    S    
C25   H34   S    
C20   C21   A    
C45   C55   A    
C42   H17   S    
C49   C50   S    
C34   C58   A    
C14   C15   A    
C20   H12   S    
Cu2   N3    S    
C53   H44   S    
C49   H33   S    
C13   C14   A    
C46   H26   S    
C27   N3    A    
