data_mof_unit_67430.cif
_audit_creation_date              2012-10-26T18:25:40-0400
_audit_creation_method            fapswitch 2.2
_symmetry_space_group_name_H-M    P1
_symmetry_Int_Tables_number       1
_space_group_crystal_system       triclinic
_cell_length_a                    7.556689
_cell_length_b                    8.697036
_cell_length_c                    10.930303
_cell_angle_alpha                 88.683743
_cell_angle_beta                  72.342211
_cell_angle_gamma                 101.270749
_cell_volume                      668.696908548

loop_
_atom_site_label
_atom_site_type_symbol
_atom_type_description
_atom_site_fract_x
_atom_site_fract_y
_atom_site_fract_z
_atom_type_partial_charge
C1    C     C_R   0.454256 0.201288 0.508144 0.550619
C2    C     C_2   0.567993 0.963967 0.460930 0.018389
C3    C     C_3   0.692319 0.770817 0.043749 -0.020918
C4    C     C_3   0.815197 0.881238 0.927258 -0.320623
C5    C     C_3   0.079939 0.343182 0.012588 0.006123
C6    C     C_3   0.953920 0.301404 0.928019 -0.336094
C7    C     C_2   0.291046 0.963748 0.658587 0.563866
C8    C     C_2   0.712779 0.035353 0.335783 0.554118
C9    C     C_2   0.918112 0.300478 0.571995 0.786196
C10   C     C_2   0.088540 0.695237 0.417146 0.801578
C11   C     C_R   0.547036 0.798712 0.488651 0.560294
C12   C     C_R   0.422491 0.487622 0.743560 0.576583
C13   C     C_R   0.576110 0.506269 0.257553 0.568555
C14   C     C_2   0.379067 0.464892 0.884259 0.254556
C15   C     C_2   0.615065 0.514394 0.118567 0.264804
C16   C     C_2   0.516978 0.442218 0.931881 -0.122912
C17   C     C_2   0.489954 0.426995 0.070008 -0.101854
C18   C     C_2   0.434822 0.036082 0.534119 0.024056
Cu1   Cu    Cu3+1 0.688910 0.517800 0.485820 1.114507
Cu2   Cu    Cu3+1 0.311090 0.482200 0.514180 1.088735
H1    H     H_    0.363756 0.348266 0.133342 0.134240
H2    H     H_    0.022890 0.235289 0.848012 0.179587
H3    H     H_    0.814351 0.228621 0.986089 0.124342
H4    H     H_    0.931475 0.410506 0.886508 0.224553
H5    H     H_    0.223571 0.816340 0.819319 0.356015
H6    H     H_    0.969016 0.038410 0.205835 0.318301
H7    H     H_    0.717572 0.147732 0.709606 0.324412
H8    H     H_    0.288017 0.832448 0.268262 0.312249
H9    H     H_    0.657862 0.444023 0.867642 0.172430
H10   H     H_    0.696993 0.828550 0.132674 0.162821
H11   H     H_    0.543630 0.750573 0.039575 0.165823
H12   H     H_    0.832714 0.816869 0.839181 0.223783
H13   H     H_    0.745584 0.979553 0.916803 0.114803
H14   H     H_    0.955803 0.928937 0.939146 0.167875
H15   H     H_    0.988450 0.357153 0.110778 0.219234
H16   H     H_    0.149589 0.243707 0.022375 0.088434
N1    N     N_2   0.027170 0.455360 0.535550 -0.179472
N2    N     N_2   0.972830 0.544640 0.464450 -0.168743
O1    O     O_R   0.622710 0.286400 0.490790 -0.503910
O2    O     O_3   0.207826 0.488991 0.965065 -0.537762
O3    O     O_2   0.137885 0.002638 0.693361 -0.512941
O4    O     O_R   0.333223 0.857262 0.738006 -0.703282
O5    O     O_2   0.679173 0.132361 0.267874 -0.579935
O6    O     O_R   0.884251 0.984729 0.292905 -0.634934
O7    O     O_2   0.949003 0.197880 0.498730 -0.442468
O8    O     O_R   0.783516 0.263028 0.694021 -0.746531
O9    O     O_2   0.066232 0.806420 0.482264 -0.447236
O10   O     O_R   0.216070 0.719076 0.292042 -0.686335
O11   O     O_R   0.377290 0.713600 0.509210 -0.504705
O12   O     O_R   0.303660 0.256330 0.514730 -0.461278
O13   O     O_R   0.696340 0.743670 0.485270 -0.444534
O14   O     O_R   0.600900 0.509520 0.671740 -0.519273
O15   O     O_R   0.399100 0.490480 0.328260 -0.515495
O16   O     O_R   0.281840 0.479450 0.695690 -0.494985
O17   O     O_R   0.718160 0.520550 0.304310 -0.476358
O18   O     O_3   0.761223 0.630401 0.041191 -0.559303

loop_
_geom_bond_atom_site_label_1
_geom_bond_atom_site_label_2
_ccdc_geom_bond_type
H5    O4    S    
C3    H10   S    
C9    O7    D    
N1    N2    D    
C11   O11   A    
Cu1   N2    S    
C2    C18   D    
C1    O12   A    
Cu1   Cu2   S    
C8    O5    D    
C10   N2    S    
C7    C18   S    
C6    H4    S    
C15   O18   S    
C9    N1    S    
H6    O6    S    
C9    O8    S    
C4    H12   S    
C3    H11   S    
Cu2   N1    S    
C1    C18   S    
Cu2   O11   S    
Cu1   O1    S    
C6    H3    S    
C5    H15   S    
H7    O8    S    
C12   O14   A    
C12   C14   S    
C13   O15   A    
C13   C15   S    
C4    H14   S    
C10   O10   S    
C5    C6    S    
C16   C17   S    
C14   C16   D    
C5    O2    S    
C11   O13   A    
C2    C11   S    
C14   O2    S    
C3    C4    S    
C6    H2    S    
C5    H16   S    
Cu1   O13   S    
Cu2   O16   S    
C3    O18   S    
C7    O4    S    
Cu1   O17   S    
C10   O9    D    
C15   C17   D    
C1    O1    A    
C4    H13   S    
H8    O10   S    
Cu2   O12   S    
C2    C8    S    
C16   H9    S    
Cu1   O14   S    
C12   O16   A    
C8    O6    S    
C7    O3    D    
Cu2   O15   S    
C13   O17   A    
C17   H1    S    
