data_mof_unit_62211.cif
_audit_creation_date              2012-12-11T14:47:32-0500
_audit_creation_method            fapswitch 2.2
_symmetry_space_group_name_H-M    P1
_symmetry_Int_Tables_number       1
_space_group_crystal_system       triclinic
_cell_length_a                    19.498545
_cell_length_b                    6.970953
_cell_length_c                    19.424193
_cell_angle_alpha                 90.010548
_cell_angle_beta                  95.834882
_cell_angle_gamma                 90.016974
_cell_volume                      2626.52408008

loop_
_atom_site_label
_atom_site_type_symbol
_atom_type_description
_atom_site_fract_x
_atom_site_fract_y
_atom_site_fract_z
_atom_type_partial_charge
O1    O     O_R   0.673510 0.377480 0.186100 -0.524888
O2    O     O_R   0.326490 0.622520 0.813900 -0.524680
O3    O     O_R   0.826490 0.877480 0.313900 -0.524211
O4    O     O_R   0.173510 0.122520 0.686100 -0.524302
O5    O     O_R   0.807790 0.705750 0.184090 -0.538326
O6    O     O_R   0.192210 0.294250 0.815910 -0.538318
O7    O     O_R   0.692210 0.205750 0.315910 -0.538126
O8    O     O_R   0.307790 0.794250 0.684090 -0.538160
C1    C     C_1   0.478148 0.994572 0.521219 0.053642
C2    C     C_1   0.521851 0.005428 0.478780 0.053652
C3    C     C_1   0.021851 0.494564 0.978780 0.053513
C4    C     C_1   0.978148 0.505437 0.021218 0.053524
C5    C     C_R   0.830865 0.538244 0.166267 0.756104
C6    C     C_R   0.169135 0.461756 0.833732 0.755861
C7    C     C_R   0.669134 0.038231 0.333732 0.754647
C8    C     C_R   0.330866 0.961769 0.666268 0.754805
O9    O     O_R   0.672870 0.707110 0.178120 -0.521679
O10   O     O_R   0.327130 0.292890 0.821880 -0.521563
O11   O     O_R   0.827130 0.207110 0.321880 -0.520983
O12   O     O_R   0.172870 0.792890 0.678120 -0.521053
O13   O     O_R   0.690610 0.878650 0.307880 -0.512204
O14   O     O_R   0.309390 0.121350 0.692120 -0.512251
O15   O     O_R   0.809390 0.378650 0.192120 -0.512346
O16   O     O_R   0.190610 0.621350 0.807880 -0.512270
C9    C     C_R   0.647859 0.538925 0.161110 0.856871
C10   C     C_R   0.352140 0.461075 0.838901 0.856627
C11   C     C_R   0.852166 0.039014 0.338884 0.855632
C12   C     C_R   0.147834 0.960985 0.661122 0.855799
C13   C     C_1   0.382879 0.971897 0.614268 -0.115986
C14   C     C_1   0.617121 0.028102 0.385732 -0.115890
C15   C     C_1   0.117121 0.471866 0.885733 -0.115970
C16   C     C_1   0.882878 0.528134 0.114266 -0.115933
O17   O     O_3   0.755980 0.544260 0.292580 -0.358733
O18   O     O_3   0.244020 0.455740 0.707420 -0.358900
O19   O     O_3   0.744020 0.044260 0.207420 -0.359908
O20   O     O_3   0.255980 0.955740 0.792580 -0.359642
V1    V     V_3+5 0.748890 0.818640 0.242100 1.618564
V2    V     V_3+5 0.251110 0.181360 0.757900 1.618800
V3    V     V_3+5 0.751110 0.318640 0.257900 1.619413
V4    V     V_3+5 0.248890 0.681360 0.742100 1.619500
C17   C     C_R   0.086335 0.964231 0.608680 -0.265802
C18   C     C_R   0.913647 0.035761 0.391351 -0.266358
C19   C     C_R   0.413648 0.464664 0.891324 -0.265707
C20   C     C_R   0.586323 0.535309 0.108737 -0.265560
C21   C     C_1   0.426374 0.981897 0.571597 0.063403
C22   C     C_1   0.573625 0.018102 0.428402 0.063463
C23   C     C_1   0.073626 0.481872 0.928404 0.063229
C24   C     C_1   0.926373 0.518129 0.071595 0.063244
C25   C     C_R   0.026220 0.171597 0.432872 0.440879
C26   C     C_R   0.973717 0.828449 0.567222 0.440826
C27   C     C_R   0.472839 0.667068 0.068282 0.440414
C28   C     C_R   0.526997 0.332455 0.931961 0.440736
C29   C     C_R   0.970751 0.150718 0.380655 0.213528
C30   C     C_R   0.029182 0.849584 0.619466 0.212868
C31   C     C_R   0.528628 0.646786 0.120234 0.211363
C32   C     C_R   0.471241 0.352605 0.879987 0.211744
C33   C     C_R   0.912990 0.933250 0.453883 0.372075
C34   C     C_R   0.087019 0.066459 0.546103 0.371879
C35   C     C_R   0.587406 0.435688 0.045669 0.371633
C36   C     C_R   0.412606 0.564774 0.954311 0.371598
C37   C     C_R   0.971276 0.939486 0.505394 -0.144666
C38   C     C_R   0.028713 0.060298 0.494634 -0.145055
C39   C     C_R   0.528992 0.441252 0.994306 -0.144565
C40   C     C_R   0.470936 0.558837 0.005792 -0.144351
Cl1   Cl    Cl    0.165054 0.186355 0.532736 -0.549527
Cl2   Cl    Cl    0.834994 0.812988 0.467140 -0.549529
Cl3   Cl    Cl    0.334207 0.682184 0.967894 -0.550552
Cl4   Cl    Cl    0.666015 0.319883 0.031720 -0.550474
Cl5   Cl    Cl    0.025279 0.738576 0.701259 -0.631857
Cl6   Cl    Cl    0.974669 0.262511 0.299001 -0.630912
Cl7   Cl    Cl    0.475279 0.243835 0.797816 -0.631968
Cl8   Cl    Cl    0.524587 0.754731 0.202549 -0.632464
O21   O     O_3   0.078034 0.301871 0.424353 -0.562526
H1    H     H_    0.060287 0.405892 0.392816 0.353345
O22   O     O_3   0.921852 0.698219 0.575722 -0.563073
H2    H     H_    0.939150 0.595701 0.608125 0.353958
O23   O     O_3   0.420022 0.793363 0.077815 -0.562541
H3    H     H_    0.436637 0.895348 0.110767 0.354760
O24   O     O_3   0.579619 0.205344 0.922668 -0.562428
H4    H     H_    0.562746 0.102638 0.890097 0.354339

loop_
_geom_bond_atom_site_label_1
_geom_bond_atom_site_label_2
_ccdc_geom_bond_type
C34   C38   A    
C1    C21   S    
O5    V1    S    
O21   H1    S    
C5    C16   S    
C3    C23   S    
O10   C10   A    
C6    C15   S    
C4    C24   S    
O23   H3    S    
C5    O15   A    
C26   C30   A    
C20   C31   A    
O19   V1    S    
C17   C34   A    
C18   C29   A    
O12   V4    S    
O15   V3    S    
C20   C35   A    
O14   V2    S    
C12   C17   S    
C9    C20   S    
C6    O16   A    
O17   V3    S    
C36   Cl3   S    
C2    C22   S    
O6    V2    S    
C28   O24   S    
O11   C11   A    
C1    C2    T    
C33   Cl2   S    
O5    C5    A    
C31   Cl8   S    
O7    C7    A    
O8    C8    A    
C15   C23   T    
O1    C9    A    
C16   C24   T    
C29   Cl6   S    
C18   C33   A    
O4    C12   A    
C10   C19   S    
O20   V4    S    
O12   C12   A    
C8    C13   S    
O17   V1    S    
C39   C40   A    
C13   C21   T    
O19   V3    S    
O22   H2    S    
C27   O23   S    
C35   Cl4   S    
O6    C6    A    
C34   Cl1   S    
C32   Cl7   S    
O2    C10   A    
O9    V1    S    
O11   V3    S    
C19   C36   A    
O4    V2    S    
C25   O21   S    
C7    C14   S    
C8    O14   A    
C25   C38   A    
O18   V2    S    
C14   C22   T    
C27   C40   A    
C28   C39   A    
C3    C4    T    
C33   C37   A    
C35   C39   A    
C36   C40   A    
O9    C9    A    
O20   V2    S    
O10   V2    S    
C26   O22   S    
C11   C18   S    
C30   Cl5   S    
C25   C29   A    
O3    C11   A    
O16   V4    S    
C27   C31   A    
C37   C38   A    
C17   C30   A    
O1    V3    S    
O24   H4    S    
O2    V4    S    
C19   C32   A    
C7    O13   A    
O13   V1    S    
O3    V1    S    
C26   C37   A    
O7    V3    S    
O18   V4    S    
O8    V4    S    
C28   C32   A    
