data_mof_unit_62880.cif
_audit_creation_date              2012-12-10T21:15:18-0500
_audit_creation_method            fapswitch 2.2
_symmetry_space_group_name_H-M    P1
_symmetry_Int_Tables_number       1
_space_group_crystal_system       triclinic
_cell_length_a                    17.549157
_cell_length_b                    16.807549
_cell_length_c                    14.163387
_cell_angle_alpha                 89.997007
_cell_angle_beta                  91.879639
_cell_angle_gamma                 89.999293
_cell_volume                      4175.36095014

loop_
_atom_site_label
_atom_site_type_symbol
_atom_type_description
_atom_site_fract_x
_atom_site_fract_y
_atom_site_fract_z
_atom_type_partial_charge
C1    C     C_R   0.352731 0.500000 0.505838 1.004133
C2    C     C_R   0.647489 0.500000 0.496987 0.993860
C3    C     C_1   0.967337 0.499992 0.568414 0.231492
C4    C     C_1   0.035074 0.499993 0.575339 0.231666
C5    C     C_R   0.452939 0.833052 0.435127 0.003043
C6    C     C_R   0.547135 0.166947 0.564792 0.002007
C7    C     C_R   0.547126 0.833048 0.564802 0.002013
C8    C     C_R   0.452933 0.166954 0.435134 0.003048
C9    C     C_R   0.454135 0.748302 0.436319 0.484750
C10   C     C_R   0.545860 0.251696 0.563686 0.483991
C11   C     C_R   0.545855 0.748299 0.563693 0.483973
C12   C     C_R   0.454127 0.251704 0.436328 0.484743
C13   C     C_R   0.500049 0.875770 0.499946 0.007640
C14   C     C_R   0.500050 0.124231 0.499946 0.007645
C15   C     C_1   0.500058 0.963653 0.499936 0.041236
C16   C     C_1   0.500059 0.036348 0.499936 0.041236
C17   C     C_R   0.499795 0.500002 0.328834 0.912238
C18   C     C_R   0.500205 0.499998 0.671167 0.902269
C19   C     C_1   0.499789 0.500004 0.227489 -0.101440
C20   C     C_1   0.500169 0.499995 0.772504 -0.101599
C21   C     C_1   0.499820 0.500004 0.142335 0.045891
C22   C     C_1   0.500107 0.499996 0.857656 0.044824
C23   C     C_1   0.499906 0.500001 0.042571 0.058510
C24   C     C_1   0.500001 0.499999 0.957417 0.058073
C25   C     C_R   0.850044 0.572418 0.533845 0.338948
C26   C     C_R   0.153951 0.427678 0.564203 0.339178
C27   C     C_R   0.153937 0.572319 0.564136 0.339155
C28   C     C_R   0.850047 0.427572 0.533834 0.338945
C29   C     C_R   0.772823 0.572860 0.506739 0.330630
C30   C     C_R   0.231177 0.426880 0.543083 0.314721
C31   C     C_R   0.231161 0.573120 0.543011 0.314722
C32   C     C_R   0.772825 0.427135 0.506732 0.330630
C33   C     C_R   0.731846 0.499998 0.500939 -0.389309
C34   C     C_R   0.270578 0.499999 0.528474 -0.391792
C35   C     C_R   0.887415 0.499994 0.549933 -0.254499
C36   C     C_R   0.115783 0.499997 0.572292 -0.250706
N1    N     N_R   0.500000 0.707230 0.500000 -0.177851
N2    N     N_R   0.500000 0.292770 0.500000 -0.177842
O1    O     O_R   0.389110 0.566570 0.500000 -0.541754
O2    O     O_R   0.610890 0.433430 0.500000 -0.544288
O3    O     O_R   0.610890 0.566570 0.500000 -0.544283
O4    O     O_R   0.389110 0.433430 0.500000 -0.541724
O5    O     O_R   0.500000 0.566560 0.373710 -0.569075
O6    O     O_R   0.500000 0.433440 0.626290 -0.569621
O7    O     O_R   0.500000 0.566560 0.626290 -0.569642
O8    O     O_R   0.500000 0.433440 0.373710 -0.569093
Zn1   Zn    Zn3+2 0.500000 0.588860 0.500000 1.099027
Zn2   Zn    Zn3+2 0.500000 0.411140 0.500000 1.099038
Cl1   Cl    Cl    0.900627 0.663250 0.546187 -0.379781
Cl2   Cl    Cl    0.103793 0.337136 0.578752 -0.382033
Cl3   Cl    Cl    0.103764 0.662860 0.578604 -0.382024
Cl4   Cl    Cl    0.900634 0.336739 0.546161 -0.379800
Cl5   Cl    Cl    0.731939 0.665376 0.472627 -0.435246
Cl6   Cl    Cl    0.275097 0.331997 0.538077 -0.432746
Cl7   Cl    Cl    0.275058 0.668010 0.537900 -0.432701
Cl8   Cl    Cl    0.731938 0.334622 0.472627 -0.435263
C37   C     C_3   0.402258 0.879200 0.365858 -0.705725
H1    H     H_    0.366904 0.841490 0.317810 0.288432
H2    H     H_    0.362815 0.917588 0.405324 0.243585
H3    H     H_    0.438033 0.917483 0.321255 0.225447
C38   C     C_3   0.597864 0.120800 0.634010 -0.701955
H4    H     H_    0.633294 0.158509 0.681975 0.289553
H5    H     H_    0.562121 0.082542 0.678681 0.225639
H6    H     H_    0.637258 0.082388 0.594500 0.242853
C39   C     C_3   0.597842 0.879189 0.634034 -0.701938
H7    H     H_    0.633248 0.841475 0.682033 0.289537
H8    H     H_    0.637257 0.917590 0.594532 0.242871
H9    H     H_    0.562088 0.917460 0.678678 0.225624
C40   C     C_3   0.402250 0.120812 0.365868 -0.705719
H10   H     H_    0.366905 0.158527 0.317803 0.288417
H11   H     H_    0.438025 0.082520 0.321274 0.225438
H12   H     H_    0.362797 0.082432 0.405340 0.243603
Cl9   Cl    Cl    0.396002 0.694759 0.354798 -0.505860
Cl10  Cl    Cl    0.603711 0.305220 0.645525 -0.511532
Cl11  Cl    Cl    0.603710 0.694767 0.645528 -0.511540
Cl12  Cl    Cl    0.395974 0.305257 0.354829 -0.505895

loop_
_geom_bond_atom_site_label_1
_geom_bond_atom_site_label_2
_ccdc_geom_bond_type
C6    C10   A    
C40   H12   S    
C7    C11   A    
C23   C24   T    
C17   O5    A    
C5    C9    A    
C3    C35   S    
C27   C36   A    
C38   H6    S    
C10   Cl10  S    
C1    O4    A    
N2    Zn2   S    
C39   H8    S    
C13   C15   S    
C5    C37   S    
C10   N2    A    
C39   H9    S    
C31   Cl7   S    
C32   C33   A    
C30   Cl6   S    
C26   Cl2   S    
N1    Zn1   S    
O3    Zn1   S    
C31   C34   A    
C18   O7    A    
C11   Cl11  S    
C32   Cl8   S    
C17   O8    A    
C25   C29   A    
C28   Cl4   S    
C8    C40   S    
C40   H10   S    
C29   Cl5   S    
C25   C35   A    
C8    C12   A    
C6    C38   S    
C9    N1    A    
C19   C21   T    
C27   Cl3   S    
C1    C34   S    
C26   C30   A    
C28   C35   A    
C22   C24   S    
C12   Cl12  S    
C21   C23   S    
C12   N2    A    
C38   H4    S    
C14   C16   S    
C37   H2    S    
C6    C14   A    
C1    O1    A    
C2    O3    A    
C27   C31   A    
C15   C16   T    
O8    Zn2   S    
C2    O2    A    
C18   O6    A    
C7    C13   A    
C4    C36   S    
C2    C33   S    
C18   C20   S    
C40   H11   S    
C39   H7    S    
O7    Zn1   S    
C26   C36   A    
C11   N1    A    
C30   C34   A    
O2    Zn2   S    
C37   H3    S    
O4    Zn2   S    
C8    C14   A    
C17   C19   S    
C37   H1    S    
O1    Zn1   S    
C5    C13   A    
C7    C39   S    
C9    Cl9   S    
C28   C32   A    
C3    C4    T    
O6    Zn2   S    
C29   C33   A    
C20   C22   T    
O5    Zn1   S    
C38   H5    S    
C25   Cl1   S    
