data_mof_unit_56013.cif
_audit_creation_date              2012-12-10T20:48:20-0500
_audit_creation_method            fapswitch 2.2
_symmetry_space_group_name_H-M    P1
_symmetry_Int_Tables_number       1
_space_group_crystal_system       triclinic
_cell_length_a                    10.728716
_cell_length_b                    8.92651
_cell_length_c                    8.095743
_cell_angle_alpha                 89.82024
_cell_angle_beta                  89.66159
_cell_angle_gamma                 89.726089
_cell_volume                      775.303100411

loop_
_atom_site_label
_atom_site_type_symbol
_atom_type_description
_atom_site_fract_x
_atom_site_fract_y
_atom_site_fract_z
_atom_type_partial_charge
C1    C     C_R   0.497916 0.217987 0.500077 0.893509
C2    C     C_1   0.498683 0.934797 0.499671 -0.154875
C3    C     C_3   0.073028 0.668015 0.466766 -0.226186
C4    C     C_3   0.924073 0.668847 0.497017 -0.277896
C5    C     C_3   0.121701 0.499804 0.501971 -0.297072
C6    C     C_3   0.878783 0.497608 0.499395 -0.290593
C7    C     C_3   0.178162 0.212157 0.717749 -0.026533
C8    C     C_3   0.173929 0.176826 0.264666 -0.233935
C9    C     C_3   0.801736 0.200632 0.714543 -0.133681
C10   C     C_3   0.839876 0.246994 0.156766 -0.179964
C11   C     C_2   0.133706 0.790742 0.571013 0.581734
C12   C     C_R   0.257369 0.497076 0.500638 0.995912
C13   C     C_2   0.108368 0.710515 0.287328 0.387141
C14   C     C_2   0.876539 0.742775 0.658420 0.428938
C15   C     C_2   0.860056 0.762217 0.362148 0.283269
C16   C     C_R   0.742650 0.494039 0.499669 0.907395
C17   C     C_R   0.499849 0.782023 0.499817 0.970464
C18   C     C_1   0.497912 0.065182 0.500050 -0.205994
C19   C     C_3   0.067266 0.447401 0.675401 0.351073
C20   C     C_3   0.072502 0.394136 0.359054 0.276519
C21   C     C_3   0.928067 0.412078 0.659003 0.311014
C22   C     C_3   0.930020 0.414398 0.342569 0.436979
H1    H     H_    0.069107 0.549797 0.750901 0.186099
H2    H     H_    0.121330 0.172483 0.147102 0.191969
H3    H     H_    0.731937 0.190019 0.615698 0.193155
H4    H     H_    0.763521 0.268917 0.817582 0.099189
H5    H     H_    0.819214 0.086538 0.764128 0.171963
H6    H     H_    0.921736 0.261566 0.073439 0.139693
H7    H     H_    0.762840 0.322618 0.117811 0.137700
H8    H     H_    0.806957 0.130062 0.144220 0.212088
H9    H     H_    0.110036 0.906545 0.544564 0.098385
H10   H     H_    0.048263 0.681926 0.185120 0.094501
H11   H     H_    0.778930 0.775100 0.667192 0.087604
H12   H     H_    0.112961 0.431059 0.238134 0.065340
H13   H     H_    0.809715 0.710324 0.262172 0.111160
H14   H     H_    0.883230 0.456099 0.773944 0.069232
H15   H     H_    0.912362 0.488701 0.234059 -0.039173
H16   H     H_    0.102066 0.136065 0.683525 0.227646
H17   H     H_    0.230100 0.153061 0.816672 0.140662
H18   H     H_    0.245932 0.227358 0.616228 0.143299
H19   H     H_    0.197881 0.060602 0.300869 0.212482
H20   H     H_    0.262877 0.237857 0.246420 0.165583
N1    N     N_1   0.500000 0.500030 0.073640 -0.034409
N2    N     N_1   0.500000 0.500030 0.926360 -0.026771
O1    O     O_R   0.500000 0.285340 0.636850 -0.646360
O2    O     O_3   0.101133 0.241440 0.391881 -0.565140
O3    O     O_3   0.913723 0.254572 0.645023 -0.537166
O4    O     O_3   0.870772 0.272922 0.323436 -0.493452
O5    O     O_2   0.206150 0.764409 0.683133 -0.571336
O6    O     O_2   0.207536 0.770729 0.253830 -0.565775
O7    O     O_2   0.941366 0.764553 0.779241 -0.612063
O8    O     O_2   0.870035 0.898588 0.360243 -0.532590
O9    O     O_R   0.500000 0.285340 0.363150 -0.621683
O10   O     O_R   0.314790 0.499970 0.636880 -0.547414
O11   O     O_R   0.314790 0.499970 0.363120 -0.622603
O12   O     O_R   0.685210 0.499970 0.636880 -0.669976
O13   O     O_R   0.685210 0.499970 0.363120 -0.639030
O14   O     O_R   0.500000 0.714650 0.636900 -0.605714
O15   O     O_R   0.500000 0.714650 0.363100 -0.595013
O16   O     O_3   0.134936 0.349149 0.783412 -0.630092
Zn1   Zn    Zn3+2 0.500000 0.499990 0.682780 1.007497
Zn2   Zn    Zn3+2 0.500000 0.499990 0.317220 1.003298

loop_
_geom_bond_atom_site_label_1
_geom_bond_atom_site_label_2
_ccdc_geom_bond_type
C22   O4    S    
N1    N2    T    
C16   O12   A    
C11   O5    D    
O10   Zn1   S    
N2    Zn1   S    
C2    C18   T    
O9    Zn2   S    
C10   H8    S    
C13   H10   S    
C19   H1    S    
C14   O7    D    
C3    C13   S    
C8    H20   S    
C17   O14   A    
C7    H18   S    
C20   H12   S    
O14   Zn1   S    
C11   H9    S    
O13   Zn2   S    
C21   H14   S    
C15   O8    D    
C2    C17   S    
C4    C14   S    
C22   H15   S    
C10   H7    S    
C1    O1    A    
C1    C18   S    
C14   H11   S    
C5    C19   S    
O1    Zn1   S    
C8    H2    S    
C7    H16   S    
C17   O15   A    
C9    H4    S    
C9    O3    S    
C16   O13   A    
C4    C15   S    
C10   O4    S    
C19   O16   S    
C5    C20   S    
C8    O2    S    
C12   O11   A    
C3    C11   S    
C9    H3    S    
C3    C4    S    
C6    C22   S    
O11   Zn2   S    
C20   O2    S    
C7    O16   S    
C8    H19   S    
C9    H5    S    
C5    C12   S    
C4    C6    S    
C10   H6    S    
C15   H13   S    
C21   O3    S    
C7    H17   S    
O12   Zn1   S    
O15   Zn2   S    
C1    O9    A    
C19   C21   S    
C6    C21   S    
C6    C16   S    
C12   O10   A    
C13   O6    D    
N1    Zn2   S    
C20   C22   S    
C3    C5    S    
