data_mof_unit_22790.cif
_audit_creation_date              2012-12-11T14:08:38-0500
_audit_creation_method            fapswitch 2.2
_symmetry_space_group_name_H-M    P1
_symmetry_Int_Tables_number       1
_space_group_crystal_system       triclinic
_cell_length_a                    28.215431
_cell_length_b                    7.183625
_cell_length_c                    17.314677
_cell_angle_alpha                 90.043317
_cell_angle_beta                  102.457234
_cell_angle_gamma                 90.057064
_cell_volume                      3426.86942746

loop_
_atom_site_label
_atom_site_type_symbol
_atom_type_description
_atom_site_fract_x
_atom_site_fract_y
_atom_site_fract_z
_atom_type_partial_charge
O1    O     O_R   0.000700 0.436510 0.857920 -0.509021
O2    O     O_R   0.999300 0.563490 0.142080 -0.509857
O3    O     O_R   0.999300 0.936510 0.642080 -0.509805
O4    O     O_R   0.000700 0.063490 0.357920 -0.509805
O5    O     O_R   0.930080 0.766380 0.721890 -0.540113
O6    O     O_R   0.069920 0.233620 0.278110 -0.537269
O7    O     O_R   0.069920 0.266380 0.778110 -0.539623
O8    O     O_R   0.930080 0.733620 0.221890 -0.535885
C1    C     C_R   0.910680 0.597266 0.708351 0.733510
C2    C     C_R   0.089335 0.402329 0.291401 0.732655
C3    C     C_R   0.089345 0.097829 0.791005 0.731121
C4    C     C_R   0.910661 0.902483 0.208276 0.735575
O9    O     O_R   0.996180 0.766230 0.862310 -0.552649
O10   O     O_R   0.003820 0.233770 0.137690 -0.553090
O11   O     O_R   0.003820 0.266230 0.637690 -0.553103
O12   O     O_R   0.996180 0.733770 0.362310 -0.552608
O13   O     O_R   0.065870 0.936460 0.783500 -0.536124
O14   O     O_R   0.934130 0.063540 0.216500 -0.539815
O15   O     O_R   0.934130 0.436460 0.716500 -0.536729
O16   O     O_R   0.065870 0.563540 0.283500 -0.540511
C5    C     C_R   0.998500 0.596160 0.894272 0.723033
C6    C     C_R   0.001499 0.403840 0.105728 0.725502
C7    C     C_R   0.001495 0.096103 0.605741 0.718500
C8    C     C_R   0.998490 0.903900 0.394254 0.726585
O17   O     O_3   0.022790 0.603020 0.723980 -0.370861
O18   O     O_3   0.977210 0.396980 0.276020 -0.371290
O19   O     O_3   0.977210 0.103020 0.776020 -0.370530
O20   O     O_3   0.022790 0.896980 0.223980 -0.373131
V1    V     V_3+5 0.995770 0.877900 0.754830 1.465680
V2    V     V_3+5 0.004230 0.122100 0.245170 1.464420
V3    V     V_3+5 0.004230 0.377900 0.745170 1.466559
V4    V     V_3+5 0.995770 0.622100 0.254830 1.467276
C9    C     C_2   0.002620 0.083187 0.520398 0.016824
C10   C     C_2   0.997347 0.916826 0.479591 0.018268
C11   C     C_2   0.997386 0.583205 0.979642 0.016930
C12   C     C_2   0.002612 0.416795 0.020359 0.019633
C13   C     C_R   0.682076 0.902558 0.025876 0.752237
C14   C     C_R   0.320422 0.165336 0.952862 0.713082
C15   C     C_R   0.319758 0.336813 0.460828 0.760319
C16   C     C_R   0.681754 0.589385 0.529825 0.739968
O21   O     O_2   0.709772 0.831131 0.978546 -0.468109
O22   O     O_2   0.293947 0.266470 0.993962 -0.443612
O23   O     O_2   0.292946 0.239070 0.502488 -0.471013
O24   O     O_2   0.709088 0.662779 0.482335 -0.446832
N1    N     N_R   0.703147 0.955696 0.101150 -0.545874
N2    N     N_R   0.297594 0.068576 0.887545 -0.570285
N3    N     N_R   0.297295 0.430687 0.394545 -0.545556
N4    N     N_R   0.703202 0.535463 0.604753 -0.571213
C17   C     C_R   0.675958 0.024351 0.151391 0.759599
C18   C     C_R   0.323218 0.966691 0.843578 0.721263
C19   C     C_R   0.323331 0.528815 0.350026 0.761734
C20   C     C_R   0.676453 0.463148 0.654899 0.703125
C21   C     C_R   0.775726 0.795463 0.177360 0.193923
C22   C     C_R   0.222634 0.215214 0.811708 0.190907
C23   C     C_R   0.222890 0.280561 0.319318 0.191358
C24   C     C_R   0.775888 0.700781 0.679327 0.223132
C25   C     C_R   0.826387 0.780711 0.202737 -0.203663
C26   C     C_R   0.171969 0.222900 0.789059 -0.106888
C27   C     C_R   0.172194 0.273742 0.294256 -0.219567
C28   C     C_R   0.826434 0.717939 0.703173 -0.088497
C29   C     C_R   0.836528 0.062839 0.131845 -0.263502
C30   C     C_R   0.165507 0.948521 0.867102 -0.282357
C31   C     C_R   0.165110 0.554990 0.367834 -0.270422
C32   C     C_R   0.836598 0.434139 0.633262 -0.275705
C33   C     C_R   0.786096 0.078474 0.105037 0.420113
C34   C     C_R   0.216264 0.941208 0.892200 0.443613
C35   C     C_R   0.215768 0.561887 0.394755 0.415699
C36   C     C_R   0.786178 0.416199 0.607435 0.452059
C37   C     C_R   0.755268 0.943198 0.127658 0.236718
C38   C     C_R   0.245255 0.074880 0.863976 0.196775
C39   C     C_R   0.245010 0.423960 0.369982 0.249303
C40   C     C_R   0.755301 0.550146 0.630721 0.183808
C41   C     C_R   0.602690 0.989059 0.047957 -0.114882
C42   C     C_R   0.398626 0.051599 0.935199 -0.092884
C43   C     C_R   0.398273 0.447957 0.443367 -0.103613
C44   C     C_R   0.602717 0.500694 0.552871 -0.111965
C45   C     C_R   0.631915 0.923485 0.997258 -0.069792
C46   C     C_R   0.371129 0.159266 0.977734 -0.039377
C47   C     C_R   0.370506 0.341489 0.485826 -0.062416
C48   C     C_R   0.631600 0.567077 0.501733 -0.071718
C49   C     C_R   0.610967 0.886085 0.918074 -0.045526
C50   C     C_R   0.394725 0.262872 0.043274 -0.147700
C51   C     C_R   0.393854 0.237982 0.551440 -0.123754
C52   C     C_R   0.610298 0.604298 0.422710 -0.052703
C53   C     C_R   0.624432 0.035115 0.127566 -0.158140
C54   C     C_R   0.374801 0.954584 0.865900 -0.156431
C55   C     C_R   0.374668 0.546714 0.374581 -0.155723
C56   C     C_R   0.624894 0.453113 0.632020 -0.151937
C57   C     C_R   0.857152 0.914466 0.180552 -0.139179
C58   C     C_R   0.142988 0.089290 0.815869 -0.159054
C59   C     C_R   0.142926 0.411119 0.317773 -0.132657
C60   C     C_R   0.857187 0.584179 0.681121 -0.170945
H1    H     H_    0.859955 0.165790 0.113606 0.185390
H2    H     H_    0.143287 0.846980 0.889046 0.155552
H3    H     H_    0.142710 0.659486 0.387490 0.185158
H4    H     H_    0.860060 0.331838 0.614788 0.152973
H5    H     H_    0.633651 0.850180 0.877274 0.227565
H6    H     H_    0.374291 0.355765 0.073195 0.216216
H7    H     H_    0.373124 0.146871 0.581555 0.221934
H8    H     H_    0.632711 0.640301 0.381490 0.231018
C61   C     C_R   0.478221 0.944398 0.917474 -0.003302
C62   C     C_R   0.522823 0.088258 0.067148 0.001326
C63   C     C_R   0.522877 0.403851 0.573551 0.005817
C64   C     C_R   0.477978 0.551155 0.424897 0.002528
C65   C     C_R   0.472912 0.128158 0.034795 0.094053
C66   C     C_R   0.529959 0.949750 0.940504 0.072119
C67   C     C_R   0.529619 0.542252 0.446761 0.071165
C68   C     C_R   0.472598 0.367271 0.542069 0.073520
C69   C     C_R   0.450003 0.041830 0.962372 0.023564
C70   C     C_R   0.551741 0.008886 0.018520 0.008753
C71   C     C_R   0.551667 0.482029 0.524355 0.009615
C72   C     C_R   0.449692 0.455152 0.470085 0.019731
C73   C     C_R   0.453873 0.837989 0.852831 -0.202631
C74   C     C_R   0.543905 0.114268 0.147858 -0.199508
C75   C     C_R   0.544542 0.376062 0.653919 -0.205676
C76   C     C_R   0.453892 0.662705 0.361994 -0.200891
C77   C     C_R   0.403652 0.846593 0.824229 0.437999
C78   C     C_R   0.593574 0.088807 0.178962 0.432780
C79   C     C_R   0.594435 0.399304 0.684011 0.425642
C80   C     C_R   0.403481 0.661030 0.335271 0.442212
O25   O     O_2   0.298195 0.875744 0.779742 -0.425360
O26   O     O_2   0.699330 0.087430 0.222645 -0.424431
O27   O     O_2   0.700275 0.396058 0.725086 -0.419848
O28   O     O_2   0.299086 0.606974 0.282438 -0.433515
C81   C     C_R   0.561006 0.901836 0.888724 0.181027
C82   C     C_R   0.444975 0.252439 0.070966 0.141708
C83   C     C_R   0.444212 0.245564 0.578699 0.158710
C84   C     C_R   0.560257 0.588929 0.394226 0.172140
H9    H     H_    0.155260 0.331875 0.749111 0.159770
H10   H     H_    0.841537 0.666251 0.240844 0.153041
H11   H     H_    0.841603 0.834143 0.740354 0.163312
H12   H     H_    0.155819 0.162068 0.255387 0.146826
H13   H     H_    0.473681 0.738234 0.825879 0.220064
H14   H     H_    0.521137 0.144339 0.188835 0.219681
H15   H     H_    0.522161 0.346754 0.695539 0.221648
H16   H     H_    0.474225 0.762107 0.335779 0.219527
N5    N     N_3   0.009843 0.254036 0.481370 -0.640906
H17   H     H_    0.981247 0.343789 0.484795 0.225931
H18   H     H_    0.042327 0.314465 0.511491 0.223410
N6    N     N_3   0.990105 0.745989 0.518614 -0.642515
H19   H     H_    0.018698 0.656205 0.515205 0.231051
H20   H     H_    0.957620 0.685589 0.488478 0.217616
N7    N     N_3   0.990224 0.754034 0.018789 -0.641224
H21   H     H_    0.018832 0.843947 0.015376 0.224085
H22   H     H_    0.957746 0.814260 0.988733 0.224820
N8    N     N_3   0.009775 0.245966 0.981213 -0.641448
H23   H     H_    0.981167 0.156053 0.984626 0.231405
H24   H     H_    0.042252 0.185738 0.011272 0.216331
S1    S     S_3+6 0.763080 0.267182 0.042262 0.048356
O29   O     O_2   0.755616 0.204180 0.957716 -0.246910
O30   O     O_2   0.715499 0.333333 0.057898 -0.327760
O31   O     O_3   0.803128 0.444140 0.057246 -0.524032
H25   H     H_    0.786712 0.546963 0.023793 0.392602
S2    S     S_3+6 0.242354 0.769487 0.961803 0.083702
O32   O     O_2   0.285666 0.682712 0.938674 -0.294082
O33   O     O_2   0.258676 0.859560 0.041528 -0.274790
O34   O     O_3   0.201794 0.600911 0.967590 -0.478872
H26   H     H_    0.183245 0.647211 0.006159 0.336907
S3    S     S_3+6 0.241327 0.738609 0.462398 0.053201
O35   O     O_2   0.257295 0.653465 0.543077 -0.258785
O36   O     O_2   0.284526 0.824683 0.438440 -0.310492
O37   O     O_3   0.199929 0.905147 0.465712 -0.515077
H27   H     H_    0.215831 0.990501 0.508474 0.400492
S4    S     S_3+6 0.763336 0.227903 0.543993 0.076895
O38   O     O_2   0.714467 0.166396 0.555636 -0.305053
O39   O     O_2   0.758256 0.289263 0.459612 -0.272117
O40   O     O_3   0.801764 0.046224 0.561841 -0.492876
H28   H     H_    0.824553 0.063664 0.526201 0.337307
N9    N     N_3   0.250655 0.350765 0.780474 -0.551241
H29   H     H_    0.273142 0.280744 0.749393 0.280823
H30   H     H_    0.272726 0.420873 0.827761 0.307235
N10   N     N_3   0.744750 0.661058 0.202551 -0.569133
H31   H     H_    0.755188 0.528886 0.187316 0.291870
H32   H     H_    0.750895 0.666917 0.264249 0.280898
N11   N     N_3   0.745940 0.838132 0.705123 -0.559335
H33   H     H_    0.725003 0.772477 0.740075 0.276783
H34   H     H_    0.722342 0.892463 0.655407 0.291881
N12   N     N_3   0.252214 0.142290 0.292813 -0.531383
H35   H     H_    0.240690 0.011620 0.307983 0.294864
H36   H     H_    0.245625 0.148848 0.231095 0.275457
S5    S     S_3+6 0.380738 0.720169 0.735376 0.063929
O41   O     O_2   0.347693 0.567373 0.751235 -0.281077
O42   O     O_2   0.353100 0.849843 0.673636 -0.280443
O43   O     O_3   0.426285 0.624165 0.700256 -0.526668
H37   H     H_    0.412603 0.601727 0.643371 0.361230
S6    S     S_3+6 0.613452 0.116857 0.283165 0.039046
O44   O     O_2   0.644576 0.954556 0.317164 -0.286725
O45   O     O_2   0.642456 0.293549 0.299872 -0.280969
O46   O     O_3   0.565922 0.128937 0.327338 -0.533834
H38   H     H_    0.580416 0.149648 0.384100 0.369011
S7    S     S_3+6 0.615192 0.369674 0.787932 0.031383
O47   O     O_2   0.643830 0.192199 0.803281 -0.282944
O48   O     O_2   0.647004 0.530686 0.821750 -0.295674
O49   O     O_3   0.568254 0.358303 0.833488 -0.534598
H39   H     H_    0.583247 0.338646 0.890113 0.369997
S8    S     S_3+6 0.379841 0.812894 0.254937 0.076265
O50   O     O_2   0.356678 0.699983 0.183573 -0.261860
O51   O     O_2   0.342754 0.939879 0.277533 -0.277046
O52   O     O_3   0.424107 0.944160 0.231430 -0.521017
H40   H     H_    0.407217 0.027805 0.188906 0.366473
N13   N     N_3   0.543224 0.887043 0.804827 -0.645336
H41   H     H_    0.560196 0.988453 0.777011 0.293129
H42   H     H_    0.553144 0.756748 0.786475 0.267257
N14   N     N_3   0.467475 0.382173 0.130779 -0.654129
H43   H     H_    0.459296 0.516988 0.109257 0.269069
H44   H     H_    0.452115 0.364629 0.180155 0.262765
N15   N     N_3   0.466225 0.115459 0.638525 -0.650208
H45   H     H_    0.451160 0.135304 0.688083 0.270877
H46   H     H_    0.457268 0.980810 0.617252 0.267574
N16   N     N_3   0.541826 0.603392 0.310480 -0.644607
H47   H     H_    0.551754 0.733387 0.291842 0.272798
H48   H     H_    0.558441 0.501635 0.282273 0.296018

loop_
_geom_bond_atom_site_label_1
_geom_bond_atom_site_label_2
_ccdc_geom_bond_type
C52   C84   A    
O1    C5    A    
O34   H26   S    
C23   C27   A    
C46   C50   A    
O19   V1    S    
O13   V1    S    
N13   H41   S    
O3    C7    A    
C11   C12   D    
C48   C52   A    
C21   C37   A    
C42   C69   A    
N12   H35   S    
C78   S6    S    
C41   C70   A    
N11   H34   S    
S5    O41   D    
O7    C3    A    
N5    H18   S    
C66   C81   A    
C81   N13   S    
C43   C72   A    
C80   S8    S    
C43   C47   A    
C25   C57   A    
C65   C82   A    
C32   C36   A    
O2    V4    S    
S4    O38   D    
C79   S7    S    
C67   C84   A    
C14   O22   S    
N4    C20   A    
S1    O30   D    
C22   C26   A    
O4    C8    A    
C20   O27   S    
C29   H1    S    
C26   H9    S    
C61   C69   A    
N7    H21   S    
C31   H3    S    
O1    V3    S    
C61   C73   A    
O43   H37   S    
C28   H11   S    
C62   C65   A    
C63   C71   A    
N9    H29   S    
O3    V1    S    
C83   N15   S    
C50   C82   A    
C21   N10   S    
C84   N16   S    
C64   C76   A    
C1    O15   A    
S3    O35   D    
C2    O16   A    
O20   V2    S    
C24   C40   A    
O2    C6    A    
N14   H43   S    
C16   C48   A    
C63   C68   A    
O14   V2    S    
N1    C17   A    
C76   C80   A    
C44   C56   A    
O5    V1    S    
C36   C40   A    
S4    O39   D    
O11   C7    A    
O49   H39   S    
O15   V3    S    
O52   H40   S    
O12   C8    A    
C73   H13   S    
C33   S1    S    
C19   O28   S    
N13   H42   S    
C22   N9    S    
C31   C59   A    
C53   C78   A    
C18   O25   S    
C67   C71   A    
N4    C40   S    
S8    O52   S    
C1    C60   S    
C29   C57   A    
N8    H24   S    
C36   S4    S    
C15   O23   S    
C31   C35   A    
C27   H12   S    
O7    V3    S    
C50   H6    S    
C24   N11   S    
N1    C37   S    
N15   H45   S    
O8    V4    S    
C17   C53   A    
C4    C57   S    
C20   C56   A    
N6    H19   S    
C32   H4    S    
S2    O34   S    
S8    O51   D    
S5    O42   D    
C9    N5    S    
O40   H28   S    
C64   C72   A    
C30   C34   A    
O18   V4    S    
N3    C19   A    
C14   C46   A    
C7    C9    S    
O10   V2    S    
C15   N3    A    
C13   C45   A    
C8    C10   S    
C68   C72   A    
C15   C47   A    
C63   C75   A    
S7    O48   D    
O5    C1    A    
C62   C74   A    
C25   H10   S    
N11   H33   S    
C22   C38   A    
C45   C49   A    
O8    C4    A    
N3    C39   S    
S3    O36   D    
C9    C10   D    
C74   H14   S    
S3    O37   S    
O9    C5    A    
C27   C59   A    
C42   C54   A    
C56   C79   A    
C26   C58   A    
C41   C53   A    
S2    O32   D    
C74   C78   A    
C73   C77   A    
C12   N8    S    
O6    V2    S    
N14   H44   S    
C2    C59   S    
C75   C79   A    
C19   C55   A    
C23   N12   S    
S1    O31   S    
O12   V4    S    
C32   C60   A    
C13   N1    A    
C61   C66   A    
N2    C38   S    
N10   H31   S    
C34   S2    S    
N8    H23   S    
O16   V4    S    
S5    O43   S    
O9    V1    S    
S7    O47   D    
N7    H22   S    
C65   C69   A    
C16   N4    A    
C3    O13   A    
C21   C25   A    
C49   C81   A    
S2    O33   D    
O17   V3    S    
S4    O40   S    
C44   C48   A    
C51   C83   A    
S8    O50   D    
O6    C2    A    
C52   H8    S    
N12   H36   S    
O11   V3    S    
C76   H16   S    
O37   H27   S    
C6    C12   S    
N5    H17   S    
N2    C18   A    
N16   H48   S    
C82   N14   S    
O10   C6    A    
S6    O46   S    
C30   H2    S    
C5    C11   S    
S7    O49   S    
C55   C80   A    
S1    O29   D    
C47   C51   A    
C77   S5    S    
C3    C58   S    
C34   C38   A    
C75   H15   S    
C44   C71   A    
C33   C37   A    
C17   O26   S    
C30   C58   A    
C10   N6    S    
N10   H32   S    
C54   C77   A    
C35   C39   A    
C68   C83   A    
C13   O21   S    
O46   H38   S    
O4    V2    S    
C14   N2    A    
C62   C70   A    
C18   C54   A    
C29   C33   A    
C16   O24   S    
C24   C28   A    
O31   H25   S    
C41   C45   A    
C66   C70   A    
N16   H47   S    
C42   C46   A    
C4    O14   A    
N15   H46   S    
C49   H5    S    
C51   H7    S    
N6    H20   S    
S6    O44   D    
C28   C60   A    
S6    O45   D    
C64   C67   A    
C23   C39   A    
C43   C55   A    
C11   N7    S    
C35   S3    S    
N9    H30   S    
