data_mof_unit_66637.cif
_audit_creation_date              2013-03-05T15:58:59-0500
_audit_creation_method            fapswitch 2.2
_symmetry_space_group_name_H-M    P1
_symmetry_Int_Tables_number       1
_space_group_crystal_system       triclinic
_cell_length_a                    8.505855
_cell_length_b                    12.974338
_cell_length_c                    15.251457
_cell_angle_alpha                 95.028041
_cell_angle_beta                  98.010674
_cell_angle_gamma                 97.880572
_cell_volume                      1641.14785368

loop_
_atom_site_label
_atom_site_type_symbol
_atom_site_description
_atom_site_fract_x
_atom_site_fract_y
_atom_site_fract_z
_atom_type_partial_charge
P1    P     P_3+3 0.998730 0.403530 0.291970 0.583790
O1    O     O_2   0.827880 0.435260 0.277750 -0.359617
O2    O     O_3   0.100280 0.438960 0.391170 -0.295082
O3    O     O_3   0.625580 0.634130 0.333250 -0.336232
O4    O     O_2   0.713364 0.578989 0.181926 -0.429542
O5    O     O_3   0.938330 0.268065 0.285394 -0.523751
O6    O     O_3   0.623717 0.762490 0.194182 -0.506189
H1    H     H_    0.766348 0.810069 0.316132 0.099264
C1    C     C_3   0.700845 0.942005 0.252950 0.054784
H2    H     H_    0.743843 0.993923 0.315742 0.073493
H3    H     H_    0.795569 0.944997 0.210440 0.145824
P2    P     P_3+3 0.687380 0.751030 0.571310 0.486632
P3    P     P_3+3 0.115678 0.827386 0.381243 0.460856
O7    O     O_2   0.857130 0.766340 0.543890 -0.375625
O8    O     O_3   0.056550 0.691050 0.379010 -0.334130
O9    O     O_2   0.013949 0.879595 0.443701 -0.405168
O10   O     O_3   0.700284 0.773192 0.689007 -0.532726
O11   O     O_3   0.045334 0.866833 0.276923 -0.618076
C2    C     C_3   0.067923 0.794960 0.206403 0.689158
H4    H     H_    0.006787 0.715135 0.212694 0.034013
C3    C     C_3   0.996848 0.827731 0.116179 0.562572
H5    H     H_    0.864501 0.820230 0.110701 0.035187
C4    C     C_3   0.251865 0.766432 0.642111 0.395738
H6    H     H_    0.356692 0.737963 0.617888 0.105795
H7    H     H_    0.141906 0.741185 0.592421 0.142158
C5    C     C_3   0.278101 0.883314 0.654486 -0.952559
H8    H     H_    0.409084 0.910435 0.672036 0.242231
H9    H     H_    0.226743 0.911199 0.591881 0.264114
H10   H     H_    0.215283 0.913009 0.708421 0.310343
Ba1   Ba    Ba6+2 0.843750 0.550210 0.455600 1.640792
C6    C     C_3   0.066052 0.221345 0.322993 0.473349
H11   H     H_    0.067158 0.223500 0.395003 0.157997
H12   H     H_    0.180237 0.261900 0.310303 0.101750
C7    C     C_3   0.048081 0.107896 0.285244 -0.799814
H13   H     H_    0.955936 0.092708 0.225115 0.309725
H14   H     H_    0.014116 0.056264 0.336003 0.215620
H15   H     H_    0.163018 0.089691 0.265973 0.297878
C8    C     C_3   0.847683 0.760195 0.738821 0.437054
H16   H     H_    0.951301 0.777721 0.703518 0.145467
H17   H     H_    0.843148 0.680771 0.758942 -0.002775
C9    C     C_3   0.873710 0.829975 0.826644 -0.790311
H18   H     H_    0.839450 0.907409 0.816069 0.268510
H19   H     H_    0.001800 0.839698 0.857385 0.266861
H20   H     H_    0.797336 0.794739 0.873025 0.248453
P4    P     P_3+3 0.190990 0.596560 0.708040 0.474981
O12   O     O_2   0.361830 0.564780 0.722310 -0.335799
O13   O     O_3   0.089430 0.561130 0.608830 -0.399850
O14   O     O_3   0.564130 0.365960 0.666760 -0.399796
O15   O     O_3   0.234662 0.731617 0.724358 -0.582153
P5    P     P_3+3 0.068901 0.173642 0.607744 0.560588
O16   O     O_3   0.601940 0.368240 0.453770 -0.354220
O17   O     O_3   0.133170 0.309040 0.621000 -0.268984
O18   O     O_2   0.174407 0.130424 0.544580 -0.360731
O19   O     O_3   0.138783 0.126211 0.707463 -0.515743
Ba2   Ba    Ba6+2 0.346090 0.449880 0.544410 1.634202
P6    P     P_3+3 0.580372 0.632714 0.218168 0.504248
C10   C     C_3   0.660303 0.829915 0.273859 0.351984
H21   H     H_    0.558787 0.824511 0.312036 0.119902
O20   O     O_3   0.587780 0.631850 0.546230 -0.397792
C11   C     C_3   0.466375 0.305786 0.259276 0.325660
H22   H     H_    0.352923 0.334935 0.237552 0.032843
H23   H     H_    0.549971 0.371411 0.299061 0.142506
C12   C     C_3   0.535445 0.270554 0.177976 -0.389115
H24   H     H_    0.475867 0.190374 0.149933 0.277826
H25   H     H_    0.663445 0.266535 0.200310 0.228367
P7    P     P_3+3 0.497780 0.237589 0.416944 0.478442
O21   O     O_2   0.332590 0.233690 0.456160 -0.398360
O22   O     O_3   0.434615 0.216021 0.302436 -0.562695
C13   C     C_3   0.089662 0.181137 0.780011 0.966027
H26   H     H_    0.962734 0.192851 0.764689 -0.075600
C14   C     C_3   0.111358 0.119020 0.859879 -0.915617
H27   H     H_    0.239551 0.109796 0.877428 0.261300
H28   H     H_    0.071648 0.159525 0.918270 0.266563
H29   H     H_    0.040089 0.040321 0.843848 0.255569
P8    P     P_3+3 0.623504 0.377336 0.785704 0.454012
C15   C     C_3   0.599186 0.177780 0.762904 0.766182
H30   H     H_    0.693204 0.208337 0.722938 0.005151
O23   O     O_2   0.515814 0.450021 0.825419 -0.345038
O24   O     O_3   0.556694 0.255927 0.819384 -0.505723
H31   H     H_    0.790153 0.127982 0.849868 0.272946
C16   C     C_3   0.672852 0.093838 0.811546 -1.164367
H32   H     H_    0.695446 0.031795 0.762422 0.275635
H33   H     H_    0.590824 0.055064 0.853201 0.280766
C17   C     C_R   0.844040 0.426020 0.833754 0.087767
C18   C     C_R   0.920209 0.426544 0.925508 -0.093901
C19   C     C_R   0.064343 0.446541 0.108963 -0.213540
C20   C     C_R   0.955430 0.358950 0.072702 0.421150
C21   C     C_R   0.867062 0.355932 0.987020 0.026920
C22   C     C_R   0.117154 0.465021 0.202998 0.124935
C23   C     C_R   0.265440 0.531730 0.230546 0.112657
C24   C     C_R   0.086352 0.534122 0.799052 0.235596
C25   C     C_R   0.151683 0.546746 0.891761 0.005240
C26   C     C_R   0.071166 0.492604 0.954562 0.100419
C27   C     C_R   0.301294 0.606937 0.922495 -0.099467
C28   C     C_R   0.378590 0.610613 0.010458 0.218154
C29   C     C_R   0.299066 0.562382 0.076359 -0.043704
C30   C     C_R   0.142588 0.503907 0.047363 -0.007877
C31   C     C_R   0.366943 0.568777 0.169309 0.162580
C32   C     C_R   0.936489 0.471186 0.772646 -0.182386
H34   H     H_    0.365686 0.649108 0.877204 0.163685
C33   C     C_R   0.779328 0.172483 0.493560 0.041558
C34   C     C_R   0.427941 0.814479 0.466257 -0.480761
C35   C     C_R   0.400567 0.981863 0.412533 -0.095124
C36   C     C_R   0.333055 0.878835 0.421872 0.278584
C37   C     C_R   0.585796 0.850177 0.508072 0.325220
C38   C     C_R   0.655667 0.957715 0.501654 -0.210691
C39   C     C_R   0.560709 0.023641 0.451250 -0.176025
C40   C     C_R   0.621212 0.133831 0.452503 0.175903
C41   C     C_R   0.865861 0.113412 0.547732 0.029161
C42   C     C_R   0.805221 0.008173 0.553121 0.381149
H35   H     H_    0.324938 0.030564 0.378421 0.178992
H36   H     H_    0.373984 0.735929 0.472370 0.198573
Cl1   Cl    Cl    0.534925 0.989637 0.194276 -0.515286
N1    N     N_2   0.521449 0.341297 0.110310 -0.142861
H37   H     H_    0.555997 0.418610 0.132789 0.214098
C43   C     C_3   0.376996 0.319667 0.045786 -0.840681
H38   H     H_    0.382990 0.374205 0.993924 0.269390
H39   H     H_    0.275834 0.331219 0.079702 0.281260
H40   H     H_    0.358729 0.238174 0.013503 0.295690
Cl2   Cl    Cl    0.040933 0.747006 0.024966 -0.702838
Cl3   Cl    Cl    0.210996 0.304832 0.811198 -0.623588
N2    N     N_2   0.453875 0.129658 0.707849 -0.051617
H41   H     H_    0.389267 0.071877 0.735879 0.219490
C44   C     C_3   0.479985 0.103222 0.620029 -0.833776
H42   H     H_    0.382064 0.047963 0.581890 0.280987
H43   H     H_    0.584988 0.063804 0.624383 0.182171
H44   H     H_    0.498321 0.176265 0.588797 0.280453
Cl4   Cl    Cl    0.006113 0.240202 0.108423 -0.709622
N3    N     N_2   0.717970 0.289345 0.966612 -0.088180
H45   H     H_    0.625646 0.332254 0.966755 0.232241
C45   C     C_3   0.687226 0.189213 0.002076 -0.631513
H46   H     H_    0.563124 0.150492 0.976229 0.233947
H47   H     H_    0.699204 0.198067 0.074147 0.260810
H48   H     H_    0.773516 0.136850 0.986010 0.277639
N4    N     N_2   0.540273 0.660363 0.029079 -0.076557
H49   H     H_    0.554997 0.737258 0.015305 0.221321
C46   C     C_3   0.652071 0.601578 0.991225 -0.781484
H50   H     H_    0.772164 0.623844 0.031047 0.285064
H51   H     H_    0.658683 0.618519 0.921596 0.238969
H52   H     H_    0.617944 0.516364 0.993753 0.237643
Cl5   Cl    Cl    0.320345 0.576460 0.343669 -0.580172
N5    N     N_2   0.880391 0.448594 0.680731 -0.092835
H53   H     H_    0.843500 0.370247 0.659822 0.176792
C47   C     C_3   0.777449 0.519171 0.645015 -0.466738
H54   H     H_    0.706132 0.481180 0.582499 0.291805
H55   H     H_    0.846763 0.591686 0.631740 0.191821
H56   H     H_    0.693345 0.541219 0.690217 0.199933
Cl6   Cl    Cl    0.898904 0.958856 0.645449 -0.704357
Cl7   Cl    Cl    0.873427 0.299282 0.482884 -0.572234
Cl8   Cl    Cl    0.274876 0.791648 0.206017 -0.570587
Cl9   Cl    Cl    0.074346 0.958933 0.101825 -0.503297

loop_
_geom_bond_atom_site_label_1
_geom_bond_atom_site_label_2
_geom_bond_distance
_ccdc_geom_bond_type
O14   Ba2   2.837680 S    
P7    O22   1.740268 S    
C20   C21   1.408319 A    
C12   H25   1.104279 S    
Ba2   O20   2.905636 S    
C7    H15   1.108695 S    
C9    H18   1.102657 S    
C32   N5    1.407823 S    
C34   H36   1.076241 S    
C2    H4    1.111705 S    
C15   O24   1.390977 S    
P6    C31   1.908070 S    
Ba1   O16   2.906218 S    
C45   H48   1.103626 S    
N1    H37   1.020227 S    
N4    H49   1.031959 S    
P4    O12   1.555918 D    
C46   H51   1.110585 S    
C5    H8    1.108875 S    
P5    O19   1.748552 S    
P3    O11   1.764290 S    
C11   C12   1.506275 S    
C21   N3    1.412050 S    
C35   H35   1.076825 S    
C2    C3    1.543028 S    
O11   C2    1.412152 S    
C3    Cl2   1.780588 S    
C38   C42   1.437419 A    
P2    C37   1.903034 S    
C7    H13   1.104431 S    
P8    C17   1.914582 S    
C4    O15   1.389712 S    
C38   C39   1.451423 A    
C33   C41   1.381277 A    
C2    Cl8   1.767532 S    
C43   H38   1.108320 S    
C34   C37   1.401096 A    
C11   H23   1.105397 S    
P1    O1    1.555710 D    
C4    C5    1.493444 S    
C13   C14   1.522358 S    
C19   C30   1.428474 A    
P1    Ba1   3.515649 S    
O4    P6    1.547259 D    
C12   N1    1.443407 S    
C18   C26   1.432727 A    
C28   C29   1.429329 A    
C29   C31   1.445003 A    
O12   Ba2   2.955831 S    
P5    O17   1.751939 S    
C4    H6    1.107306 S    
C6    H12   1.089833 S    
C27   H34   1.079816 S    
C1    H2    1.107425 S    
C1    C10   1.519881 S    
O17   Ba2   2.835450 S    
C33   C40   1.406294 A    
C3    Cl9   1.782687 S    
P7    O21   1.598309 D    
O13   Ba2   3.004661 S    
C3    H5    1.107264 S    
O3    P6    1.741581 S    
C9    H19   1.110111 S    
O14   P8    1.801373 S    
C13   H26   1.106449 S    
O2    Ba2   2.890084 S    
O6    P6    1.755024 S    
O7    Ba1   2.982831 S    
C47   H56   1.108083 S    
C42   Cl6   1.735584 S    
C28   N4    1.415696 S    
C20   Cl4   1.766396 S    
C16   H33   1.107601 S    
C16   H32   1.105927 S    
P4    O13   1.628465 S    
C46   H52   1.109360 S    
P5    O18   1.527115 D    
P1    O5    1.752190 S    
Ba1   O13   2.889309 S    
C15   H30   1.122287 S    
C8    C9    1.520722 S    
C47   H55   1.090095 S    
C24   C25   1.431902 A    
C14   H28   1.110765 S    
C19   C20   1.383430 A    
H31   C16   1.097368 S    
O16   Ba2   2.997139 S    
P5    C41   1.869492 S    
C11   H22   1.103161 S    
P1    O2    1.628307 S    
O16   P7    1.804544 S    
P2    O10   1.778452 S    
O2    Ba1   3.003794 S    
H1    C10   1.107368 S    
Ba2   O21   2.983150 S    
C6    H11   1.094860 S    
C13   Cl3   1.772611 S    
C39   C40   1.449060 A    
C29   C30   1.429294 A    
C25   C27   1.395018 A    
P4    O15   1.729076 S    
C6    C7    1.512155 S    
C23   C31   1.427702 A    
C17   C18   1.456877 A    
P3    C36   1.875629 S    
C34   C36   1.392267 A    
C1    H3    1.101103 S    
P4    Ba2   3.516209 S    
C44   H44   1.099380 S    
P2    O7    1.550261 D    
P3    O8    1.767400 S    
C9    H20   1.111170 S    
N5    C47   1.440923 S    
N2    C44   1.408611 S    
C45   H46   1.107226 S    
C26   C30   1.446844 A    
O8    Ba1   2.834831 S    
C44   H43   1.085510 S    
N3    H45   1.023117 S    
C37   C38   1.456784 A    
C18   C21   1.441903 A    
N4    C46   1.447068 S    
P1    C22   1.960313 S    
P2    Ba1   3.531371 S    
C17   C32   1.415624 A    
Ba1   Ba2   4.673722 S    
P7    C40   1.888252 S    
C47   H54   1.092906 S    
C45   H47   1.084079 S    
C19   C22   1.430646 A    
C15   C16   1.525867 S    
C14   H29   1.102282 S    
N1    C43   1.441147 S    
C46   H50   1.100539 S    
C5    H9    1.105003 S    
C43   H40   1.107636 S    
O1    Ba1   2.955271 S    
C1    Cl1   1.777224 S    
N2    H41   1.027346 S    
C15   N2    1.424709 S    
C14   H27   1.111288 S    
C41   C42   1.405526 A    
C8    H17   1.097891 S    
C10   H21   1.104633 S    
C8    H16   1.103245 S    
O19   C13   1.406741 S    
C33   Cl7   1.759487 S    
C25   C26   1.431336 A    
P2    O20   1.643716 S    
C43   H39   1.084557 S    
O5    C6    1.394404 S    
C7    H14   1.109822 S    
O10   C8    1.411554 S    
C4    H7    1.109646 S    
C27   C28   1.403101 A    
P4    C24   1.928431 S    
P8    O23   1.544875 D    
C23   Cl5   1.748454 S    
C12   H24   1.113090 S    
C11   O22   1.400122 S    
C5    H10   1.110852 S    
P3    O9    1.546709 D    
C35   C36   1.408034 A    
Ba1   O20   2.997914 S    
N5    H53   1.030170 S    
C35   C39   1.419569 A    
C24   C32   1.402740 A    
C22   C23   1.416238 A    
P8    O24   1.745224 S    
O6    C10   1.404428 S    
O3    Ba1   2.838359 S    
C44   H42   1.083605 S    
N3    C45   1.455380 S    
