data_mof_unit_67977.cif
_audit_creation_date              2013-03-05T16:49:25-0500
_audit_creation_method            fapswitch 2.2
_symmetry_space_group_name_H-M    P1
_symmetry_Int_Tables_number       1
_space_group_crystal_system       triclinic
_cell_length_a                    11.067598
_cell_length_b                    9.218436
_cell_length_c                    8.444924
_cell_angle_alpha                 91.333344
_cell_angle_beta                  92.037379
_cell_angle_gamma                 91.660847
_cell_volume                      860.440267294

loop_
_atom_site_label
_atom_site_type_symbol
_atom_site_description
_atom_site_fract_x
_atom_site_fract_y
_atom_site_fract_z
_atom_type_partial_charge
O1    O     O_R   0.499990 0.285340 0.636850 -0.555174
O2    O     O_R   0.500010 0.714660 0.363150 -0.623213
O3    O     O_R   0.500010 0.285350 0.363100 -0.674669
O4    O     O_R   0.499990 0.714650 0.636900 -0.611118
C1    C     C_R   0.499951 0.218824 0.498883 0.943490
C2    C     C_R   0.499854 0.781177 0.501140 0.944003
O5    O     O_R   0.316750 0.500000 0.636870 -0.579371
O6    O     O_R   0.683250 0.500000 0.363130 -0.621116
O7    O     O_R   0.316770 0.500020 0.363120 -0.629931
O8    O     O_R   0.683230 0.499980 0.636880 -0.629917
C3    C     C_R   0.260197 0.498172 0.496336 0.992955
C4    C     C_R   0.740029 0.505272 0.501648 0.959755
Zn1   Zn    Zn3+2 0.499990 0.499990 0.682780 1.031239
Zn2   Zn    Zn3+2 0.500010 0.500010 0.317220 0.952117
H1    H     H_    0.292352 0.406887 0.878776 0.256763
H2    H     H_    0.696830 0.446555 0.114689 0.218616
C5    C     C_R   0.255153 0.599086 0.019396 0.388275
C6    C     C_R   0.743297 0.309035 0.923674 0.376602
C7    C     C_R   0.187808 0.648326 0.150425 0.297627
C8    C     C_R   0.821650 0.296728 0.797209 0.434628
C9    C     C_R   0.098301 0.553156 0.208272 -0.030151
C10   C     C_R   0.895830 0.418651 0.766245 -0.035220
C11   C     C_R   0.070084 0.418073 0.133389 0.418644
C12   C     C_R   0.888915 0.551921 0.851808 0.374798
C13   C     C_R   0.142918 0.367741 0.015964 -0.334731
C14   C     C_R   0.817458 0.556862 0.980172 -0.161930
H3    H     H_    0.126603 0.260835 0.962619 0.225546
H4    H     H_    0.799517 0.660497 0.035187 0.223613
C15   C     C_R   0.236191 0.454757 0.964848 -0.220151
C16   C     C_R   0.753799 0.433938 0.021479 -0.211781
C17   C     C_R   0.934800 0.583926 0.386825 0.582422
C18   C     C_R   0.065820 0.417380 0.599319 0.491722
C19   C     C_R   0.873994 0.507908 0.501226 -0.188500
C20   C     C_R   0.126958 0.495811 0.488348 -0.305372
C21   C     C_R   0.942409 0.431074 0.611591 -0.034485
C22   C     C_R   0.058781 0.566708 0.370330 -0.081138
C23   C     C_1   0.499752 0.064891 0.498607 -0.188562
C24   C     C_1   0.499607 0.935136 0.501505 -0.222475
N1    N     N_1   0.500020 0.500030 0.073640 -0.097076
N2    N     N_1   0.499980 0.499970 0.926360 -0.013752
O9    O     O_3   0.328396 0.686700 0.926173 -0.612332
C25   C     C_3   0.390186 0.800952 0.010629 0.153898
H5    H     H_    0.410403 0.772999 0.132710 0.237656
H6    H     H_    0.333945 0.898188 0.006254 0.140407
C26   C     C_3   0.515174 0.832946 0.946518 -0.797712
H7    H     H_    0.511289 0.913960 0.852057 0.250110
H8    H     H_    0.575933 0.868551 0.046592 0.189632
H9    H     H_    0.561682 0.738359 0.901798 0.277160
O10   O     O_3   0.634410 0.231717 0.913262 -0.612671
C27   C     C_3   0.603172 0.173974 0.059180 0.080558
H10   H     H_    0.633139 0.239542 0.164257 0.175614
H11   H     H_    0.650487 0.072140 0.073712 0.128004
C28   C     C_3   0.465914 0.151038 0.059699 -0.751890
H12   H     H_    0.429130 0.114200 0.941429 0.250135
H13   H     H_    0.442419 0.072550 0.151895 0.208771
H14   H     H_    0.419776 0.252389 0.087301 0.251775
O11   O     O_3   0.233128 0.761146 0.248088 -0.625514
C29   C     C_3   0.151868 0.874640 0.258665 0.029935
H15   H     H_    0.061416 0.836255 0.294000 0.197256
H16   H     H_    0.142929 0.928883 0.142904 0.133869
C30   C     C_3   0.202222 0.982525 0.385552 -0.842088
H17   H     H_    0.265046 0.062460 0.332887 0.234834
H18   H     H_    0.128326 0.039983 0.442413 0.225840
H19   H     H_    0.251070 0.924801 0.480906 0.282387
O12   O     O_3   0.800818 0.195213 0.673439 -0.620846
C31   C     C_3   0.785440 0.051760 0.725454 0.115456
H20   H     H_    0.691929 0.031080 0.762841 0.197068
H21   H     H_    0.850400 0.027144 0.823794 0.131058
C32   C     C_3   0.803475 0.948532 0.585813 -0.748457
H22   H     H_    0.897703 0.958114 0.547251 0.257694
H23   H     H_    0.781741 0.835255 0.618406 0.255456
H24   H     H_    0.743164 0.976140 0.484192 0.240562
O13   O     O_3   0.966932 0.340058 0.172098 -0.622671
C33   C     C_3   0.996024 0.207251 0.240279 0.080348
H25   H     H_    0.018342 0.225788 0.367713 0.184929
H26   H     H_    0.072169 0.153968 0.183538 0.134266
C34   C     C_3   0.886795 0.104612 0.223983 -0.857074
H27   H     H_    0.861820 0.086065 0.096959 0.228898
H28   H     H_    0.907687 0.998614 0.275231 0.236290
H29   H     H_    0.810366 0.151603 0.287110 0.263574
O14   O     O_3   0.918614 0.682731 0.782316 -0.646823
C35   C     C_3   0.036925 0.725393 0.830459 0.084728
H30   H     H_    0.098262 0.635649 0.808455 0.187267
H31   H     H_    0.038325 0.762129 0.956231 0.144269
C36   C     C_3   0.083075 0.849842 0.732754 -0.834645
H32   H     H_    0.037851 0.951510 0.764023 0.256035
H33   H     H_    0.181585 0.868235 0.757423 0.243129
H34   H     H_    0.067937 0.821986 0.605083 0.264655
F1    F     F_    0.873879 0.673428 0.290310 -0.731170
F2    F     F_    0.124606 0.319678 0.688082 -0.712609

loop_
_geom_bond_atom_site_label_1
_geom_bond_atom_site_label_2
_geom_bond_distance
_ccdc_geom_bond_type
C31   H21   1.110788 S    
C1    C23   1.418910 S    
C32   H24   1.107289 S    
C5    C15   1.405298 A    
O9    C25   1.405088 S    
O7    Zn2   2.078232 S    
O14   C35   1.399785 S    
C9    C22   1.455224 S    
C34   H27   1.106342 S    
C7    O11   1.383428 S    
O5    C3    1.321425 A    
C10   C21   1.426891 S    
C33   H26   1.105824 S    
O1    C1    1.303914 A    
C7    C9    1.411966 A    
C12   C14   1.365063 A    
C32   H22   1.105258 S    
C36   H32   1.106218 S    
C28   H14   1.101805 S    
C31   C32   1.520384 S    
C29   H16   1.110973 S    
C32   H23   1.107959 S    
O13   C33   1.405881 S    
C26   H8    1.099108 S    
O4    Zn1   2.025233 S    
C30   H18   1.105076 S    
Zn1   N2    2.057023 S    
C5    C7    1.428588 A    
Zn2   N1    2.057023 S    
C18   F2    1.351703 S    
C17   F1    1.350607 S    
C33   C34   1.513743 S    
C27   H11   1.095364 S    
C17   C19   1.388428 A    
C6    C16   1.400930 A    
C20   C22   1.412524 A    
C29   C30   1.524371 S    
C34   H28   1.105082 S    
C31   H20   1.105314 S    
O2    C2    1.304191 A    
C25   H6    1.106584 S    
C11   O13   1.384672 S    
H1    C15   1.068884 S    
C28   H13   1.107708 S    
C13   C15   1.376686 A    
C27   C28   1.527856 S    
C33   H25   1.103838 S    
C36   H33   1.110101 S    
C18   C21   1.382650 A    
C8    O12   1.395077 S    
O4    C2    1.312697 A    
N1    N2    1.243739 T    
C26   H9    1.091955 S    
C29   H15   1.105456 S    
C28   H12   1.107209 S    
C25   C26   1.526670 S    
C18   C20   1.380972 A    
C30   H19   1.108851 S    
C12   O14   1.389321 S    
C23   C24   1.196915 T    
O6    C4    1.307270 A    
C2    C24   1.419272 S    
C27   H10   1.097841 S    
O7    C3    1.307023 A    
O3    Zn2   2.025232 S    
O8    C4    1.324247 A    
C8    C10   1.407512 A    
C35   H30   1.101892 S    
C35   H31   1.106724 S    
C9    C11   1.405298 A    
O10   C27   1.404104 S    
C10   C12   1.416106 A    
O1    Zn1   2.007518 S    
C25   H5    1.085659 S    
C36   H34   1.108264 S    
C34   H29   1.109025 S    
O6    Zn2   2.051174 S    
C3    C20   1.473293 S    
O3    C1    1.312902 A    
O8    Zn1   2.078232 S    
C14   C16   1.375400 A    
C13   H3    1.081676 S    
C35   C36   1.515873 S    
C14   H4    1.079299 S    
O11   C29   1.402623 S    
C19   C21   1.398328 A    
C6    C8    1.404057 A    
C11   C13   1.380410 A    
C30   H17   1.109860 S    
O2    Zn2   2.007520 S    
C5    O9    1.402220 S    
C26   H7    1.105928 S    
O5    Zn1   2.051174 S    
O12   C31   1.410667 S    
C17   C22   1.397368 A    
C4    C19   1.482298 S    
H2    C16   1.032457 S    
C6    O10   1.381242 S    
