data_mof_unit_27466.cif
_audit_creation_date              2012-10-26T19:45:15-0400
_audit_creation_method            fapswitch 2.2
_symmetry_space_group_name_H-M    P1
_symmetry_Int_Tables_number       1
_space_group_crystal_system       triclinic
_cell_length_a                    9.627053
_cell_length_b                    10.838293
_cell_length_c                    13.872647
_cell_angle_alpha                 93.302616
_cell_angle_beta                  85.788394
_cell_angle_gamma                 88.846737
_cell_volume                      1440.74578018

loop_
_atom_site_label
_atom_site_type_symbol
_atom_type_description
_atom_site_fract_x
_atom_site_fract_y
_atom_site_fract_z
_atom_type_partial_charge
C1    C     C_R   0.498191 0.737668 0.504110 0.590494
C2    C     C_R   0.931130 0.420237 0.440334 0.042141
C3    C     C_1   0.533856 0.500947 0.214461 0.050800
C4    C     C_1   0.466092 0.499544 0.785564 0.058753
C5    C     C_2   0.557154 0.500719 0.024290 -0.092453
C6    C     C_2   0.442810 0.499810 0.975740 -0.092300
C7    C     C_1   0.454870 0.499673 0.872273 -0.000441
C8    C     C_1   0.545085 0.500847 0.127755 -0.000822
C9    C     C_R   0.594353 0.924652 0.441580 -0.103252
C10   C     C_R   0.406735 0.075245 0.559460 -0.118505
C11   C     C_R   0.599114 0.051922 0.435519 0.206750
C12   C     C_R   0.501913 0.262281 0.496040 0.578538
C13   C     C_R   0.402656 0.947984 0.565980 0.205291
C14   C     C_R   0.504161 0.128147 0.495791 -0.015418
C15   C     C_R   0.496525 0.871765 0.504938 -0.008154
C16   C     C_R   0.478214 0.499466 0.682618 0.579160
C17   C     C_R   0.521756 0.500903 0.317402 0.566029
C18   C     C_R   0.921473 0.583613 0.559769 0.291398
C19   C     C_R   0.078400 0.416394 0.440268 0.344686
C20   C     C_R   0.068861 0.580318 0.559270 0.013220
Cu1   Cu    Cu3+1 0.359340 0.499980 0.500000 1.106550
Cu2   Cu    Cu3+1 0.640660 0.500020 0.500000 1.109591
H1    H     H_    0.121914 0.643450 0.605849 0.231763
H2    H     H_    0.102804 0.955668 0.572336 0.383668
H3    H     H_    0.878060 0.357914 0.393185 0.243574
H4    H     H_    0.944468 0.684128 0.761717 0.334127
H5    H     H_    0.083743 0.160797 0.257271 0.399975
H6    H     H_    0.339769 0.499138 0.013362 0.160410
H7    H     H_    0.660196 0.501389 0.986669 0.156927
H8    H     H_    0.666959 0.865527 0.395594 0.185157
H9    H     H_    0.334003 0.134283 0.605440 0.176556
H10   H     H_    0.590057 0.214258 0.272105 0.351791
N1    N     N_R   0.147930 0.499970 0.499980 -0.294049
N2    N     N_R   0.852070 0.500030 0.500020 -0.297486
O1    O     O_R   0.381260 0.680340 0.500000 -0.473581
O2    O     O_2   0.701821 0.699130 0.677569 -0.246651
O3    O     O_3   0.947016 0.754877 0.719528 -0.438621
O4    O     O_2   0.297324 0.300398 0.323257 -0.275448
O5    O     O_2   0.159294 0.179118 0.436134 -0.278448
O6    O     O_3   0.051874 0.245273 0.281217 -0.482673
O7    O     O_2   0.853738 0.133227 0.408240 -0.209169
O8    O     O_2   0.766833 0.012533 0.272515 -0.257866
O9    O     O_3   0.673911 0.238051 0.305410 -0.500384
O10   O     O_2   0.321005 0.772219 0.687471 -0.245605
O11   O     O_2   0.243594 0.984947 0.733037 -0.239267
O12   O     O_R   0.618740 0.319660 0.500000 -0.467715
O13   O     O_3   0.130588 0.871910 0.590023 -0.451548
O14   O     O_R   0.618830 0.680370 0.500010 -0.454629
O15   O     O_R   0.381170 0.319630 0.499990 -0.454056
O16   O     O_R   0.364420 0.499960 0.637840 -0.503455
O17   O     O_R   0.635580 0.500040 0.362160 -0.490974
O18   O     O_R   0.601990 0.499990 0.637850 -0.465014
O19   O     O_R   0.398010 0.500010 0.362150 -0.458170
O20   O     O_2   0.839018 0.820706 0.565377 -0.217232
S1    S     S_3+6 0.844489 0.714687 0.630258 0.083230
S2    S     S_3+6 0.154713 0.284574 0.370561 0.063085
S3    S     S_3+6 0.727783 0.108194 0.353301 0.051602
S4    S     S_3+6 0.275062 0.892031 0.649155 0.068120

loop_
_geom_bond_atom_site_label_1
_geom_bond_atom_site_label_2
_ccdc_geom_bond_type
C19   S2    S    
C4    C16   S    
C5    C8    S    
Cu2   O14   S    
H4    O3    S    
C6    C7    S    
Cu1   O1    S    
C9    C11   A    
C5    H7    S    
O5    S2    D    
C20   H1    S    
H5    O6    S    
C2    N2    A    
Cu1   O15   S    
C12   O15   A    
C9    C15   A    
O7    S3    D    
C1    O14   A    
O2    S1    D    
Cu1   Cu2   S    
O13   S4    S    
Cu1   O19   S    
C18   N2    A    
C17   O17   A    
C9    H8    S    
C4    C7    T    
C1    C15   S    
C20   N1    A    
C18   S1    S    
O8    S3    D    
Cu2   O18   S    
Cu1   O16   S    
Cu2   O12   S    
H10   O9    S    
C12   C14   S    
C3    C17   S    
C2    H3    S    
C18   C20   A    
C13   C15   A    
C19   N1    A    
C5    C6    D    
Cu2   N2    S    
C11   C14   A    
O11   S4    D    
Cu1   N1    S    
O9    S3    S    
O3    S1    S    
C17   O19   A    
O4    S2    D    
C1    O1    A    
C12   O12   A    
C3    C8    T    
C10   C14   A    
O10   S4    D    
O20   S1    D    
C13   S4    S    
C2    C19   A    
C11   S3    S    
H2    O13   S    
C10   H9    S    
C6    H6    S    
C16   O18   A    
C16   O16   A    
Cu2   O17   S    
O6    S2    S    
C10   C13   A    
