data_mof_unit_59747.cif
_audit_creation_date              2012-12-11T14:08:18-0500
_audit_creation_method            fapswitch 2.2
_symmetry_space_group_name_H-M    P1
_symmetry_Int_Tables_number       1
_space_group_crystal_system       triclinic
_cell_length_a                    28.120823
_cell_length_b                    7.180054
_cell_length_c                    17.308687
_cell_angle_alpha                 89.999869
_cell_angle_beta                  101.580113
_cell_angle_gamma                 90.00044
_cell_volume                      3423.6438542

loop_
_atom_site_label
_atom_site_type_symbol
_atom_type_description
_atom_site_fract_x
_atom_site_fract_y
_atom_site_fract_z
_atom_type_partial_charge
O1    O     O_R   0.000700 0.436510 0.857920 -0.518831
O2    O     O_R   0.999300 0.563490 0.142080 -0.518238
O3    O     O_R   0.999300 0.936510 0.642080 -0.518819
O4    O     O_R   0.000700 0.063490 0.357920 -0.518244
O5    O     O_R   0.930080 0.766380 0.721890 -0.544397
O6    O     O_R   0.069920 0.233620 0.278110 -0.509831
O7    O     O_R   0.069920 0.266380 0.778110 -0.544421
O8    O     O_R   0.930080 0.733620 0.221890 -0.509830
C1    C     C_R   0.910443 0.597529 0.707962 0.726976
C2    C     C_R   0.089546 0.402243 0.291396 0.729296
C3    C     C_R   0.089558 0.097529 0.792034 0.726969
C4    C     C_R   0.910454 0.902240 0.208603 0.729283
O9    O     O_R   0.996180 0.766230 0.862310 -0.548027
O10   O     O_R   0.003820 0.233770 0.137690 -0.547895
O11   O     O_R   0.003820 0.266230 0.637690 -0.548017
O12   O     O_R   0.996180 0.733770 0.362310 -0.547889
O13   O     O_R   0.065870 0.936460 0.783500 -0.509674
O14   O     O_R   0.934130 0.063540 0.216500 -0.546782
O15   O     O_R   0.934130 0.436460 0.716500 -0.509682
O16   O     O_R   0.065870 0.563540 0.283500 -0.546775
C5    C     C_R   0.999181 0.596349 0.894613 0.706651
C6    C     C_R   0.000721 0.403661 0.105362 0.710342
C7    C     C_R   0.000818 0.096349 0.605386 0.706720
C8    C     C_R   0.999278 0.903660 0.394638 0.710350
O17   O     O_3   0.022790 0.603020 0.723980 -0.362876
O18   O     O_3   0.977210 0.396980 0.276020 -0.366562
O19   O     O_3   0.977210 0.103020 0.776020 -0.362884
O20   O     O_3   0.022790 0.896980 0.223980 -0.366557
V1    V     V_3+5 0.995770 0.877900 0.754830 1.491500
V2    V     V_3+5 0.004230 0.122100 0.245170 1.480582
V3    V     V_3+5 0.004230 0.377900 0.745170 1.491474
V4    V     V_3+5 0.995770 0.622100 0.254830 1.480596
C9    C     C_2   0.995236 0.081909 0.517955 -0.000716
C10   C     C_2   0.004932 0.918196 0.482081 0.003843
C11   C     C_2   0.004763 0.581908 0.982044 -0.000702
C12   C     C_2   0.995065 0.418197 0.017919 0.003868
C13   C     C_R   0.682913 0.960242 0.028251 0.613216
C14   C     C_R   0.316960 0.069072 0.979602 0.615142
C15   C     C_R   0.317086 0.460283 0.471737 0.613276
C16   C     C_R   0.683041 0.569100 0.520397 0.615321
O21   O     O_2   0.712358 0.928497 0.976992 -0.489807
O22   O     O_2   0.286604 0.058522 0.030689 -0.487502
O23   O     O_2   0.287639 0.428529 0.522995 -0.489770
O24   O     O_2   0.713398 0.558597 0.469309 -0.487375
N1    N     N_R   0.702684 0.972820 0.107136 -0.549697
N2    N     N_R   0.297876 0.085710 0.900587 -0.551749
N3    N     N_R   0.297315 0.472874 0.392854 -0.549692
N4    N     N_R   0.702124 0.585721 0.599414 -0.551787
C17   C     C_R   0.674497 0.014655 0.160668 0.575345
C18   C     C_R   0.327340 0.104701 0.847082 0.575740
C19   C     C_R   0.325503 0.514719 0.339323 0.575309
C20   C     C_R   0.672659 0.604707 0.652918 0.575721
C21   C     C_R   0.783384 0.105678 0.157332 -0.100295
C22   C     C_R   0.221446 0.251050 0.849659 -0.105992
C23   C     C_R   0.216614 0.605707 0.342656 -0.100279
C24   C     C_R   0.778554 0.751063 0.650356 -0.105908
C25   C     C_R   0.833493 0.087962 0.182181 -0.266833
C26   C     C_R   0.171167 0.253352 0.823033 -0.256769
C27   C     C_R   0.166505 0.587976 0.317804 -0.266852
C28   C     C_R   0.828833 0.753365 0.676974 -0.256646
C29   C     C_R   0.827303 0.754633 0.157834 0.457688
C30   C     C_R   0.168161 0.919541 0.845086 0.451966
C31   C     C_R   0.172698 0.254661 0.342165 0.457693
C32   C     C_R   0.831840 0.419543 0.654885 0.451913
C33   C     C_R   0.776345 0.772219 0.135850 0.154032
C34   C     C_R   0.219187 0.917334 0.869294 0.152505
C35   C     C_R   0.223657 0.272259 0.364136 0.153996
C36   C     C_R   0.780813 0.417336 0.630686 0.152447
C37   C     C_R   0.754416 0.949552 0.133735 0.260024
C38   C     C_R   0.245823 0.084589 0.873332 0.266059
C39   C     C_R   0.245584 0.449593 0.366253 0.260006
C40   C     C_R   0.754177 0.584596 0.626671 0.266016
C41   C     C_R   0.602769 0.025109 0.055323 -0.112035
C42   C     C_R   0.398721 0.083336 0.952752 -0.112938
C43   C     C_R   0.397232 0.525146 0.444669 -0.112037
C44   C     C_R   0.601279 0.583348 0.547245 -0.113010
C45   C     C_R   0.632319 0.982540 0.000512 -0.113701
C46   C     C_R   0.367894 0.064183 0.007573 -0.116417
C47   C     C_R   0.367680 0.482575 0.499479 -0.113681
C48   C     C_R   0.632106 0.564192 0.492425 -0.116332
C49   C     C_R   0.610485 0.962458 0.920057 0.481619
C50   C     C_R   0.388809 0.038513 0.088156 0.480057
C51   C     C_R   0.389512 0.462479 0.579934 0.481680
C52   C     C_R   0.611195 0.538500 0.411840 0.480338
C53   C     C_R   0.624202 0.042532 0.135783 -0.078911
C54   C     C_R   0.378144 0.104952 0.872139 -0.077591
C55   C     C_R   0.375799 0.542580 0.364209 -0.078877
C56   C     C_R   0.621855 0.604965 0.627858 -0.077591
C57   C     C_R   0.856467 0.913542 0.182799 -0.217392
C58   C     C_R   0.143536 0.088868 0.820028 -0.217443
C59   C     C_R   0.143533 0.413555 0.317196 -0.217383
C60   C     C_R   0.856464 0.588872 0.679965 -0.217509
C61   C     C_R   0.480582 0.085601 0.922070 0.036720
C62   C     C_R   0.522090 0.080953 0.085972 0.033094
C63   C     C_R   0.519418 0.585618 0.577924 0.036713
C64   C     C_R   0.477912 0.580967 0.414022 0.033074
C65   C     C_R   0.470702 0.068998 0.059881 -0.016991
C66   C     C_R   0.530872 0.044428 0.948264 -0.014923
C67   C     C_R   0.529300 0.569006 0.440115 -0.016901
C68   C     C_R   0.469128 0.544448 0.551729 -0.014899
C69   C     C_R   0.450105 0.080094 0.978296 0.042964
C70   C     C_R   0.551832 0.050856 0.029806 0.043053
C71   C     C_R   0.549896 0.580109 0.521700 0.042980
C72   C     C_R   0.448168 0.550881 0.470187 0.043056
C73   C     C_R   0.458968 0.130443 0.842271 0.183332
C74   C     C_R   0.545435 0.120392 0.165537 0.185326
C75   C     C_R   0.541031 0.630459 0.657724 0.183340
C76   C     C_R   0.454569 0.620406 0.334456 0.185375
C77   C     C_R   0.408532 0.132643 0.818374 -0.139409
C78   C     C_R   0.595460 0.094876 0.189389 -0.137470
C79   C     C_R   0.591466 0.632659 0.681623 -0.139344
C80   C     C_R   0.404543 0.594912 0.310603 -0.137342
O25   O     O_2   0.307513 0.122368 0.769693 -0.513567
O26   O     O_2   0.695102 0.029341 0.237858 -0.521371
O27   O     O_2   0.692485 0.622363 0.730309 -0.513579
O28   O     O_2   0.304898 0.529433 0.262135 -0.521486
C81   C     C_R   0.560209 0.985034 0.896035 -0.294772
C82   C     C_R   0.439440 0.033594 0.112262 -0.292810
C83   C     C_R   0.439790 0.485047 0.603956 -0.294822
C84   C     C_R   0.560561 0.533575 0.387736 -0.293074
H1    H     H_    0.153979 0.385190 0.804498 0.213443
H2    H     H_    0.854290 0.212319 0.201205 0.210334
H3    H     H_    0.846022 0.885213 0.695507 0.213425
H4    H     H_    0.145707 0.712321 0.298771 0.210326
H5    H     H_    0.241761 0.379287 0.851384 0.171100
H6    H     H_    0.766861 0.241855 0.156719 0.189285
H7    H     H_    0.758239 0.879304 0.648643 0.171077
H8    H     H_    0.233135 0.741885 0.343268 0.189305
H9    H     H_    0.393187 0.162559 0.757113 0.209290
H10   H     H_    0.612059 0.123255 0.250364 0.194462
H11   H     H_    0.606810 0.662577 0.742884 0.209305
H12   H     H_    0.387945 0.623286 0.249628 0.194446
H13   H     H_    0.544291 0.947277 0.836316 0.176846
H14   H     H_    0.453810 0.992924 0.172181 0.177639
H15   H     H_    0.455710 0.447269 0.663672 0.176822
H16   H     H_    0.546183 0.492837 0.327829 0.177559
N5    N     N_3   0.974882 0.239198 0.470642 -0.647706
H17   H     H_    0.972547 0.356610 0.505243 0.233365
H18   H     H_    0.939214 0.204531 0.444117 0.215601
N6    N     N_3   0.025341 0.760984 0.529397 -0.645914
H19   H     H_    0.028002 0.643964 0.494733 0.234839
H20   H     H_    0.060906 0.796242 0.556268 0.218132
N7    N     N_3   0.025121 0.739190 0.029358 -0.647707
H21   H     H_    0.027438 0.856626 0.994762 0.233387
H22   H     H_    0.060794 0.704544 0.055852 0.215592
N8    N     N_3   0.974653 0.260990 0.970603 -0.645927
H23   H     H_    0.971985 0.143979 0.005268 0.234817
H24   H     H_    0.939090 0.296262 0.943727 0.218117
O29   O     O_3   0.847995 0.579911 0.158022 -0.541867
C85   C     C_3   0.857196 0.544479 0.082184 -0.189229
H25   H     H_    0.881761 0.651252 0.064700 0.111178
H26   H     H_    0.822847 0.536237 0.037351 0.160832
H27   H     H_    0.875712 0.407806 0.083135 0.139675
O30   O     O_3   0.143045 0.753180 0.841839 -0.539879
C86   C     C_3   0.133085 0.716328 0.917082 -0.176545
H28   H     H_    0.111304 0.830054 0.936655 0.102874
H29   H     H_    0.167032 0.693519 0.961631 0.159010
H30   H     H_    0.111342 0.586568 0.913655 0.139198
O31   O     O_3   0.152008 0.079940 0.341992 -0.541871
C87   C     C_3   0.142822 0.044523 0.417836 -0.189256
H31   H     H_    0.118224 0.151193 0.435293 0.111219
H32   H     H_    0.177170 0.036465 0.462676 0.160818
H33   H     H_    0.124350 0.907774 0.416916 0.139720
O32   O     O_3   0.856959 0.253189 0.658054 -0.539872
C88   C     C_3   0.866933 0.216589 0.582794 -0.176390
H34   H     H_    0.832989 0.193903 0.538230 0.159002
H35   H     H_    0.888674 0.086829 0.586145 0.139136
H36   H     H_    0.888705 0.330441 0.563279 0.102830
N9    N     N_3   0.747410 0.607775 0.117332 -0.653132
H37   H     H_    0.728771 0.615676 0.058832 0.257930
H38   H     H_    0.721920 0.603566 0.153741 0.234038
N10   N     N_3   0.243490 0.742783 0.887853 -0.657764
H39   H     H_    0.261563 0.744965 0.946779 0.257524
H40   H     H_    0.269327 0.727656 0.852471 0.231354
N11   N     N_3   0.252595 0.107822 0.382633 -0.653104
H41   H     H_    0.271243 0.115708 0.441127 0.257923
H42   H     H_    0.278078 0.103643 0.346211 0.234051
N12   N     N_3   0.756513 0.242779 0.612096 -0.657680
H43   H     H_    0.738443 0.245002 0.553168 0.257571
H44   H     H_    0.730673 0.227609 0.647475 0.231309
O33   O     O_3   0.637470 0.903550 0.865879 -0.522408
C89   C     C_3   0.639000 0.046889 0.810572 -0.127837
H45   H     H_    0.651064 0.181633 0.840033 0.140410
H46   H     H_    0.603310 0.063723 0.769796 0.107037
H47   H     H_    0.665783 0.007963 0.774248 0.184385
O34   O     O_3   0.359955 0.999686 0.142337 -0.522226
C90   C     C_3   0.364007 0.145923 0.197820 -0.102588
H48   H     H_    0.357376 0.284295 0.168508 0.146243
H49   H     H_    0.399917 0.144139 0.238783 0.100603
H50   H     H_    0.335965 0.125942 0.233916 0.175678
O35   O     O_3   0.362524 0.403559 0.634106 -0.522380
C91   C     C_3   0.361037 0.546794 0.689476 -0.127953
H51   H     H_    0.349043 0.681688 0.660076 0.140325
H52   H     H_    0.396726 0.563312 0.730293 0.107125
H53   H     H_    0.334218 0.507937 0.725748 0.184445
O36   O     O_3   0.640062 0.499626 0.357679 -0.522135
C92   C     C_3   0.635864 0.645411 0.301952 -0.102896
H54   H     H_    0.642213 0.784225 0.331019 0.145728
H55   H     H_    0.599999 0.642485 0.260829 0.100952
H56   H     H_    0.664035 0.625757 0.266061 0.175859
N13   N     N_3   0.485990 0.203782 0.786969 -0.707884
H57   H     H_    0.491911 0.098806 0.748210 0.242270
H58   H     H_    0.518529 0.264940 0.815373 0.237773
N14   N     N_3   0.521743 0.215223 0.220370 -0.699861
H59   H     H_    0.511841 0.119318 0.259665 0.232304
H60   H     H_    0.491892 0.292156 0.191530 0.233059
N15   N     N_3   0.514007 0.703790 0.713025 -0.707863
H61   H     H_    0.508086 0.598810 0.751783 0.242255
H62   H     H_    0.481468 0.764945 0.684621 0.237777
N16   N     N_3   0.478265 0.715206 0.279619 -0.699762
H63   H     H_    0.488169 0.619280 0.240334 0.232245
H64   H     H_    0.508117 0.792139 0.308457 0.233079

loop_
_geom_bond_atom_site_label_1
_geom_bond_atom_site_label_2
_ccdc_geom_bond_type
O17   V3    S    
C67   C71   A    
O1    C5    A    
C88   H34   S    
C23   C27   A    
C23   H8    S    
O19   V1    S    
O13   V1    S    
N9    H37   S    
O3    C7    A    
C11   C12   D    
C68   C72   A    
C32   O32   S    
C21   C37   A    
C29   C57   A    
N12   H43   S    
O4    V2    S    
N11   H42   S    
O33   C89   S    
O7    C3    A    
N5    H18   S    
C25   C57   A    
C50   O34   S    
C32   C36   A    
C34   N10   S    
O32   C88   S    
N6    H20   S    
C14   O22   S    
N4    C20   A    
C22   C26   A    
O4    C8    A    
C90   H49   S    
N12   H44   S    
C86   H29   S    
N7    H21   S    
C64   C67   A    
C49   C81   A    
O1    V3    S    
O2    V4    S    
N13   H57   S    
C24   H7    S    
C51   C83   A    
C65   C82   A    
O3    V1    S    
C89   H45   S    
C90   H50   S    
C61   C73   A    
C25   H2    S    
C56   C79   A    
C1    O15   A    
N7    H22   S    
N11   H41   S    
C2    O16   A    
O20   V2    S    
C24   C40   A    
C85   H27   S    
C8    C10   S    
O2    C6    A    
C16   C48   A    
O14   V2    S    
C31   O31   S    
O8    C4    A    
C44   C56   A    
N8    H24   S    
C82   H14   S    
C48   C52   A    
C81   H13   S    
C44   C71   A    
O11   C7    A    
C17   O26   S    
C67   C84   A    
O15   V3    S    
O12   C8    A    
C86   H30   S    
N13   H58   S    
C31   C59   A    
C88   H35   S    
C75   C79   A    
N4    C40   S    
C1    C60   S    
N10   H40   S    
C9    C10   D    
O5    V1    S    
C28   C60   A    
C15   O23   S    
C22   H5    S    
C31   C35   A    
O7    V3    S    
C30   C34   A    
C63   C71   A    
N1    C37   S    
N15   H61   S    
O8    V4    S    
C87   H33   S    
C17   C53   A    
C4    C57   S    
C20   C56   A    
C54   C77   A    
N6    H19   S    
C53   C78   A    
C35   N11   S    
C21   C25   A    
O18   V4    S    
N3    C19   A    
C55   C80   A    
C14   C46   A    
C62   C65   A    
C7    C9    S    
O10   V2    S    
C9    N5    S    
C83   H15   S    
C76   C80   A    
C33   N9    S    
C36   C40   A    
C84   H16   S    
C89   H47   S    
C15   C47   A    
C92   H56   S    
C91   H53   S    
C61   C69   A    
O5    C1    A    
C46   C50   A    
C73   N13   S    
O31   C87   S    
C22   C38   A    
C45   C49   A    
C52   C84   A    
N3    C39   S    
C11   N7    S    
N1    C17   A    
O9    C5    A    
C68   C83   A    
C27   C59   A    
C80   H12   S    
C92   H55   S    
C26   C58   A    
C41   C53   A    
O30   C86   S    
C63   C75   A    
C42   C69   A    
C12   N8    S    
C41   C70   A    
O6    V2    S    
N14   H60   S    
C2    C59   S    
C88   H36   S    
N16   H64   S    
C19   C55   A    
C77   H9    S    
C43   C72   A    
C27   H4    S    
C85   H26   S    
C43   C47   A    
C50   C82   A    
C13   N1    A    
C42   C54   A    
N10   H39   S    
C66   C81   A    
C15   N3    A    
N8    H23   S    
O16   V4    S    
C20   O27   S    
O9    V1    S    
O35   C91   S    
C16   N4    A    
C73   C77   A    
C49   O33   S    
C3    O13   A    
C26   H1    S    
C89   H46   S    
C63   C68   A    
C75   N15   S    
C87   H32   S    
C51   O35   S    
C44   C48   A    
O36   C92   S    
O6    C2    A    
C76   N16   S    
O11   V3    S    
C5    C11   S    
O12   V4    S    
C6    C12   S    
N5    H17   S    
N2    C18   A    
C19   O28   S    
C18   O25   S    
C87   H31   S    
O10   C6    A    
C64   C72   A    
C90   H48   S    
C66   C70   A    
O29   C85   S    
C91   H51   S    
C14   N2    A    
C47   C51   A    
C79   H11   S    
C3    C58   S    
C34   C38   A    
C13   C45   A    
C52   O36   S    
C33   C37   A    
C30   C58   A    
C10   N6    S    
C78   H10   S    
C35   C39   A    
C13   O21   S    
C92   H54   S    
C65   C69   A    
N2    C38   S    
C62   C74   A    
C21   H6    S    
C18   C54   A    
C74   N14   S    
C29   C33   A    
C16   O24   S    
C28   H3    S    
C24   C28   A    
N14   H59   S    
C62   C70   A    
C74   C78   A    
N16   H63   S    
C42   C46   A    
C4    O14   A    
C86   H28   S    
N15   H62   S    
C41   C45   A    
C85   H25   S    
C64   C76   A    
C30   O30   S    
C32   C60   A    
O34   C90   S    
C29   O29   S    
C61   C66   A    
C23   C39   A    
C43   C55   A    
C91   H52   S    
N9    H38   S    
C36   N12   S    
