data_mof_unit_22542.cif
_audit_creation_date              2012-12-11T14:21:21-0500
_audit_creation_method            fapswitch 2.2
_symmetry_space_group_name_H-M    P1
_symmetry_Int_Tables_number       1
_space_group_crystal_system       triclinic
_cell_length_a                    21.884032
_cell_length_b                    7.222592
_cell_length_c                    15.091121
_cell_angle_alpha                 90.62733
_cell_angle_beta                  108.043012
_cell_angle_gamma                 89.926861
_cell_volume                      2267.85392009

loop_
_atom_site_label
_atom_site_type_symbol
_atom_type_description
_atom_site_fract_x
_atom_site_fract_y
_atom_site_fract_z
_atom_type_partial_charge
O1    O     O_R   0.584770 0.505770 0.002090 -0.538311
O2    O     O_R   0.415230 0.005770 0.997910 -0.551357
O3    O     O_R   0.467060 0.173340 0.861950 -0.540508
O4    O     O_R   0.532940 0.673340 0.138050 -0.537919
C1    C     C_R   0.457267 0.343741 0.826303 0.699543
C2    C     C_R   0.538882 0.847166 0.174117 0.697131
O5    O     O_R   0.587510 0.175890 0.993210 -0.538858
O6    O     O_R   0.412490 0.675890 0.006790 -0.540166
O7    O     O_R   0.536540 0.008150 0.130100 -0.549440
O8    O     O_R   0.463460 0.508150 0.869900 -0.537258
C3    C     C_R   0.613154 0.344710 0.998623 0.738201
C4    C     C_R   0.387200 0.845079 0.003012 0.718143
O9    O     O_3   0.483140 0.340040 0.044760 -0.392529
O10   O     O_3   0.516860 0.840040 0.955240 -0.377442
V1    V     V_3+5 0.503130 0.064190 0.991700 1.375190
V2    V     V_3+5 0.496870 0.564190 0.008300 1.379580
C5    C     C_2   0.214720 0.727905 0.006496 -0.132076
C6    C     C_2   0.785515 0.227602 0.994115 -0.132239
C7    C     C_2   0.180443 0.886184 0.996780 -0.305464
C8    C     C_2   0.819216 0.386774 0.001742 -0.306215
H1    H     H_    0.192059 0.598027 0.014274 0.138337
H2    H     H_    0.808688 0.097083 0.988128 0.139038
C9    C     C_2   0.282652 0.714914 0.006066 -0.140587
C10   C     C_2   0.717032 0.214754 0.991890 -0.144396
C11   C     C_2   0.320318 0.861680 0.005096 -0.303216
C12   C     C_2   0.681068 0.360323 0.001584 -0.311516
H3    H     H_    0.302130 0.576275 0.007128 0.137865
H4    H     H_    0.695767 0.077282 0.981737 0.139725
H5    H     H_    0.302337 0.001252 0.005665 0.132108
H6    H     H_    0.701231 0.498579 0.012105 0.131952
C13   C     C_R   0.921159 0.882214 0.725277 -0.022971
C14   C     C_R   0.076485 0.389605 0.275044 -0.022538
C15   C     C_R   0.560959 0.864694 0.277008 -0.092329
C16   C     C_R   0.434944 0.350588 0.724390 -0.086914
C17   C     C_R   0.927178 0.847430 0.569196 -0.163725
C18   C     C_R   0.068617 0.392636 0.430856 -0.163583
C19   C     C_R   0.957595 0.862600 0.664663 -0.172606
C20   C     C_R   0.039151 0.396232 0.334919 -0.173501
C21   C     C_R   0.853773 0.886223 0.690298 -0.213040
C22   C     C_R   0.143609 0.380974 0.311074 -0.212539
C23   C     C_R   0.821397 0.871813 0.593156 0.078871
C24   C     C_R   0.175030 0.381553 0.408541 0.078958
C25   C     C_R   0.859839 0.851798 0.533122 0.140726
C26   C     C_R   0.135872 0.385090 0.467963 0.140579
C27   C     C_R   0.752660 0.877615 0.553440 0.058882
C28   C     C_R   0.243607 0.379441 0.448935 0.059579
C29   C     C_R   0.723948 0.858627 0.455014 0.077289
C30   C     C_R   0.271708 0.370532 0.547558 0.078775
C31   C     C_R   0.764849 0.843285 0.398755 -0.192385
C32   C     C_R   0.230155 0.376624 0.603291 -0.191770
C33   C     C_R   0.831104 0.838626 0.437199 -0.205143
C34   C     C_R   0.163937 0.383568 0.564135 -0.205955
C35   C     C_R   0.711711 0.905642 0.608253 -0.185474
C36   C     C_R   0.285015 0.392057 0.394318 -0.183191
C37   C     C_R   0.645509 0.920777 0.568458 -0.215315
C38   C     C_R   0.351243 0.395149 0.434121 -0.221134
C39   C     C_R   0.615555 0.903999 0.471438 0.077570
C40   C     C_R   0.381299 0.379156 0.530869 0.071843
C41   C     C_R   0.655342 0.863865 0.415009 0.062576
C42   C     C_R   0.340430 0.362594 0.587672 0.068977
C43   C     C_R   0.547036 0.925370 0.430394 0.063555
C44   C     C_R   0.450724 0.382930 0.570985 0.055116
C45   C     C_R   0.522102 0.934864 0.330324 0.062791
C46   C     C_R   0.477441 0.373591 0.670995 0.051452
C47   C     C_R   0.625328 0.824973 0.320226 -0.260457
C48   C     C_R   0.369167 0.338894 0.683245 -0.255239
H7    H     H_    0.860266 0.826743 0.390952 0.124036
H8    H     H_    0.134331 0.388966 0.609950 0.124368
H9    H     H_    0.651644 0.768346 0.276513 0.121178
H10   H     H_    0.341392 0.311202 0.729383 0.112044
H11   H     H_    0.618661 0.949315 0.616218 0.116970
H12   H     H_    0.377964 0.411471 0.386069 0.124555
H13   H     H_    0.956433 0.832350 0.523266 0.116237
H14   H     H_    0.038754 0.396796 0.476286 0.116312
H15   H     H_    0.009586 0.858417 0.691369 0.106747
H16   H     H_    0.987242 0.403461 0.307314 0.106440
H17   H     H_    0.828368 0.899281 0.740848 0.092979
H18   H     H_    0.169548 0.373255 0.261006 0.092731
H19   H     H_    0.747360 0.841171 0.323739 0.124431
H20   H     H_    0.246930 0.382649 0.678213 0.124281
H21   H     H_    0.729436 0.921955 0.682874 0.122373
H22   H     H_    0.267811 0.406195 0.319725 0.120076
O11   O     O_R   0.036450 0.233070 0.130130 -0.537495
O12   O     O_R   0.963550 0.733070 0.869870 -0.537725
O13   O     O_R   0.912470 0.560570 0.006790 -0.545014
O14   O     O_R   0.087530 0.060570 0.993210 -0.544997
C49   C     C_R   0.886912 0.391970 0.002116 0.732251
C50   C     C_R   0.113013 0.891798 0.997668 0.731988
O15   O     O_R   0.032920 0.562940 0.138050 -0.539703
O16   O     O_R   0.967080 0.062940 0.861950 -0.538970
O17   O     O_R   0.084790 0.730500 0.002090 -0.536984
O18   O     O_R   0.915210 0.230500 0.997910 -0.537820
C51   C     C_R   0.045890 0.395307 0.174204 0.682816
C52   C     C_R   0.953137 0.893644 0.825950 0.682181
O19   O     O_3   0.016820 0.396170 0.955260 -0.379117
O20   O     O_3   0.983180 0.896170 0.044740 -0.379351
V3    V     V_3+5 0.996880 0.672090 0.008300 1.415240
V4    V     V_3+5 0.003120 0.172090 0.991700 1.413666
C53   C     C_3   0.506122 0.923766 0.498245 -0.383023
C54   C     C_3   0.432147 0.902501 0.466575 -0.343570
C55   C     C_3   0.408029 0.855411 0.548654 -0.734121
H23   H     H_    0.433963 0.736379 0.588037 0.231422
H24   H     H_    0.415372 0.975300 0.597594 0.232423
H25   H     H_    0.355902 0.822357 0.522779 0.230209
H26   H     H_    0.408053 0.035429 0.442857 0.202784
H27   H     H_    0.415865 0.795794 0.410722 0.199160
H28   H     H_    0.523875 0.802721 0.542666 0.182630
H29   H     H_    0.518166 0.044670 0.545659 0.180811
C56   C     C_3   0.489659 0.405761 0.501450 -0.387415
C57   C     C_3   0.563498 0.410549 0.528379 -0.329699
C58   C     C_3   0.585418 0.431169 0.442169 -0.742378
H30   H     H_    0.575380 0.302365 0.399531 0.236063
H31   H     H_    0.560149 0.546990 0.398490 0.237992
H32   H     H_    0.637987 0.457715 0.463799 0.227863
H33   H     H_    0.582979 0.529310 0.575069 0.219887
H34   H     H_    0.585074 0.279580 0.560153 0.197521
H35   H     H_    0.474792 0.292063 0.449682 0.193064
H36   H     H_    0.473222 0.535657 0.463750 0.188531
H37   H     H_    0.201556 0.017385 0.987896 0.127855
H38   H     H_    0.797189 0.519203 0.006505 0.127776
C59   C     C_3   0.457485 0.024454 0.279871 -0.431789
C60   C     C_3   0.462586 0.195500 0.222045 -0.233103
C61   C     C_3   0.422728 0.362077 0.234043 -0.831968
H39   H     H_    0.373162 0.318939 0.229642 0.222639
H40   H     H_    0.446551 0.432960 0.301140 0.222848
H41   H     H_    0.419647 0.463254 0.177929 0.238328
H42   H     H_    0.513203 0.242305 0.237464 0.214235
H43   H     H_    0.442908 0.154701 0.148282 0.234703
H44   H     H_    0.425253 0.918771 0.234714 0.142072
H45   H     H_    0.433653 0.074835 0.327953 0.204843
C62   C     C_3   0.548894 0.393386 0.724944 -0.343165
C63   C     C_3   0.568576 0.597391 0.745969 -0.298818
C64   C     C_3   0.641428 0.622757 0.775832 -0.794906
H46   H     H_    0.664856 0.536116 0.836994 0.240601
H47   H     H_    0.660725 0.583491 0.718392 0.231863
H48   H     H_    0.653653 0.770150 0.794777 0.212009
H49   H     H_    0.546572 0.683994 0.684456 0.183624
H50   H     H_    0.550598 0.649601 0.802745 0.219293
H51   H     H_    0.560922 0.321291 0.792655 0.142475
H52   H     H_    0.579788 0.316616 0.692948 0.166664

loop_
_geom_bond_atom_site_label_1
_geom_bond_atom_site_label_2
_ccdc_geom_bond_type
C40   C44   A    
C55   H23   S    
C58   H30   S    
O1    C3    A    
C8    H38   S    
C59   H45   S    
O2    C4    A    
C16   C48   A    
C2    O7    A    
O19   V4    S    
C15   C47   A    
C61   H39   S    
C29   C31   A    
C20   H16   S    
O5    C3    A    
C53   H29   S    
C54   H26   S    
C5    C9    S    
C6    C10   S    
O12   V3    S    
C21   H17   S    
C17   C19   A    
C10   C12   D    
O14   C50   A    
C39   C41   A    
C63   H50   S    
O11   C51   A    
C8    C49   S    
C35   H21   S    
C24   C28   A    
C27   C29   A    
C60   H42   S    
C43   C45   A    
C57   C58   S    
C44   C46   A    
C62   H52   S    
C38   C40   A    
C63   C64   S    
C31   C33   A    
O11   V4    S    
C64   H48   S    
C32   C34   A    
C46   C62   S    
C30   C42   A    
C9    H3    S    
C17   C25   A    
C34   H8    S    
C15   C45   A    
C26   C34   A    
C30   C32   A    
C14   C51   S    
C19   H15   S    
C7    H37   S    
C55   H24   S    
C49   O18   A    
O20   V3    S    
C60   H43   S    
C23   C25   A    
C43   C53   S    
C24   C26   A    
C45   C59   S    
C56   H36   S    
O16   C52   A    
C28   C30   A    
C35   C37   A    
C11   H5    S    
C36   C38   A    
O13   C49   A    
C56   H35   S    
O13   V3    S    
C21   C23   A    
C7    C50   S    
C62   H51   S    
C61   H41   S    
O12   C52   A    
O5    V1    S    
C3    C12   S    
C38   H12   S    
C63   H49   S    
C27   C35   A    
C5    H1    S    
C31   H19   S    
O15   V3    S    
O4    V2    S    
C53   C54   S    
C50   O17   A    
O6    C4    A    
C1    C16   S    
C28   C36   A    
C16   C46   A    
C58   H31   S    
O1    V2    S    
C33   H7    S    
O17   V3    S    
O2    V1    S    
C59   C60   S    
C18   H14   S    
C42   C48   A    
O4    C2    A    
C12   H6    S    
C55   H25   S    
C14   C20   A    
C37   C39   A    
C64   H46   S    
C22   H18   S    
C18   C26   A    
C62   C63   S    
C57   H34   S    
C36   H22   S    
C14   C22   A    
O3    V1    S    
C17   H13   S    
C6    H2    S    
C10   H4    S    
C59   H44   S    
O3    C1    A    
C32   H20   S    
C39   C43   A    
C13   C52   S    
C53   H28   S    
C54   H27   S    
C2    C15   S    
C4    C11   S    
C18   C20   A    
O7    V1    S    
C1    O8    A    
O8    V2    S    
C56   C57   S    
C41   C47   A    
C25   C33   A    
C48   H10   S    
C44   C56   S    
C47   H9    S    
C22   C24   A    
C54   C55   S    
C5    C7    D    
C13   C21   A    
C58   H32   S    
C6    C8    D    
C9    C11   D    
O15   C51   A    
O14   V4    S    
C61   H40   S    
O18   V4    S    
C29   C41   A    
C13   C19   A    
O6    V2    S    
O9    V2    S    
C64   H47   S    
C23   C27   A    
O10   V1    S    
C60   C61   S    
C40   C42   A    
C57   H33   S    
O16   V4    S    
C37   H11   S    
