data_mof_unit_9883.cif
_audit_creation_date              2013-03-05T15:58:57-0500
_audit_creation_method            fapswitch 2.2
_symmetry_space_group_name_H-M    P1
_symmetry_Int_Tables_number       1
_space_group_crystal_system       triclinic
_cell_length_a                    10.69614
_cell_length_b                    12.56526
_cell_length_c                    13.200497
_cell_angle_alpha                 82.103307
_cell_angle_beta                  91.236798
_cell_angle_gamma                 103.470401
_cell_volume                      1708.87721669

loop_
_atom_site_label
_atom_site_type_symbol
_atom_site_description
_atom_site_fract_x
_atom_site_fract_y
_atom_site_fract_z
_atom_type_partial_charge
O1    O     O_R   0.468120 0.366740 0.627160 -0.625690
O2    O     O_R   0.510770 0.544830 0.662520 -0.626546
C1    C     C_R   0.477789 0.438573 0.691021 0.875304
O3    O     O_R   0.663880 0.410950 0.482330 -0.632397
O4    O     O_R   0.706530 0.589040 0.517700 -0.535004
C2    C     C_R   0.742384 0.502573 0.499887 0.909399
Zn1   Zn    Zn3+2 0.471520 0.381090 0.476390 0.996372
Zn2   Zn    Zn3+2 0.528480 0.618910 0.523610 1.013875
O5    O     O_R   0.489230 0.455170 0.337480 -0.589301
O6    O     O_R   0.531880 0.633260 0.372840 -0.586380
O7    O     O_R   0.293470 0.410960 0.482300 -0.591526
O8    O     O_R   0.336120 0.589050 0.517670 -0.678215
C3    C     C_R   0.516305 0.561557 0.308239 0.966496
C4    C     C_R   0.257486 0.499635 0.497792 0.888696
C5    C     C_3   0.902335 0.404480 0.569837 -0.397440
H1    H     H_    0.841878 0.326995 0.546588 0.220254
H2    H     H_    0.874785 0.407276 0.650107 0.223778
C6    C     C_3   0.043217 0.397787 0.565543 -0.365478
H3    H     H_    0.083021 0.394325 0.644283 0.187862
H4    H     H_    0.050059 0.320193 0.537571 0.233381
H5    H     H_    0.864852 0.422615 0.365874 0.252401
C7    C     C_3   0.920597 0.501872 0.389130 -0.474866
C8    C     C_3   0.963761 0.615982 0.538470 0.933685
C9    C     C_3   0.879935 0.508639 0.498847 -0.143806
C10   C     C_3   0.120258 0.500083 0.496530 -0.124689
C11   C     C_3   0.065949 0.508567 0.384622 0.277672
C12   C     C_3   0.103214 0.603371 0.544661 -0.504918
H6    H     H_    0.134013 0.596499 0.626053 0.220485
H7    H     H_    0.168506 0.679263 0.505371 0.207605
H8    H     H_    0.895277 0.568340 0.333854 0.228561
H9    H     H_    0.114127 0.591024 0.344199 0.147933
C13   C     C_R   0.495306 0.731269 0.051632 0.335653
H10   H     H_    0.393364 0.730569 0.857453 0.212369
C14   C     C_R   0.515525 0.597644 0.197955 -0.239724
C15   C     C_R   0.491409 0.298904 0.838145 -0.236217
C16   C     C_R   0.530495 0.279990 0.938377 -0.138161
C17   C     C_R   0.545110 0.362678 0.001510 0.378132
C18   C     C_R   0.492119 0.457085 0.969759 -0.002413
C19   C     C_R   0.448823 0.473890 0.868500 0.058764
C20   C     C_R   0.486567 0.538785 0.032059 0.065564
C21   C     C_R   0.467891 0.643942 0.990563 -0.029859
C22   C     C_R   0.418983 0.655596 0.891757 -0.114955
C23   C     C_R   0.399361 0.567889 0.835339 -0.161591
C24   C     C_R   0.483344 0.514180 0.136480 -0.139002
C25   C     C_R   0.542047 0.708870 0.151525 0.304489
C26   C     C_R   0.463425 0.400211 0.800583 -0.115870
H11   H     H_    0.457270 0.428393 0.169016 0.227496
H12   H     H_    0.497750 0.239514 0.787348 0.193745
H13   H     H_    0.564203 0.205687 0.962554 0.231221
H14   H     H_    0.350768 0.576943 0.762992 0.163604
C27   C     C_R   0.324168 0.086733 0.344889 -0.201897
H15   H     H_    0.311526 0.255464 0.322323 0.183055
H16   H     H_    0.289314 0.877874 0.317270 0.182956
H17   H     H_    0.258526 0.064636 0.283414 0.175629
N1    N     N_R   0.433240 0.222190 0.444680 -0.112984
C28   C     C_R   0.655037 0.801024 0.628080 -0.025974
C29   C     C_R   0.688539 0.906685 0.655958 0.333859
C30   C     C_R   0.628109 0.987319 0.608439 -0.246182
C31   C     C_R   0.534239 0.962129 0.532760 -0.049479
C32   C     C_R   0.505239 0.853464 0.506659 0.207044
C33   C     C_R   0.470894 0.040754 0.479973 0.028413
C34   C     C_R   0.382626 0.009522 0.401243 0.170367
C35   C     C_R   0.355460 0.902187 0.377850 -0.143525
C36   C     C_R   0.415984 0.825518 0.429831 -0.108452
C37   C     C_R   0.492205 0.150164 0.500834 -0.002477
C38   C     C_R   0.352694 0.194083 0.367179 0.059451
N2    N     N_R   0.566070 0.776970 0.554790 -0.147272
H18   H     H_    0.555014 0.180960 0.560391 0.122340
H19   H     H_    0.701230 0.737558 0.663573 0.209563
H20   H     H_    0.657880 0.068717 0.630654 0.173393
H21   H     H_    0.395847 0.746414 0.404280 0.203079
S1    S     S_3+6 0.669199 0.807225 0.198152 0.124983
O9    O     O_2   0.760442 0.747878 0.256754 -0.260578
O10   O     O_2   0.741104 0.884056 0.110045 -0.172163
O11   O     O_3   0.612507 0.881596 0.274662 -0.516312
H22   H     H_    0.689733 0.925452 0.305042 0.400765
S2    S     S_3+6 0.465360 0.863305 0.007012 0.060261
O12   O     O_2   0.486278 0.937080 0.089236 -0.199867
O13   O     O_2   0.552876 0.916953 0.917686 -0.295761
O14   O     O_3   0.311662 0.846779 0.969098 -0.533609
H23   H     H_    0.308329 0.917031 0.925613 0.393864
S3    S     S_3+6 0.656470 0.353917 0.103102 0.060642
O15   O     O_2   0.586190 0.290782 0.198247 -0.328217
O16   O     O_2   0.753264 0.293056 0.074788 -0.178643
O17   O     O_3   0.736230 0.480609 0.125365 -0.505685
H24   H     H_    0.751840 0.473570 0.199906 0.377604
S4    S     S_3+6 0.810028 0.938518 0.746586 0.115582
O18   O     O_2   0.937768 0.972139 0.691860 -0.198485
O19   O     O_2   0.791518 0.032307 0.799612 -0.232128
O20   O     O_3   0.809326 0.827063 0.833471 -0.450827
H25   H     H_    0.719508 0.801733 0.859123 0.358904
S5    S     S_3+6 0.093551 0.411345 0.303756 0.043334
O21   O     O_2   0.023525 0.428365 0.205081 -0.170516
O22   O     O_2   0.233884 0.432242 0.278691 -0.358990
O23   O     O_3   0.037457 0.279946 0.358009 -0.514858
H26   H     H_    0.111933 0.257140 0.392390 0.355048
S6    S     S_3+6 0.965010 0.750470 0.463556 0.051165
O24   O     O_2   0.835870 0.778294 0.457196 -0.228052
O25   O     O_2   0.054077 0.837095 0.515784 -0.268580
O26   O     O_3   0.021925 0.758196 0.344409 -0.608193
H27   H     H_    0.033722 0.836789 0.314912 0.406633
F1    F     F_    0.922413 0.620298 0.636514 -0.638981

loop_
_geom_bond_atom_site_label_1
_geom_bond_atom_site_label_2
_geom_bond_distance
_ccdc_geom_bond_type
C5    C6    1.531364 S    
S4    O18   1.502340 D    
C12   H7    1.111557 S    
C21   C22   1.396434 A    
C15   C16   1.384882 A    
Zn1   N1    2.042237 S    
S6    O26   1.680946 S    
S6    O24   1.499726 D    
O20   H25   0.990398 S    
S2    O12   1.502282 D    
Zn1   O7    2.030109 S    
C6    C10   1.542193 S    
C17   C18   1.438928 A    
H10   C22   1.079490 S    
C16   C17   1.398257 A    
O3    Zn1   2.005426 S    
C18   C19   1.409608 A    
O7    C4    1.302788 A    
C8    F1    1.388785 S    
C11   S5    1.805270 S    
C5    H1    1.113777 S    
C28   C29   1.390487 A    
C5    H2    1.113274 S    
C6    H3    1.113843 S    
C13   C25   1.415307 A    
C36   H21   1.066468 S    
O5    C3    1.304815 A    
S5    O21   1.503118 D    
N1    C37   1.351934 A    
C13   S2    1.781269 S    
O23   H26   0.988777 S    
C32   N2    1.362572 A    
C8    C9    1.583328 S    
C8    C12   1.535567 S    
C24   H11   1.078004 S    
S1    O9    1.501641 D    
C31   C32   1.416541 A    
H5    C7    1.114015 S    
C25   S1    1.773617 S    
C27   C34   1.396356 A    
S1    O11   1.676543 S    
C15   H12   1.083585 S    
S6    O25   1.504129 D    
S2    O13   1.502104 D    
C31   C33   1.422301 A    
C14   C24   1.389421 A    
S1    O10   1.503457 D    
C30   H20   1.077090 S    
C19   C23   1.416196 A    
C10   C11   1.574663 S    
O17   H24   0.989837 S    
S5    O23   1.682560 S    
C29   S4    1.761254 S    
O1    C1    1.303015 A    
C27   C38   1.382962 A    
O11   H22   0.990528 S    
C34   C35   1.388075 A    
C20   C24   1.369957 A    
Zn2   O8    2.005426 S    
C37   H18   1.076491 S    
C2    C9    1.455667 S    
S5    O22   1.498473 D    
C14   C25   1.413069 A    
C19   C26   1.409525 A    
O3    C2    1.303358 A    
C20   C21   1.416060 A    
C8    S6    1.834308 S    
O8    C4    1.292212 A    
S3    O15   1.503664 D    
S3    O16   1.503495 D    
S4    O19   1.503111 D    
C7    C9    1.540221 S    
C17   S3    1.783516 S    
C22   C23   1.387170 A    
C13   C21   1.422263 A    
S3    O17   1.683271 S    
N1    C38   1.353911 A    
H15   C38   1.077429 S    
S2    O14   1.682335 S    
Zn1   O5    1.930950 S    
C5    C9    1.564556 S    
C7    H8    1.110272 S    
O1    Zn1   1.973919 S    
O2    Zn2   1.930950 S    
O14   H23   0.992243 S    
O6    C3    1.304505 A    
O4    Zn2   2.030110 S    
C23   H14   1.082323 S    
C10   C12   1.569426 S    
C28   N2    1.356277 A    
C1    C26   1.459863 S    
C32   C36   1.401121 A    
C27   H17   1.084009 S    
O2    C1    1.302641 A    
C30   C31   1.414860 A    
C3    C14   1.464558 S    
C18   C20   1.412873 A    
H16   C35   1.084159 S    
C29   C30   1.396704 A    
O4    C2    1.284921 A    
O26   H27   0.990552 S    
C6    H4    1.107079 S    
C4    C10   1.468860 S    
C33   C34   1.422180 A    
C35   C36   1.381203 A    
C33   C37   1.404661 A    
C11   H9    1.111308 S    
Zn2   N2    2.030016 S    
Zn2   O6    1.973916 S    
C28   H19   1.081895 S    
C7    C11   1.539282 S    
S4    O20   1.682525 S    
C12   H6    1.114817 S    
C15   C26   1.397684 A    
C16   H13   1.083286 S    
