data_mof_unit_59552.cif
_audit_creation_date              2012-12-10T17:23:41-0500
_audit_creation_method            fapswitch 2.2
_symmetry_space_group_name_H-M    P1
_symmetry_Int_Tables_number       1
_space_group_crystal_system       triclinic
_cell_length_a                    9.59954
_cell_length_b                    10.769688
_cell_length_c                    17.279257
_cell_angle_alpha                 92.283532
_cell_angle_beta                  86.364527
_cell_angle_gamma                 90.189852
_cell_volume                      1781.38844267

loop_
_atom_site_label
_atom_site_type_symbol
_atom_type_description
_atom_site_fract_x
_atom_site_fract_y
_atom_site_fract_z
_atom_type_partial_charge
C1    C     C_R   0.500106 0.737299 0.500923 0.787209
C2    C     C_R   0.351431 0.533995 0.782984 0.036468
C3    C     C_R   0.403734 0.444214 0.147703 -0.166165
C4    C     C_R   0.399965 0.469366 0.227065 -0.191770
C5    C     C_R   0.653162 0.460715 0.222959 -0.210953
C6    C     C_R   0.656725 0.435824 0.143052 -0.103358
C7    C     C_R   0.531870 0.427784 0.105388 0.123780
C8    C     C_2   0.479860 0.504958 0.982215 -0.309551
C9    C     C_2   0.533713 0.411621 0.020759 -0.071829
C10   C     C_R   0.524522 0.477949 0.265443 -0.030563
C11   C     C_R   0.381222 0.876935 0.636395 -0.208672
C12   C     C_R   0.481877 0.501973 0.650256 0.764601
C13   C     C_R   0.326579 0.944447 0.701632 -0.170310
C14   C     C_R   0.326919 0.074396 0.703573 0.006772
C15   C     C_R   0.381806 0.136310 0.638240 -0.210623
C16   C     C_R   0.438046 0.069143 0.571532 0.075534
C17   C     C_R   0.438222 0.937935 0.570863 0.096787
C18   C     C_R   0.500027 0.871309 0.505503 -0.086130
C19   C     C_R   0.564722 0.932867 0.443456 -0.187569
C20   C     C_R   0.564119 0.061128 0.443800 -0.202736
C21   C     C_R   0.499121 0.129213 0.506282 -0.069269
C22   C     C_R   0.867368 0.334966 0.397052 -0.144487
C23   C     C_R   0.499632 0.262839 0.502017 0.764916
C24   C     C_R   0.945096 0.254678 0.346633 -0.209875
C25   C     C_R   0.088610 0.254750 0.346656 -0.201711
C26   C     C_R   0.155251 0.335047 0.397142 -0.144850
C27   C     C_R   0.080319 0.418793 0.449512 0.205993
C28   C     C_R   0.930753 0.418835 0.449486 0.212716
C29   C     C_R   0.920952 0.577400 0.547924 -0.051301
C30   C     C_R   0.068847 0.577602 0.547745 0.002165
C31   C     C_R   0.517669 0.495975 0.350019 0.766960
C32   C     C_R   0.474843 0.504758 0.735782 -0.111771
C33   C     C_R   0.599410 0.481915 0.771634 -0.186387
C34   C     C_R   0.602067 0.484495 0.851665 -0.081290
C35   C     C_R   0.479745 0.507890 0.897763 0.194728
C36   C     C_R   0.356619 0.537160 0.863738 -0.144886
Cu1   Cu    Cu3+1 0.359340 0.500010 0.500010 0.959015
Cu2   Cu    Cu3+1 0.640660 0.499990 0.499990 0.943784
H1    H     H_    0.695972 0.460949 0.737855 0.176583
H2    H     H_    0.756386 0.424825 0.110476 0.149441
H3    H     H_    0.613728 0.881159 0.393971 0.147343
H4    H     H_    0.381027 0.776708 0.638702 0.142988
H5    H     H_    0.285809 0.894435 0.751247 0.220882
H6    H     H_    0.383026 0.236801 0.640508 0.178704
H7    H     H_    0.612774 0.107665 0.394546 0.132412
H8    H     H_    0.861554 0.640824 0.587266 0.137926
H9    H     H_    0.758216 0.326980 0.392007 0.192805
H10   H     H_    0.893231 0.191915 0.307199 0.156635
H11   H     H_    0.299133 0.481210 0.258264 0.161059
H12   H     H_    0.149118 0.192083 0.307217 0.158468
H13   H     H_    0.265545 0.327332 0.392241 0.196912
H14   H     H_    0.119853 0.641451 0.586781 0.142710
H15   H     H_    0.750517 0.465822 0.251357 0.157059
H16   H     H_    0.262943 0.557826 0.900389 0.143013
H17   H     H_    0.306688 0.438553 0.118940 0.142542
H18   H     H_    0.433745 0.584854 0.014725 0.164092
H19   H     H_    0.699320 0.466374 0.877724 0.136032
N1    N     N_R   0.852190 0.498790 0.499250 -0.202052
N2    N     N_R   0.148060 0.498710 0.499220 -0.199087
O1    O     O_R   0.381190 0.680360 0.500010 -0.581373
O2    O     O_R   0.618760 0.680340 0.500000 -0.573520
O3    O     O_R   0.367440 0.500030 0.613600 -0.553122
O4    O     O_R   0.605010 0.500010 0.613590 -0.580462
O5    O     O_R   0.381240 0.319660 0.500000 -0.591374
O6    O     O_R   0.618810 0.319640 0.499990 -0.587404
O7    O     O_R   0.394990 0.499990 0.386410 -0.604539
O8    O     O_R   0.632560 0.499970 0.386400 -0.602486
C37   C     C_2   0.272246 0.144542 0.774620 0.884551
O9    O     O_2   0.275871 0.257985 0.777759 -0.566907
O10   O     O_R   0.217021 0.080994 0.838663 -0.755858
H20   H     H_    0.184082 0.139152 0.883658 0.349343
C38   C     C_2   0.582104 0.290824 0.983454 0.862281
O11   O     O_2   0.665678 0.227570 0.015088 -0.601551
O12   O     O_R   0.527324 0.246140 0.914562 -0.734163
H21   H     H_    0.567363 0.162433 0.895899 0.339247
C39   C     C_2   0.214947 0.560199 0.752079 0.830958
O13   O     O_2   0.154741 0.479437 0.715266 -0.544836
O14   O     O_R   0.150853 0.674992 0.769735 -0.794973
H22   H     H_    0.056931 0.681671 0.746494 0.324355

loop_
_geom_bond_atom_site_label_1
_geom_bond_atom_site_label_2
_ccdc_geom_bond_type
C8    C9    D    
C31   O7    A    
C24   C25   A    
C16   C21   A    
C35   C36   A    
C9    C38   S    
C8    H18   S    
Cu1   O3    S    
C31   O8    A    
C1    C18   S    
C29   C30   A    
C5    H15   S    
C39   O14   S    
C15   H6    S    
C18   C19   A    
C3    C7    A    
C5    C6    A    
C15   C16   A    
C11   H4    S    
C2    C32   A    
C34   C35   A    
C25   H12   S    
Cu2   N1    S    
C3    H17   S    
C10   C31   S    
C19   C20   A    
C37   O9    D    
C34   H19   S    
O10   H20   S    
C20   H7    S    
Cu2   O2    S    
C22   H9    S    
C22   C28   A    
C13   C14   A    
C12   C32   S    
C33   C34   A    
O12   H21   S    
C24   H10   S    
C39   O13   D    
C38   O12   S    
C1    O1    A    
C12   O4    A    
O14   H22   S    
C16   C17   A    
C25   C26   A    
C8    C35   S    
Cu1   Cu2   S    
C12   O3    A    
Cu2   O6    S    
C30   N2    A    
C20   C21   A    
C17   C18   A    
C26   C27   A    
C33   H1    S    
C29   N1    A    
Cu1   N2    S    
C23   O5    A    
C21   C23   S    
C6    H2    S    
C4    C10   A    
C3    C4    A    
C13   H5    S    
Cu1   O5    S    
C2    C39   S    
Cu2   O4    S    
C2    C36   A    
C7    C9    S    
C30   H14   S    
C11   C17   A    
C38   O11   D    
C1    O2    A    
C6    C7    A    
C28   N1    A    
C4    H11   S    
C29   H8    S    
C32   C33   A    
C23   O6    A    
C5    C10   A    
C27   N2    A    
C26   H13   S    
C11   C13   A    
C22   C24   A    
Cu1   O7    S    
Cu1   O1    S    
C36   H16   S    
Cu2   O8    S    
C37   O10   S    
C27   C28   A    
C14   C37   S    
C14   C15   A    
C19   H3    S    
