data_mof_unit_49006.cif
_audit_creation_date              2013-03-05T15:43:18-0500
_audit_creation_method            fapswitch 2.2
_symmetry_space_group_name_H-M    P1
_symmetry_Int_Tables_number       1
_space_group_crystal_system       triclinic
_cell_length_a                    10.683221
_cell_length_b                    10.693744
_cell_length_c                    10.043863
_cell_angle_alpha                 87.638647
_cell_angle_beta                  89.583294
_cell_angle_gamma                 91.172904
_cell_volume                      1146.19496907

loop_
_atom_site_label
_atom_site_type_symbol
_atom_site_description
_atom_site_fract_x
_atom_site_fract_y
_atom_site_fract_z
_atom_type_partial_charge
O1    O     O_R   0.499980 0.319060 0.613040 -0.608083
O2    O     O_R   0.500020 0.319100 0.386900 -0.631512
C1    C     C_R   0.492411 0.262157 0.503050 0.873015
O3    O     O_R   0.316750 0.499980 0.613090 -0.628895
O4    O     O_R   0.316790 0.500020 0.386950 -0.552944
C2    C     C_R   0.260439 0.493738 0.501207 0.955293
Zn1   Zn    Zn3+2 0.499970 0.499970 0.650990 1.009677
Zn2   Zn    Zn3+2 0.500030 0.500030 0.349010 1.036358
O5    O     O_R   0.499980 0.680900 0.613100 -0.585402
O6    O     O_R   0.500020 0.680940 0.386960 -0.557347
O7    O     O_R   0.683210 0.499980 0.613050 -0.603982
O8    O     O_R   0.683250 0.500020 0.386910 -0.605103
C3    C     C_R   0.503416 0.737227 0.496838 1.017896
C4    C     C_R   0.739416 0.499428 0.499381 0.915912
C5    C     C_R   0.118422 0.312019 0.674599 -0.204031
H1    H     H_    0.218799 0.308843 0.684448 0.183606
C6    C     C_R   0.046873 0.228675 0.756828 0.190578
C7    C     C_R   0.917059 0.221338 0.741036 0.173734
C8    C     C_R   0.859766 0.302684 0.649855 -0.196546
H2    H     H_    0.759841 0.291346 0.638062 0.176140
C9    C     C_R   0.929428 0.397467 0.577825 0.045132
C10   C     C_R   0.060250 0.399089 0.585555 -0.008493
C11   C     C_R   0.127632 0.488536 0.503647 -0.275952
C12   C     C_R   0.067975 0.577969 0.422850 0.620498
C13   C     C_R   0.939846 0.581724 0.421956 0.058335
C14   C     C_R   0.871386 0.491271 0.498267 -0.225127
C15   C     C_2   0.439692 0.933827 0.404425 0.712560
C16   C     C_2   0.514274 0.869123 0.486361 -0.425655
H3    H     H_    0.584520 0.913853 0.547103 0.154845
C17   C     C_2   0.449190 0.068274 0.400792 -0.283307
C18   C     C_2   0.464281 0.130498 0.512863 -0.069159
H4    H     H_    0.450351 0.115785 0.302993 0.196154
C19   C     C_2   0.570586 0.574666 0.922934 0.221584
N1    N     N_2   0.501340 0.501330 0.852150 -0.207570
H5    H     H_    0.430584 0.450629 0.900239 0.157030
C20   C     C_2   0.559299 0.583336 0.071441 -0.099044
N2    N     N_2   0.501380 0.501360 0.147810 -0.194153
H6    H     H_    0.607141 0.660618 0.117589 0.197856
H7    H     H_    0.464532 0.423093 0.105346 0.171430
F1    F     F_    0.135365 0.666248 0.349991 -0.572872
I1    I     I_    0.428084 0.052493 0.711021 -0.238118
I2    I     I_    0.708618 0.696795 0.833824 -0.186106
I3    I     I_    0.137297 0.121586 0.908679 -0.165240
I4    I     I_    0.800413 0.092188 0.852967 -0.206354
I5    I     I_    0.856453 0.733302 0.311621 -0.166177
F2    F     F_    0.358444 0.876793 0.321155 -0.570461

loop_
_geom_bond_atom_site_label_1
_geom_bond_atom_site_label_2
_geom_bond_distance
_ccdc_geom_bond_type
O4    Zn2   1.991612 S    
C17   H4    1.087016 S    
C9    C14   1.412756 A    
C6    I3    2.119804 S    
C3    C16   1.412386 S    
C5    C6    1.401061 A    
C7    I4    2.122601 S    
Zn1   O7    1.991614 S    
C8    H2    1.079839 S    
Zn2   O8    1.996768 S    
C20   H6    1.084798 S    
C6    C7    1.397989 A    
C12   C13   1.370321 A    
N2    H7    1.027495 S    
C9    C10   1.400108 A    
C4    C14   1.414329 S    
C15   C17   1.438182 S    
C1    C18   1.432863 S    
C17   C18   1.340059 D    
C20   N2    1.286536 D    
O3    Zn1   1.996767 S    
C19   I2    2.118225 S    
C15   F2    1.362279 S    
O3    C2    1.281994 A    
C16   H3    1.086357 S    
C8    C9    1.416144 A    
O8    C4    1.282807 A    
C19   N1    1.302915 D    
O2    C1    1.294763 A    
O4    C2    1.290665 A    
O7    C4    1.286370 A    
Zn2   N2    2.020233 S    
C2    C11   1.418751 S    
C11   C12   1.395685 A    
C5    H1    1.078724 S    
C13   I5    2.138853 S    
C19   C20   1.502394 S    
Zn1   N1    2.021231 S    
Zn2   O6    1.987148 S    
N1    H5    1.027118 S    
C15   C16   1.332688 D    
Zn1   O5    1.956443 S    
O5    C3    1.291605 A    
C10   C11   1.417137 A    
C7    C8    1.390819 A    
C18   I1    2.155308 S    
C12   F1    1.361100 S    
C13   C14   1.399933 A    
O1    Zn1   1.987148 S    
C5    C10   1.419923 A    
O2    Zn2   1.956443 S    
O1    C1    1.285271 A    
O6    C3    1.279058 A    
