data_mof_unit_44505.cif
_audit_creation_date              2012-12-10T21:07:45-0500
_audit_creation_method            fapswitch 2.2
_symmetry_space_group_name_H-M    P1
_symmetry_Int_Tables_number       1
_space_group_crystal_system       triclinic
_cell_length_a                    8.58299
_cell_length_b                    17.551533
_cell_length_c                    16.763697
_cell_angle_alpha                 90.513682
_cell_angle_beta                  98.91603
_cell_angle_gamma                 90.116759
_cell_volume                      2494.73059769

loop_
_atom_site_label
_atom_site_type_symbol
_atom_type_description
_atom_site_fract_x
_atom_site_fract_y
_atom_site_fract_z
_atom_type_partial_charge
C1    C     C_R   0.501776 0.353351 0.499731 0.946848
C2    C     C_R   0.406972 0.449523 0.243898 0.639577
C3    C     C_R   0.592743 0.550147 0.840925 -0.407637
C4    C     C_R   0.409176 0.448470 0.159465 -0.408620
C5    C     C_R   0.496766 0.499138 0.875326 -0.010979
C6    C     C_R   0.501098 0.501031 0.124514 -0.011482
C7    C     C_1   0.497786 0.499720 0.963296 0.113141
C8    C     C_1   0.499543 0.500397 0.036504 0.112639
C9    C     C_R   0.200547 0.500061 0.478917 0.967378
C10   C     C_R   0.799455 0.499771 0.521078 0.967714
C11   C     C_2   0.035538 0.500302 0.467451 -0.361418
C12   C     C_R   0.496471 0.646615 0.500081 0.946052
C13   C     C_2   0.964467 0.499188 0.532519 -0.361383
C14   C     C_R   0.383717 0.846737 0.545729 -0.258315
C15   C     C_R   0.556558 0.149632 0.442263 -0.257956
C16   C     C_R   0.393718 0.767935 0.549693 0.407850
C17   C     C_R   0.573051 0.228262 0.444725 0.411737
C18   C     C_R   0.485114 0.728875 0.499484 -0.184621
C19   C     C_R   0.495113 0.270988 0.498093 -0.184802
C20   C     C_R   0.562874 0.768965 0.445329 -0.350176
C21   C     C_R   0.403984 0.234524 0.548998 -0.358203
C22   C     C_R   0.550341 0.847815 0.440635 0.518187
C23   C     C_1   0.456166 0.966216 0.491399 0.052640
C24   C     C_R   0.390126 0.155482 0.547350 0.521078
C25   C     C_R   0.462332 0.886037 0.492017 -0.049960
C26   C     C_R   0.464633 0.113941 0.492619 -0.045570
C27   C     C_3   0.550326 0.884191 0.311053 0.080089
C28   C     C_3   0.631971 0.934886 0.257003 -0.734700
C29   C     C_3   0.375749 0.116970 0.675103 0.082021
C30   C     C_3   0.282149 0.068128 0.725439 -0.736544
C31   C     C_3   0.847826 0.586851 0.748085 0.045269
C32   C     C_3   0.945315 0.639495 0.703528 -0.669855
C33   C     C_3   0.158612 0.407287 0.253775 0.049696
C34   C     C_1   0.456686 0.033775 0.491446 0.059086
C35   C     C_3   0.066226 0.354368 0.300776 -0.677040
C36   C     C_R   0.401243 0.448554 0.823172 0.329947
C37   C     C_R   0.593511 0.553140 0.176196 0.331107
C38   C     C_R   0.404538 0.450322 0.739284 -0.156851
C39   C     C_R   0.591357 0.551273 0.260178 -0.158520
C40   C     C_R   0.596068 0.548940 0.756581 0.640396
Cl1   Cl    Cl    0.283902 0.720985 0.615283 -0.617974
Cl2   Cl    Cl    0.697633 0.270027 0.382817 -0.608164
Cl3   Cl    Cl    0.275660 0.383073 0.860623 -0.629916
Cl4   Cl    Cl    0.713693 0.620738 0.138016 -0.627328
H1    H     H_    0.973054 0.501474 0.405813 0.181288
H2    H     H_    0.340473 0.406371 0.121461 0.194574
H3    H     H_    0.426794 0.904739 0.308636 0.142947
H4    H     H_    0.548809 0.824794 0.286976 0.162679
H5    H     H_    0.755042 0.915394 0.257120 0.263948
H6    H     H_    0.567663 0.932269 0.194229 0.213933
H7    H     H_    0.633684 0.994800 0.279079 0.253295
H8    H     H_    0.386995 0.175298 0.702097 0.162963
H9    H     H_    0.495310 0.091372 0.677830 0.141546
H10   H     H_    0.270615 0.009189 0.700457 0.253154
H11   H     H_    0.343740 0.066211 0.788731 0.213945
H12   H     H_    0.026977 0.497927 0.594147 0.181427
H13   H     H_    0.162706 0.092530 0.724945 0.263579
H14   H     H_    0.878019 0.526816 0.734684 0.156496
H15   H     H_    0.881426 0.598356 0.813857 0.150782
H16   H     H_    0.924743 0.699778 0.719572 0.262160
H17   H     H_    0.072579 0.626387 0.720660 0.234126
H18   H     H_    0.912056 0.631802 0.637281 0.253151
H19   H     H_    0.124370 0.393831 0.188445 0.150388
H20   H     H_    0.124670 0.467131 0.265647 0.153419
H21   H     H_    0.100107 0.364389 0.366663 0.249551
H22   H     H_    0.937868 0.364954 0.283890 0.233608
H23   H     H_    0.314732 0.877380 0.584486 0.195398
H24   H     H_    0.091162 0.294064 0.286744 0.261891
H25   H     H_    0.616899 0.116201 0.401767 0.197273
H26   H     H_    0.634506 0.739218 0.407237 0.184923
H27   H     H_    0.341329 0.267370 0.588915 0.184097
H28   H     H_    0.330121 0.411737 0.699423 0.179245
H29   H     H_    0.663306 0.591079 0.299665 0.180647
H30   H     H_    0.663845 0.591153 0.879322 0.194749
N1    N     N_R   0.500040 0.500030 0.707230 -0.143243
N2    N     N_R   0.499960 0.499970 0.292770 -0.144496
O1    O     O_R   0.500000 0.389130 0.566570 -0.646765
O2    O     O_3   0.295665 0.118963 0.594979 -0.599198
O3    O     O_3   0.686010 0.601216 0.722281 -0.569287
O4    O     O_3   0.321622 0.395673 0.278803 -0.567323
O5    O     O_R   0.500000 0.610870 0.433430 -0.647051
O6    O     O_R   0.499990 0.389100 0.433480 -0.524064
O7    O     O_R   0.500010 0.610900 0.566520 -0.522976
O8    O     O_R   0.271750 0.500010 0.550980 -0.610346
O9    O     O_R   0.728250 0.499990 0.449020 -0.611541
O10   O     O_R   0.271740 0.499980 0.417890 -0.620008
O11   O     O_R   0.728260 0.500020 0.582110 -0.617464
O12   O     O_3   0.633563 0.888117 0.390486 -0.601130
Zn1   Zn    Zn3+2 0.500010 0.500020 0.588860 1.010702
Zn2   Zn    Zn3+2 0.499990 0.499980 0.411140 1.008566

loop_
_geom_bond_atom_site_label_1
_geom_bond_atom_site_label_2
_ccdc_geom_bond_type
C27   H4    S    
C30   H13   S    
C10   O9    A    
C1    O1    A    
C7    C8    T    
C4    H2    S    
C30   H10   S    
O1    Zn1   S    
C21   H27   S    
C31   H14   S    
C19   C21   A    
C24   C26   A    
C32   H17   S    
C28   H7    S    
C35   H21   S    
C5    C36   A    
C31   H15   S    
C3    H30   S    
C17   Cl2   S    
C17   C19   A    
C28   H6    S    
C26   C34   S    
C29   O2    S    
C22   C25   A    
C14   H23   S    
C22   O12   S    
C13   H12   S    
C23   C25   S    
C20   H26   S    
C15   H25   S    
C38   N1    A    
O7    Zn1   S    
C38   H28   S    
C10   O11   A    
C1    C19   S    
C40   O3    S    
C4    C6    A    
O10   Zn2   S    
C5    C7    S    
C15   C26   A    
C6    C8    S    
C35   H22   S    
C1    O6    A    
C12   O7    A    
C2    C4    A    
C29   C30   S    
C9    O10   A    
C28   H5    S    
C31   C32   S    
C33   H19   S    
C23   C34   T    
C6    C37   A    
C39   N2    A    
C9    C11   S    
O5    Zn2   S    
C24   O2    S    
C20   C22   A    
C3    C40   A    
O11   Zn1   S    
C14   C16   A    
C11   H1    S    
O8    Zn1   S    
C32   H16   S    
C2    N2    A    
C27   H3    S    
C15   C17   A    
C3    C5    A    
C10   C13   S    
O9    Zn2   S    
C33   O4    S    
C31   O3    S    
C30   H11   S    
O6    Zn2   S    
C40   N1    A    
C37   Cl4   S    
C36   C38   A    
C32   H18   S    
C37   C39   A    
C11   C13   D    
C29   H9    S    
C35   H24   S    
C33   H20   S    
C33   C35   S    
C12   O5    A    
C18   C20   A    
C39   H29   S    
C14   C25   A    
C27   O12   S    
C2    O4    S    
N1    Zn1   S    
C9    O8    A    
C16   C18   A    
C21   C24   A    
C12   C18   S    
C27   C28   S    
C36   Cl3   S    
C16   Cl1   S    
N2    Zn2   S    
C29   H8    S    
