data_mof_unit_59059.cif
_audit_creation_date              2012-12-11T14:06:54-0500
_audit_creation_method            fapswitch 2.2
_symmetry_space_group_name_H-M    P1
_symmetry_Int_Tables_number       1
_space_group_crystal_system       triclinic
_cell_length_a                    6.911332
_cell_length_b                    17.426134
_cell_length_c                    24.116476
_cell_angle_alpha                 104.53199
_cell_angle_beta                  90.570032
_cell_angle_gamma                 90.050511
_cell_volume                      2811.45620828

loop_
_atom_site_label
_atom_site_type_symbol
_atom_type_description
_atom_site_fract_x
_atom_site_fract_y
_atom_site_fract_z
_atom_type_partial_charge
O1    O     O_R   0.494290 0.391990 0.999150 -0.536987
O2    O     O_R   0.827170 0.534410 0.082350 -0.547381
O3    O     O_R   0.994360 0.608010 0.000850 -0.538086
C1    C     C_R   0.659040 0.550937 0.105964 0.726615
O4    O     O_R   0.824210 0.388010 0.004470 -0.533976
O5    O     O_R   0.991370 0.460560 0.922410 -0.538207
C2    C     C_R   0.653855 0.355326 0.002020 0.762766
O6    O     O_R   0.497270 0.539440 0.077590 -0.543283
O7    O     O_3   0.659770 0.523970 0.973170 -0.365269
V1    V     V_3+5 0.935840 0.495550 0.004980 1.492954
O8    O     O_R   0.320910 0.465590 0.917650 -0.535429
C3    C     C_R   0.150995 0.447522 0.894019 0.733571
O9    O     O_R   0.323870 0.611990 0.995530 -0.535189
C4    C     C_R   0.153815 0.644746 0.998119 0.721268
V2    V     V_3+5 0.435470 0.504450 0.995020 1.502094
O10   O     O_3   0.161670 0.476030 0.026830 -0.374407
C5    C     C_2   0.138753 0.727068 0.992195 -0.267183
C6    C     C_2   0.976814 0.772984 0.007955 -0.267201
C7    C     C_R   0.137285 0.236830 0.625032 0.629479
N1    N     N_R   0.117415 0.316779 0.648430 -0.566509
C8    C     C_R   0.081553 0.367633 0.614398 0.575242
C9    C     C_R   0.061780 0.338612 0.554575 -0.026867
C10   C     C_R   0.078898 0.256561 0.530055 -0.015939
C11   C     C_R   0.116955 0.205039 0.565441 -0.029245
C12   C     C_R   0.023058 0.389461 0.518863 -0.143253
C13   C     C_R   0.001705 0.359304 0.459680 -0.123994
C14   C     C_R   0.018880 0.277552 0.434703 -0.033575
C15   C     C_R   0.057472 0.225978 0.470022 -0.014496
C16   C     C_R   0.074747 0.143938 0.445439 -0.024524
C17   C     C_R   0.111680 0.093000 0.481234 -0.148183
C18   C     C_R   0.131956 0.123162 0.540500 -0.094927
C19   C     C_R   0.999416 0.245989 0.375133 0.611834
N2    N     N_R   0.019977 0.166168 0.351623 -0.567755
C20   C     C_R   0.055845 0.115110 0.385523 0.600971
O11   O     O_2   0.175529 0.188200 0.659330 -0.479609
O12   O     O_2   0.062553 0.445945 0.638415 -0.511029
H1    H     H_    0.972047 0.400337 0.433575 0.183172
O13   O     O_2   0.960812 0.294735 0.340938 -0.495955
O14   O     O_2   0.075130 0.036867 0.361343 -0.498223
C21   C     C_R   0.841051 0.096122 0.264499 -0.043177
H2    H     H_    0.721998 0.086932 0.290986 0.150935
C22   C     C_R   0.825244 0.068878 0.204796 -0.197107
C23   C     C_R   0.978743 0.079326 0.169481 -0.060979
C24   C     C_R   0.147761 0.118198 0.195292 -0.211873
H3    H     H_    0.267598 0.127238 0.168919 0.132359
C25   C     C_R   0.162532 0.146941 0.254989 -0.019575
C26   C     C_R   0.008443 0.135912 0.290085 0.335608
C27   C     C_R   0.285725 0.390667 0.736375 -0.057381
H4    H     H_    0.406666 0.400051 0.710612 0.137472
C28   C     C_R   0.292759 0.422237 0.795728 -0.183876
C29   C     C_R   0.137521 0.412121 0.830620 -0.097299
C30   C     C_R   0.973511 0.367445 0.804079 -0.116826
C31   C     C_R   0.967214 0.336016 0.743948 -0.068098
C32   C     C_R   0.124057 0.347531 0.710035 0.334905
C33   C     C_R   0.500688 0.893296 0.611646 0.597204
N3    N     N_R   0.500707 0.841914 0.646497 -0.561954
C34   C     C_R   0.520161 0.762038 0.623874 0.606125
C35   C     C_R   0.534767 0.730912 0.564374 -0.021371
C36   C     C_R   0.546752 0.782991 0.528044 -0.015453
C37   C     C_R   0.536598 0.865683 0.551782 -0.069690
C38   C     C_R   0.539648 0.648694 0.540705 -0.128606
C39   C     C_R   0.553966 0.617987 0.481797 -0.139012
C40   C     C_R   0.569813 0.668638 0.445050 -0.021144
C41   C     C_R   0.569975 0.751679 0.468094 -0.015080
C42   C     C_R   0.593313 0.802691 0.431317 -0.067801
C43   C     C_R   0.590470 0.886188 0.455502 -0.113715
C44   C     C_R   0.563749 0.917284 0.515145 -0.113418
C45   C     C_R   0.584926 0.637633 0.385585 0.603390
N4    N     N_R   0.611286 0.686886 0.350152 -0.564638
C46   C     C_R   0.620536 0.767588 0.371708 0.600982
O15   O     O_2   0.464260 0.970580 0.635068 -0.491213
O16   O     O_2   0.526129 0.712662 0.658934 -0.506957
O17   O     O_2   0.572580 0.558588 0.363252 -0.503871
O18   O     O_2   0.656725 0.813149 0.335317 -0.497228
C47   C     C_R   0.475699 0.664608 0.251467 -0.017158
C48   C     C_R   0.487247 0.630283 0.192459 -0.214027
H5    H     H_    0.370335 0.639824 0.164634 0.132441
C49   C     C_R   0.649175 0.585431 0.168928 -0.057649
C50   C     C_R   0.800226 0.575125 0.205796 -0.230533
H6    H     H_    0.926250 0.540745 0.188398 0.133846
C51   C     C_R   0.788359 0.607655 0.265243 -0.003361
C52   C     C_R   0.625693 0.653153 0.288759 0.305800
C53   C     C_R   0.326295 0.854471 0.738468 -0.005960
C54   C     C_R   0.317759 0.882070 0.798292 -0.212059
C55   C     C_R   0.468130 0.927954 0.829766 -0.095420
C56   C     C_R   0.627305 0.948767 0.799596 -0.131912
C57   C     C_R   0.636975 0.920692 0.739318 -0.055274
C58   C     C_R   0.487140 0.872722 0.708312 0.299442
C59   C     C_2   0.639296 0.272955 0.007778 -0.264597
C60   C     C_2   0.476484 0.226894 0.991844 -0.269217
O19   O     O_R   0.618210 0.960470 0.922400 -0.537781
O20   O     O_R   0.291310 0.111960 0.995450 -0.532240
O21   O     O_R   0.124210 0.039530 0.077580 -0.543105
C61   C     C_R   0.461683 0.144653 0.997899 0.724258
O22   O     O_R   0.288310 0.965490 0.917650 -0.535920
O23   O     O_R   0.121180 0.892010 0.999220 -0.539120
C62   C     C_R   0.457197 0.952955 0.893706 0.735410
O24   O     O_R   0.621230 0.107990 0.000760 -0.535087
O25   O     O_3   0.455770 0.976060 0.026840 -0.374219
V3    V     V_3+5 0.179680 0.004440 0.995020 1.514494
O26   O     O_R   0.791670 0.888040 0.004570 -0.534471
C63   C     C_R   0.961732 0.855289 0.001993 0.721609
O27   O     O_R   0.794680 0.034510 0.082370 -0.548101
C64   C     C_R   0.964633 0.049671 0.106093 0.724925
V4    V     V_3+5 0.680070 0.995560 0.005010 1.500120
O28   O     O_3   0.953840 0.023940 0.973160 -0.354485
C65   C     C_1   0.301110 0.754092 0.964209 0.366083
N5    N     N_1   0.430680 0.775244 0.941764 -0.356605
C66   C     C_1   0.336085 0.188236 0.279735 0.329199
N6    N     N_1   0.474722 0.221702 0.299715 -0.304538
H7    H     H_    0.420074 0.455543 0.814336 0.142376
C67   C     C_1   0.812952 0.351031 0.837675 0.345161
N7    N     N_1   0.684189 0.337590 0.864118 -0.342983
C68   C     C_1   0.798940 0.292276 0.716441 0.339743
N8    N     N_1   0.664883 0.257257 0.694409 -0.279101
H8    H     H_    0.529974 0.607560 0.567609 0.179498
H9    H     H_    0.554793 0.554170 0.465218 0.174381
C69   C     C_1   0.611873 0.941845 0.420010 0.431094
N9    N     N_1   0.628578 0.986586 0.392065 -0.283369
C70   C     C_1   0.577233 0.002649 0.538217 0.386986
N10   N     N_1   0.589286 0.070626 0.556324 -0.287206
C71   C     C_1   0.308868 0.712152 0.273004 0.351814
N11   N     N_1   0.175689 0.750683 0.290250 -0.298549
C72   C     C_1   0.814428 0.745982 0.035943 0.371390
N12   N     N_1   0.684792 0.724879 0.058389 -0.357414
C73   C     C_1   0.944588 0.593738 0.301619 0.374774
N13   N     N_1   0.069598 0.582462 0.330855 -0.306875
C74   C     C_1   0.168255 0.806842 0.708594 0.368833
N14   N     N_1   0.041780 0.768503 0.684623 -0.309279
H10   H     H_    0.194174 0.866370 0.820602 0.133378
C75   C     C_1   0.778059 0.001614 0.829554 0.323545
N15   N     N_1   0.898630 0.043926 0.853079 -0.307721
C76   C     C_1   0.801649 0.941124 0.708973 0.374862
N16   N     N_1   0.932559 0.957782 0.684730 -0.293042
C77   C     C_1   0.803751 0.245974 0.035677 0.368974
N17   N     N_1   0.935061 0.224872 0.058037 -0.357456
C78   C     C_1   0.312568 0.253683 0.963601 0.398282
N18   N     N_1   0.181706 0.274595 0.940944 -0.336217
H11   H     H_    0.008749 0.452763 0.536518 0.173730
H12   H     H_    0.125186 0.029655 0.463598 0.164835
H13   H     H_    0.159522 0.082061 0.566692 0.189648
H14   H     H_    0.693663 0.038880 0.186326 0.136200

loop_
_geom_bond_atom_site_label_1
_geom_bond_atom_site_label_2
_ccdc_geom_bond_type
C21   C26   A    
C57   C58   A    
O26   C63   A    
C59   C77   S    
O23   C63   A    
C51   C73   S    
C47   C71   S    
O19   V4    S    
V4    O28   S    
C7    N1    A    
C47   C52   A    
C53   C74   S    
C1    O6    A    
C74   N14   T    
C3    C29   S    
C51   C52   A    
C77   N17   T    
C8    O12   S    
C55   C56   A    
C31   C68   S    
C27   C32   A    
C13   C14   A    
C73   N13   T    
O24   V4    S    
C15   C16   A    
C12   H11   S    
C48   C49   A    
C5    C65   S    
O5    C3    A    
C17   C18   A    
C56   C75   S    
N3    C58   S    
C61   O24   A    
C42   C46   A    
C2    C59   S    
N3    C34   A    
C5    C6    D    
C1    C49   S    
C6    C63   S    
C54   H10   S    
C57   C76   S    
C69   N9    T    
C39   H9    S    
N4    C52   S    
C23   C64   S    
O8    V2    S    
C53   C54   A    
C37   C44   A    
C45   N4    A    
C9    C12   A    
C22   H14   S    
C65   N5    T    
O1    V2    S    
C19   O13   S    
C16   C17   A    
O7    V1    S    
C33   C37   A    
C35   C38   A    
C21   C22   A    
C53   C58   A    
C36   C37   A    
O1    C2    A    
O9    C4    A    
C4    C5    S    
N4    C46   A    
C38   H8    S    
O21   C64   A    
C67   N7    T    
C24   C25   A    
C60   C61   S    
C9    C10   A    
O26   V4    S    
O25   V4    S    
C17   H12   S    
C20   O14   S    
C48   H5    S    
N1    C32   S    
C50   C51   A    
O22   V3    S    
C12   C13   A    
C31   C32   A    
C16   C20   A    
O19   C62   A    
C29   C30   A    
C18   H13   S    
O2    C1    A    
C47   C48   A    
C46   O18   S    
C39   C40   A    
O25   V3    S    
C10   C11   A    
C33   N3    A    
O20   C61   A    
C28   C29   A    
C36   C41   A    
O27   V4    S    
C10   C15   A    
C54   C55   A    
O21   V3    S    
O3    C4    A    
C56   C57   A    
C27   H4    S    
O6    V2    S    
O9    V2    S    
C23   C24   A    
C76   N16   T    
N2    C26   S    
C50   H6    S    
C35   C36   A    
C22   C23   A    
C75   N15   T    
O2    V1    S    
C14   C15   A    
C60   C78   S    
C24   H3    S    
O20   V3    S    
O4    C2    A    
C44   C70   S    
C25   C26   A    
C21   H2    S    
C14   C19   A    
C49   C50   A    
O5    V1    S    
O8    C3    A    
O22   C62   A    
C13   H1    S    
C68   N8    T    
C78   N18   T    
C40   C45   A    
V3    O28   S    
C41   C42   A    
C7    C11   A    
C45   O17   S    
C11   C18   A    
O4    V1    S    
O3    V1    S    
C7    O11   S    
C66   N6    T    
C19   N2    A    
C34   C35   A    
O23   V3    S    
C27   C28   A    
C28   H7    S    
N2    C20   A    
C43   C44   A    
C34   O16   S    
O7    V2    S    
C38   C39   A    
C55   C62   S    
C40   C41   A    
N1    C8    A    
C42   C43   A    
C43   C69   S    
C25   C66   S    
C6    C72   S    
O27   C64   A    
C71   N11   T    
C30   C67   S    
C70   N10   T    
V1    O10   S    
C59   C60   D    
C8    C9    A    
C33   O15   S    
V2    O10   S    
C30   C31   A    
C72   N12   T    
