data_mof_unit_9725.cif
_audit_creation_date              2012-12-10T17:16:41-0500
_audit_creation_method            fapswitch 2.2
_symmetry_space_group_name_H-M    P1
_symmetry_Int_Tables_number       1
_space_group_crystal_system       triclinic
_cell_length_a                    10.26103
_cell_length_b                    10.729032
_cell_length_c                    10.711774
_cell_angle_alpha                 92.616475
_cell_angle_beta                  94.157075
_cell_angle_gamma                 80.83934
_cell_volume                      1160.46849877

loop_
_atom_site_label
_atom_site_type_symbol
_atom_type_description
_atom_site_fract_x
_atom_site_fract_y
_atom_site_fract_z
_atom_type_partial_charge
C1    C     C_R   0.446836 0.518522 0.267884 0.907104
C2    C     C_R   0.495287 0.739255 0.485031 0.879636
C3    C     C_R   0.622304 0.102961 0.284922 0.157791
C4    C     C_R   0.248811 0.931848 0.526844 0.190088
C5    C     C_R   0.730036 0.029708 0.226949 0.235613
C6    C     C_R   0.176660 0.996597 0.624735 0.227136
C7    C     C_R   0.764503 0.901415 0.256048 0.188004
C8    C     C_R   0.229302 0.095292 0.693260 0.210241
C9    C     C_R   0.680785 0.846784 0.327565 -0.234476
C10   C     C_R   0.341209 0.136479 0.651710 -0.201284
C11   C     C_R   0.578586 0.921569 0.392035 -0.004953
C12   C     C_R   0.553773 0.497196 0.732258 0.937335
C13   C     C_R   0.406782 0.074470 0.549413 -0.028584
C14   C     C_R   0.565898 0.053112 0.385814 0.027723
C15   C     C_R   0.377882 0.957472 0.509183 0.022832
C16   C     C_R   0.482423 0.872488 0.456979 -0.170510
C17   C     C_R   0.494834 0.127166 0.480135 -0.152971
C18   C     C_3   0.163161 0.164266 0.803254 -0.905620
C19   C     C_3   0.881560 0.818265 0.202832 -0.897862
C20   C     C_3   0.550885 0.217441 0.218501 -0.848868
C21   C     C_3   0.177233 0.860885 0.425460 -0.829871
C22   C     C_3   0.802563 0.089277 0.132389 -0.923819
C23   C     C_2   0.423664 0.552045 0.137146 -0.418992
C24   C     C_3   0.045771 0.959276 0.652983 -0.905051
C25   C     C_1   0.391713 0.680594 0.887286 0.225141
C26   C     C_1   0.659862 0.573310 0.118560 0.234799
C27   C     C_3   0.884016 0.611044 0.611020 -0.837061
C28   C     C_3   0.115683 0.390166 0.387644 -0.823661
C29   C     C_2   0.580963 0.508760 0.864710 -0.415659
C30   C     C_2   0.522806 0.578225 0.070394 -0.009315
C31   C     C_2   0.500187 0.588075 0.936605 -0.019812
C32   C     C_2   0.072482 0.488893 0.487931 0.214384
C33   C     C_2   0.927427 0.511567 0.511564 0.212628
C34   C     C_R   0.500125 0.259878 0.497936 0.879691
H1    H     H_    0.696886 0.745725 0.327554 0.213419
H2    H     H_    0.859510 0.797476 0.101723 0.255413
H3    H     H_    0.970592 0.864859 0.214532 0.237215
H4    H     H_    0.907390 0.728452 0.252878 0.253512
H5    H     H_    0.458829 0.260440 0.261541 0.218431
H6    H     H_    0.619125 0.286552 0.212874 0.269269
H7    H     H_    0.519287 0.188936 0.121461 0.222635
H8    H     H_    0.240943 0.825567 0.347832 0.237782
H9    H     H_    0.139643 0.780573 0.464153 0.254806
H10   H     H_    0.092270 0.926812 0.384700 0.218873
H11   H     H_    0.885249 0.024501 0.092588 0.249156
H12   H     H_    0.376282 0.217291 0.699145 0.169506
H13   H     H_    0.733739 0.122589 0.051818 0.243751
H14   H     H_    0.843912 0.170893 0.177849 0.237431
H15   H     H_    0.000744 0.011402 0.734696 0.249924
H16   H     H_    0.973263 0.976920 0.571226 0.243385
H17   H     H_    0.060814 0.857322 0.673434 0.239319
H18   H     H_    0.938320 0.585299 0.701989 0.203237
H19   H     H_    0.904747 0.704047 0.583278 0.205362
H20   H     H_    0.780023 0.624084 0.629090 0.302018
H21   H     H_    0.061667 0.417132 0.296832 0.202675
H22   H     H_    0.219884 0.376365 0.370285 0.295532
H23   H     H_    0.666064 0.446509 0.905234 0.149947
H24   H     H_    0.094261 0.296938 0.414141 0.207481
H25   H     H_    0.324387 0.554248 0.093395 0.157816
H26   H     H_    0.874868 0.381151 0.382161 0.159460
H27   H     H_    0.125481 0.617187 0.619393 0.155753
H28   H     H_    0.156347 0.096493 0.876925 0.248244
H29   H     H_    0.219510 0.237618 0.845678 0.235916
H30   H     H_    0.062650 0.212090 0.772519 0.247270
N1    N     N_2   0.157300 0.551390 0.551120 -0.204909
N2    N     N_2   0.842700 0.448610 0.448880 -0.193749
N3    N     N_1   0.305444 0.754385 0.848118 -0.220423
N4    N     N_1   0.769644 0.565547 0.154901 -0.249653
O1    O     O_R   0.568940 0.489660 0.307530 -0.609441
O2    O     O_R   0.431060 0.510340 0.692470 -0.594578
O3    O     O_R   0.348880 0.522640 0.340350 -0.622659
O4    O     O_R   0.651120 0.477360 0.659650 -0.616336
O5    O     O_R   0.610030 0.300280 0.483580 -0.595091
O6    O     O_R   0.389970 0.699720 0.516420 -0.597948
O7    O     O_R   0.389970 0.333270 0.516400 -0.623793
O8    O     O_R   0.610030 0.666730 0.483600 -0.640913
Zn1   Zn    Zn3+2 0.646940 0.477980 0.478080 0.930671
Zn2   Zn    Zn3+2 0.353060 0.522020 0.521920 0.932506

loop_
_geom_bond_atom_site_label_1
_geom_bond_atom_site_label_2
_ccdc_geom_bond_type
C25   C31   S    
C22   H14   S    
C12   C29   S    
O2    Zn2   S    
O1    Zn1   S    
C25   N3    T    
C20   H7    S    
C28   H22   S    
C27   H20   S    
C27   C33   S    
C23   H25   S    
C1    O3    A    
C19   H2    S    
C30   C31   S    
C20   H6    S    
C11   C14   A    
C18   H29   S    
C15   C16   A    
C19   H3    S    
C21   H9    S    
C5    C22   S    
C10   H12   S    
C2    C16   S    
C2    O6    A    
C34   O7    A    
C24   H17   S    
C22   H13   S    
C12   O4    A    
H26   N2    S    
C14   C17   A    
C28   H21   S    
C33   N2    D    
C24   H16   S    
C23   C30   D    
C28   C32   S    
O8    Zn1   S    
C4    C6    A    
C5    C7    A    
C20   H5    S    
C18   H28   S    
C6    C8    A    
C8    C18   S    
O4    Zn1   S    
C19   H4    S    
C21   H10   S    
C11   C16   A    
C6    C24   S    
C3    C20   S    
C9    C11   A    
C3    C14   A    
C29   H23   S    
C1    C23   S    
C7    C19   S    
C13   C15   A    
C17   C34   S    
C2    O8    A    
C27   H18   S    
C24   H15   S    
C7    C9    A    
N2    Zn1   S    
C12   O2    A    
N1    Zn2   S    
C3    C5    A    
C10   C13   A    
C27   H19   S    
C26   C30   S    
C28   H24   S    
C13   C17   A    
C26   N4    T    
C32   C33   S    
C4    C15   A    
C29   C31   D    
C4    C21   S    
C18   H30   S    
O7    Zn2   S    
C1    O1    A    
C34   O5    A    
C21   H8    S    
H27   N1    S    
C22   H11   S    
C8    C10   A    
O6    Zn2   S    
C9    H1    S    
O5    Zn1   S    
O3    Zn2   S    
C32   N1    D    
