data_mof_unit_22431.cif
_audit_creation_date              2012-10-26T18:50:23-0400
_audit_creation_method            fapswitch 2.2
_symmetry_space_group_name_H-M    P1
_symmetry_Int_Tables_number       1
_space_group_crystal_system       triclinic
_cell_length_a                    9.630422
_cell_length_b                    10.912698
_cell_length_c                    15.489953
_cell_angle_alpha                 87.103036
_cell_angle_beta                  74.18937
_cell_angle_gamma                 90.667302
_cell_volume                      1563.76283656

loop_
_atom_site_label
_atom_site_type_symbol
_atom_type_description
_atom_site_fract_x
_atom_site_fract_y
_atom_site_fract_z
_atom_type_partial_charge
C1    C     C_R   0.995020 0.263142 0.510552 0.545011
C2    C     C_R   0.224816 0.477942 0.041830 0.028912
C3    C     C_R   0.324398 0.509165 0.090142 0.024715
C4    C     C_R   0.918288 0.500988 0.671848 0.529767
C5    C     C_R   0.078369 0.457079 0.086175 -0.125229
C6    C     C_R   0.027296 0.464258 0.179411 0.086559
C7    C     C_R   0.271764 0.515377 0.183809 -0.167220
C8    C     C_R   0.208060 0.120863 0.580931 -0.059818
C9    C     C_R   0.338701 0.064335 0.577549 0.117494
C10   C     C_R   0.369238 0.957485 0.531401 -0.089334
C11   C     C_R   0.262354 0.897116 0.504050 -0.129792
C12   C     C_R   0.671412 0.520992 0.904771 0.030673
C13   C     C_R   0.121952 0.943009 0.519884 0.001027
C14   C     C_R   0.106201 0.066081 0.543251 0.006072
C15   C     C_R   0.987784 0.129561 0.529048 -0.028914
C16   C     C_R   0.999512 0.738416 0.503703 0.523930
C17   C     C_R   0.863223 0.062812 0.530725 -0.150599
C18   C     C_R   0.861785 0.934561 0.537669 -0.026545
C19   C     C_R   0.996244 0.873238 0.516700 0.001710
C20   C     C_R   0.702020 0.654515 0.374153 -0.071941
C21   C     C_R   0.659561 0.728079 0.310733 -0.165073
C22   C     C_R   0.516861 0.727615 0.309936 -0.195871
C23   C     C_R   0.769778 0.563460 0.950715 0.047498
C24   C     C_R   0.416020 0.653088 0.372203 -0.117969
C25   C     C_R   0.454618 0.574094 0.436670 0.154615
C26   C     C_R   0.603654 0.574655 0.437224 0.152675
C27   C     C_R   0.545857 0.431754 0.561524 -0.004428
C28   C     C_R   0.081483 0.498184 0.327858 0.551145
C29   C     C_R   0.397946 0.433278 0.562216 0.000913
C30   C     C_R   0.872670 0.513181 0.769297 -0.007150
C31   C     C_R   0.125622 0.493435 0.228909 0.023781
C32   C     C_R   0.916928 0.580805 0.905758 -0.146289
C33   C     C_R   0.968027 0.556646 0.815302 -0.145491
C34   C     C_R   0.521235 0.509372 0.950014 0.033273
C35   C     C_R   0.727229 0.491571 0.814850 -0.140065
C36   C     C_3   0.715781 0.870684 0.576315 -0.239074
C37   C     C_3   0.703241 0.805141 0.668350 -0.270857
C38   C     C_3   0.558265 0.736458 0.703843 -0.443009
C39   C     C_R   0.473387 0.529667 0.043527 0.037741
C40   C     C_R   0.575813 0.571156 0.086775 -0.143133
C41   C     C_R   0.720453 0.589055 0.040807 -0.146176
C42   C     C_R   0.417038 0.481064 0.904349 -0.143956
C43   C     C_R   0.272018 0.466285 0.949517 -0.140345
Cu1   Cu    Cu3+1 0.140660 0.499990 0.500010 0.916640
Cu2   Cu    Cu3+1 0.859340 0.500010 0.499990 0.920180
H1    H     H_    0.794549 0.622583 0.076416 0.120771
H2    H     H_    0.343495 0.533997 0.224056 0.128072
H3    H     H_    0.483010 0.787860 0.262184 0.122450
H4    H     H_    0.307768 0.668006 0.370870 0.175343
H5    H     H_    0.319213 0.381267 0.614494 0.095270
H6    H     H_    0.196306 0.443928 0.911770 0.106218
H7    H     H_    0.992026 0.615389 0.940191 0.110098
H8    H     H_    0.080966 0.574625 0.781012 0.126406
H9    H     H_    0.659850 0.451455 0.778083 0.114121
H10   H     H_    0.547840 0.594040 0.155910 0.122242
H11   H     H_    0.442862 0.472440 0.832837 0.091402
H12   H     H_    0.003850 0.432161 0.048268 0.106967
H13   H     H_    0.401205 0.194018 0.651008 0.203113
H14   H     H_    0.447656 0.052062 0.670978 0.217086
H15   H     H_    0.549147 0.662500 0.658875 0.169337
H16   H     H_    0.549447 0.694660 0.771972 0.149848
H17   H     H_    0.467961 0.800399 0.708315 0.143771
H18   H     H_    0.790980 0.739326 0.664732 0.196048
H19   H     H_    0.712898 0.874225 0.716915 0.152967
H20   H     H_    0.632176 0.940474 0.589150 0.143366
H21   H     H_    0.687945 0.809728 0.528144 0.170377
H22   H     H_    0.870940 0.351820 0.257833 0.244589
H23   H     H_    0.764659 0.110759 0.532406 0.160381
H24   H     H_    0.818149 0.429665 0.176830 0.220601
H25   H     H_    0.183718 0.204645 0.615676 0.114391
H26   H     H_    0.473804 0.917584 0.518010 0.108422
H27   H     H_    0.295738 0.817344 0.469104 0.149147
H28   H     H_    0.577729 0.375938 0.612234 0.118353
H29   H     H_    0.812343 0.666336 0.372267 0.187295
H30   H     H_    0.737569 0.788046 0.263230 0.123273
N1    N     N_R   0.648320 0.501210 0.499140 -0.248465
N2    N     N_R   0.352470 0.501290 0.499110 -0.240370
N3    N     N_3   0.441073 0.114768 0.619054 -0.656036
N4    N     N_3   0.877454 0.437762 0.223718 -0.601900
O1    O     O_R   0.118810 0.319640 0.500010 -0.492601
O2    O     O_R   0.881240 0.319660 0.500000 -0.494891
O3    O     O_R   0.055570 0.499980 0.629840 -0.509722
O4    O     O_R   0.818000 0.500010 0.629830 -0.517533
O5    O     O_R   0.118760 0.680340 0.500000 -0.531682
O6    O     O_R   0.881190 0.680360 0.499990 -0.530073
O7    O     O_R   0.182000 0.499990 0.370170 -0.523057
O8    O     O_R   0.944430 0.500020 0.370160 -0.481445

loop_
_geom_bond_atom_site_label_1
_geom_bond_atom_site_label_2
_ccdc_geom_bond_type
C22   H3    S    
C27   C29   A    
C34   C42   A    
C12   C23   A    
C30   C35   A    
Cu2   N1    S    
C25   N2    A    
Cu1   N2    S    
Cu2   O8    S    
C3    C7    A    
C5    C6    A    
C36   H21   S    
C1    O2    A    
C16   O5    A    
C18   C19   A    
C32   H7    S    
C42   H11   S    
C8    C9    A    
C26   N1    A    
C41   H1    S    
C1    C15   S    
C9    C10   A    
C38   H16   S    
C10   H26   S    
C6    C31   A    
C3    C39   A    
C21   C22   A    
C35   H9    S    
Cu2   O4    S    
Cu1   O7    S    
H14   N3    S    
C37   H18   S    
C29   H5    S    
C33   H8    S    
C7    C31   A    
C13   C19   A    
C34   C39   A    
Cu1   O1    S    
H22   N4    S    
C24   C25   A    
C39   C40   A    
C11   H27   S    
C25   C26   A    
C7    H2    S    
Cu2   O6    S    
C37   C38   S    
C2    C43   A    
C40   H10   S    
C28   O8    A    
C17   C18   A    
C20   H29   S    
C12   C35   A    
C4    O3    A    
C38   H15   S    
C40   C41   A    
C28   O7    A    
C16   O6    A    
C22   C24   A    
H24   N4    S    
C2    C5    A    
C42   C43   A    
C12   C34   A    
C27   N1    A    
C37   H19   S    
Cu1   Cu2   S    
C24   H4    S    
C15   C17   A    
C36   C37   S    
C17   H23   S    
C8    C14   A    
C30   C33   A    
C36   H20   S    
C8    H25   S    
C28   C31   S    
Cu2   O2    S    
Cu1   O5    S    
C21   H30   S    
Cu1   O3    S    
C23   C41   A    
C5    H12   S    
C32   C33   A    
C2    C3    A    
C27   H28   S    
C23   C32   A    
C11   C13   A    
C43   H6    S    
C6    N4    S    
C4    O4    A    
C20   C26   A    
C16   C19   S    
C9    N3    S    
C10   C11   A    
H13   N3    S    
C29   N2    A    
C20   C21   A    
C1    O1    A    
C14   C15   A    
C13   C14   A    
C18   C36   S    
C4    C30   S    
C38   H17   S    
