data_mof_unit_11179.cif
_audit_creation_date              2012-12-10T19:11:05-0500
_audit_creation_method            fapswitch 2.2
_symmetry_space_group_name_H-M    P1
_symmetry_Int_Tables_number       1
_space_group_crystal_system       triclinic
_cell_length_a                    10.773406
_cell_length_b                    9.082834
_cell_length_c                    7.798099
_cell_angle_alpha                 90.038789
_cell_angle_beta                  90.259444
_cell_angle_gamma                 90.021733
_cell_volume                      763.059782505

loop_
_atom_site_label
_atom_site_type_symbol
_atom_type_description
_atom_site_fract_x
_atom_site_fract_y
_atom_site_fract_z
_atom_type_partial_charge
C1    C     C_R   0.500582 0.220105 0.500024 0.948668
C2    C     C_R   0.259919 0.489965 0.499839 0.806305
C3    C     C_R   0.739969 0.488788 0.500587 0.814908
C4    C     C_R   0.500082 0.779913 0.500046 0.838167
C5    C     C_1   0.500477 0.065424 0.500107 -0.104761
C6    C     C_3   0.073637 0.414355 0.676194 -0.234066
C7    C     C_3   0.071625 0.385053 0.342456 -0.223493
C8    C     C_3   0.928634 0.422742 0.682432 -0.236327
C9    C     C_3   0.926229 0.375546 0.352586 -0.220116
C10   C     C_1   0.500301 0.934620 0.500126 -0.163939
C11   C     C_3   0.070949 0.635572 0.481355 -0.403796
C12   C     C_3   0.928385 0.633868 0.472042 -0.406037
C13   C     C_3   0.122421 0.476534 0.500147 -0.045423
C14   C     C_3   0.877484 0.475821 0.502697 -0.044271
Cu1   Cu    Cu3+1 0.500000 0.500010 0.669080 1.049113
Cu2   Cu    Cu3+1 0.500000 0.500010 0.330920 1.045859
H1    H     H_    0.106444 0.492447 0.777175 0.146773
H2    H     H_    0.091972 0.453132 0.226939 0.136246
H3    H     H_    0.906236 0.512954 0.774365 0.126227
H4    H     H_    0.891840 0.425931 0.230987 0.165679
H5    H     H_    0.101269 0.704614 0.591988 0.196242
H6    H     H_    0.108123 0.689022 0.363750 0.187607
H7    H     H_    0.890792 0.711735 0.569242 0.194856
H8    H     H_    0.897897 0.675167 0.344162 0.189190
N1    N     N_1   0.500000 0.499970 0.076820 -0.031886
N2    N     N_1   0.500000 0.499970 0.923180 -0.028257
O1    O     O_R   0.500000 0.288400 0.642760 -0.558085
O2    O     O_R   0.500000 0.288400 0.357240 -0.550275
O3    O     O_R   0.317700 0.499990 0.642790 -0.572436
O4    O     O_R   0.317700 0.499990 0.357210 -0.588684
O5    O     O_R   0.682300 0.499990 0.642790 -0.589082
O6    O     O_R   0.682300 0.499990 0.357210 -0.575926
O7    O     O_R   0.500000 0.711620 0.642810 -0.581693
O8    O     O_R   0.500000 0.711620 0.357190 -0.586319
C15   C     C_2   0.131465 0.267883 0.728320 0.953368
O9    O     O_2   0.092820 0.151504 0.670472 -0.531937
O10   O     O_R   0.229494 0.267130 0.846466 -0.731192
H9    H     H_    0.263010 0.164568 0.868580 0.334196
C16   C     C_2   0.137280 0.240899 0.299997 0.949307
O11   O     O_2   0.224697 0.196468 0.385642 -0.616088
O12   O     O_R   0.099755 0.161260 0.155425 -0.717480
H10   H     H_    0.149154 0.067316 0.139264 0.332410
C17   C     C_2   0.866217 0.289416 0.764389 0.923539
O13   O     O_2   0.782292 0.222757 0.692528 -0.588687
O14   O     O_R   0.903063 0.246456 0.928682 -0.736030
H11   H     H_    0.860340 0.152750 0.966992 0.364287
C18   C     C_2   0.869458 0.221993 0.350926 0.931660
O15   O     O_2   0.918554 0.119423 0.426434 -0.534968
O16   O     O_R   0.758438 0.198626 0.261605 -0.755009
H12   H     H_    0.729187 0.092673 0.268053 0.321655

loop_
_geom_bond_atom_site_label_1
_geom_bond_atom_site_label_2
_ccdc_geom_bond_type
Cu2   O2    S    
C1    O2    A    
C6    C8    S    
C9    C14   S    
Cu1   O5    S    
O10   H9    S    
Cu2   N1    S    
C6    H1    S    
Cu2   O6    S    
C11   C13   S    
O12   H10   S    
C12   H8    S    
C11   H6    S    
Cu1   O1    S    
C18   O15   D    
C8    C17   S    
C2    O4    A    
C17   O13   D    
C7    H2    S    
C5    C10   T    
C16   O12   S    
O14   H11   S    
C6    C13   S    
C3    O5    A    
C17   O14   S    
C12   H7    S    
C3    C14   S    
C2    O3    A    
C1    C5    S    
C15   O10   S    
C12   C14   S    
Cu1   O3    S    
C3    O6    A    
C4    O8    A    
C9    C18   S    
Cu2   O4    S    
Cu1   Cu2   S    
C8    H3    S    
C7    C9    S    
C7    C13   S    
C6    C15   S    
C18   O16   S    
O16   H12   S    
C16   O11   D    
C1    O1    A    
C2    C13   S    
C7    C16   S    
C4    O7    A    
Cu1   N2    S    
C8    C14   S    
C9    H4    S    
Cu2   O8    S    
N1    N2    T    
C4    C10   S    
C11   H5    S    
C15   O9    D    
C11   C12   S    
Cu1   O7    S    
