data_mof_unit_18944.cif
_audit_creation_date              2013-03-05T15:51:14-0500
_audit_creation_method            fapswitch 2.2
_symmetry_space_group_name_H-M    P1
_symmetry_Int_Tables_number       1
_space_group_crystal_system       triclinic
_cell_length_a                    19.251409
_cell_length_b                    11.067716
_cell_length_c                    18.755439
_cell_angle_alpha                 89.709077
_cell_angle_beta                  90.198825
_cell_angle_gamma                 91.016509
_cell_volume                      3995.50178096

loop_
_atom_site_label
_atom_site_type_symbol
_atom_site_description
_atom_site_fract_x
_atom_site_fract_y
_atom_site_fract_z
_atom_type_partial_charge
O1    O     O_R   0.787520 0.042810 0.170440 -0.433310
O2    O     O_R   0.212480 0.042810 0.829560 -0.502305
O3    O     O_R   0.287520 0.542810 0.170440 -0.431790
O4    O     O_R   0.712480 0.542810 0.829560 -0.500666
O5    O     O_R   0.765640 0.292100 0.175020 -0.444356
O6    O     O_R   0.234360 0.292100 0.824980 -0.495152
O7    O     O_R   0.265640 0.792100 0.175020 -0.457434
O8    O     O_R   0.734360 0.792100 0.824980 -0.494369
C1    C     C_R   0.715186 0.340172 0.138545 0.524582
C2    C     C_R   0.269647 0.378297 0.853225 0.529917
C3    C     C_R   0.229270 0.875903 0.145712 0.547285
C4    C     C_R   0.769500 0.878420 0.852652 0.538752
O9    O     O_R   0.670190 0.408840 0.168540 -0.514831
O10   O     O_R   0.329810 0.408840 0.831460 -0.547606
O11   O     O_R   0.170190 0.908840 0.168540 -0.531560
O12   O     O_R   0.829810 0.908840 0.831460 -0.549046
O13   O     O_R   0.556620 0.251410 0.175160 -0.540877
O14   O     O_R   0.443380 0.251410 0.824840 -0.532284
O15   O     O_R   0.056620 0.751410 0.175160 -0.535452
O16   O     O_R   0.943380 0.751410 0.824840 -0.533186
C5    C     C_R   0.527978 0.154847 0.149004 0.545617
C6    C     C_R   0.467865 0.154982 0.854270 0.575213
C7    C     C_R   0.028279 0.654877 0.148926 0.557151
C8    C     C_R   0.967390 0.654721 0.854491 0.570362
O17   O     O_R   0.545960 0.049620 0.170320 -0.461960
O18   O     O_R   0.454040 0.049620 0.829680 -0.428744
O19   O     O_R   0.045960 0.549620 0.170320 -0.459636
O20   O     O_R   0.954040 0.549620 0.829680 -0.429887
O21   O     O_R   0.681390 0.958010 0.176690 -0.491524
O22   O     O_R   0.318610 0.958010 0.823310 -0.480192
O23   O     O_R   0.181390 0.458010 0.176690 -0.491592
O24   O     O_R   0.818610 0.458010 0.823310 -0.479482
C9    C     C_R   0.730313 0.013693 0.139955 0.525771
C10   C     C_R   0.259872 0.972816 0.852463 0.590805
C11   C     C_R   0.229277 0.516875 0.140030 0.534751
C12   C     C_R   0.759339 0.471083 0.851714 0.586064
O25   O     O_R   0.787510 0.044390 0.330970 -0.454343
O26   O     O_R   0.212490 0.044390 0.669030 -0.459653
O27   O     O_R   0.287510 0.544390 0.330970 -0.454052
O28   O     O_R   0.712490 0.544390 0.669030 -0.457604
O29   O     O_R   0.765630 0.293570 0.323840 -0.534149
O30   O     O_R   0.234370 0.293570 0.676160 -0.498384
O31   O     O_R   0.265630 0.793570 0.323840 -0.539312
O32   O     O_R   0.734370 0.793570 0.676160 -0.499981
C13   C     C_R   0.729599 0.377939 0.351728 0.545964
C14   C     C_R   0.268945 0.385327 0.650580 0.557130
C15   C     C_R   0.229653 0.877821 0.351728 0.541275
C16   C     C_R   0.768795 0.885640 0.650735 0.557923
O33   O     O_R   0.670190 0.410420 0.329080 -0.434698
O34   O     O_R   0.329810 0.410420 0.670920 -0.468249
O35   O     O_R   0.170190 0.910420 0.329080 -0.435571
O36   O     O_R   0.829810 0.910420 0.670920 -0.460596
O37   O     O_R   0.556610 0.252880 0.323980 -0.476519
O38   O     O_R   0.443390 0.252880 0.676020 -0.421651
O39   O     O_R   0.056610 0.752880 0.323980 -0.478531
O40   O     O_R   0.943390 0.752880 0.676020 -0.427167
C17   C     C_R   0.533781 0.156421 0.353678 0.550486
C18   C     C_R   0.469083 0.156310 0.647660 0.581041
C19   C     C_R   0.034711 0.656486 0.354230 0.550531
C20   C     C_R   0.969794 0.656138 0.648201 0.587948
O41   O     O_R   0.545950 0.051210 0.330860 -0.506154
O42   O     O_R   0.454050 0.051210 0.669140 -0.520334
O43   O     O_R   0.045950 0.551210 0.330860 -0.516017
O44   O     O_R   0.954050 0.551210 0.669140 -0.514022
O45   O     O_R   0.681390 0.959480 0.325510 -0.450436
O46   O     O_R   0.318610 0.959480 0.674490 -0.502847
O47   O     O_R   0.181390 0.459480 0.325510 -0.447582
O48   O     O_R   0.818610 0.459480 0.674490 -0.508457
C21   C     C_R   0.728072 0.020797 0.361453 0.547778
C22   C     C_R   0.257846 0.972060 0.646286 0.564442
C23   C     C_R   0.228053 0.521133 0.361378 0.548933
C24   C     C_R   0.757716 0.471991 0.646365 0.566601
Cr1   Cr    Cr6+3 0.772010 0.169670 0.250090 1.118781
Cr2   Cr    Cr6+3 0.227990 0.169670 0.749910 1.091633
Cr3   Cr    Cr6+3 0.272010 0.669670 0.250090 1.116292
Cr4   Cr    Cr6+3 0.727990 0.669670 0.749910 1.095743
Cr5   Cr    Cr6+3 0.615000 0.323260 0.249260 1.084664
Cr6   Cr    Cr6+3 0.385000 0.323260 0.750740 1.086573
Cr7   Cr    Cr6+3 0.115000 0.823260 0.249260 1.080332
Cr8   Cr    Cr6+3 0.885000 0.823260 0.750740 1.088623
Cr9   Cr    Cr6+3 0.616710 0.010760 0.250840 1.092780
Cr10  Cr    Cr6+3 0.383290 0.010760 0.749160 1.092282
Cr11  Cr    Cr6+3 0.116710 0.510760 0.250840 1.096125
Cr12  Cr    Cr6+3 0.883290 0.510760 0.749160 1.090917
O49   O     O_3   0.667900 0.167900 0.250060 -0.358407
O50   O     O_3   0.332100 0.167900 0.749940 -0.298309
O51   O     O_3   0.167900 0.667900 0.250060 -0.349999
O52   O     O_3   0.832100 0.667900 0.749940 -0.297421
C25   C     C_R   0.493985 0.160230 0.929213 0.022375
C26   C     C_R   0.489176 0.161599 0.079841 -0.059525
C27   C     C_R   0.992698 0.659155 0.929570 0.019096
C28   C     C_R   0.989819 0.661814 0.079946 -0.050184
C29   C     C_R   0.495559 0.271483 0.966086 -0.007206
C30   C     C_R   0.486375 0.272466 0.041186 -0.060860
C31   C     C_R   0.996721 0.770519 0.966022 -0.001174
C32   C     C_R   0.988504 0.772345 0.041038 -0.056081
C33   C     C_R   0.481064 0.051165 0.042906 0.141344
C34   C     C_R   0.493369 0.050064 0.968829 0.200049
C35   C     C_R   0.980182 0.551153 0.043596 0.138535
C36   C     C_R   0.991163 0.549120 0.969397 0.196111
C37   C     C_R   0.512333 0.381237 0.930600 -0.053453
C38   C     C_R   0.486082 0.385006 0.076428 -0.058597
C39   C     C_R   0.013845 0.879674 0.930008 -0.047511
C40   C     C_R   0.987719 0.885471 0.075731 -0.062912
C41   C     C_R   0.019776 0.988233 0.966687 -0.121240
C42   C     C_R   0.006749 0.991178 0.039308 -0.058329
C43   C     C_R   0.517951 0.489315 0.967815 -0.121115
C44   C     C_R   0.505118 0.491136 0.040501 -0.053129
H1    H     H_    0.526313 0.383727 0.874885 0.183371
H2    H     H_    0.474128 0.390999 0.132597 0.173419
H3    H     H_    0.027498 0.881424 0.874205 0.182775
H4    H     H_    0.975560 0.892269 0.131813 0.175211
H5    H     H_    0.034771 0.070219 0.938640 0.139461
H6    H     H_    0.012068 0.075778 0.067646 0.194900
H7    H     H_    0.532859 0.571770 0.940191 0.140838
H8    H     H_    0.510553 0.575269 0.069296 0.195131
C45   C     C_R   0.746526 0.932113 0.918345 0.044159
C46   C     C_R   0.240014 0.895255 0.070271 0.019562
C47   C     C_R   0.245191 0.437244 0.917599 0.026915
C48   C     C_R   0.730106 0.367564 0.064575 0.002246
C49   C     C_R   0.698062 0.874430 0.962997 0.045450
C50   C     C_R   0.291577 0.973002 0.045781 0.094583
C51   C     C_R   0.191138 0.389788 0.959930 0.073790
C52   C     C_R   0.782359 0.449401 0.045678 0.120457
C53   C     C_R   0.693142 0.904822 0.032390 -0.030344
C54   C     C_R   0.300090 0.990009 0.973625 0.044909
C55   C     C_R   0.184208 0.424092 0.029401 -0.005088
C56   C     C_R   0.794573 0.474293 0.974850 0.048308
C57   C     C_R   0.786205 0.050981 0.020827 0.196388
C58   C     C_R   0.209612 0.841058 0.946690 0.231056
C59   C     C_R   0.283371 0.558660 0.019640 0.208360
C60   C     C_R   0.705827 0.328378 0.938145 0.235655
C61   C     C_R   0.784810 0.032133 0.946643 0.107515
C62   C     C_R   0.201418 0.824056 0.020500 0.060810
C63   C     C_R   0.284051 0.536833 0.945740 0.111928
C64   C     C_R   0.694737 0.301899 0.010513 0.042774
C65   C     C_3   0.649188 0.767203 0.974028 -0.237401
C66   C     C_3   0.303906 0.103553 0.061560 -0.272762
C67   C     C_3   0.150876 0.273316 0.973314 -0.246553
C68   C     C_3   0.793459 0.578461 0.066412 -0.254913
C69   C     C_3   0.642917 0.808006 0.051685 -0.241441
C70   C     C_3   0.317194 0.121041 0.982570 -0.285076
C71   C     C_3   0.143502 0.314808 0.050289 -0.253748
C72   C     C_3   0.811245 0.604031 0.989022 -0.290613
C73   C     C_R   0.738805 0.984654 0.065302 -0.042030
C74   C     C_R   0.255887 0.932571 0.924393 0.007195
C75   C     C_R   0.234390 0.494959 0.063520 -0.045966
C76   C     C_R   0.752752 0.422554 0.921620 0.003952
H9    H     H_    0.178691 0.187824 0.969749 0.113162
H10   H     H_    0.837694 0.594536 0.103075 0.197544
H11   H     H_    0.671695 0.676630 0.969944 0.113436
H12   H     H_    0.349994 0.121591 0.095408 0.187737
H13   H     H_    0.599600 0.770165 0.944978 0.222141
H14   H     H_    0.256607 0.146746 0.080749 0.125918
H15   H     H_    0.100276 0.265835 0.945953 0.216766
H16   H     H_    0.744791 0.619144 0.084153 0.131333
H17   H     H_    0.593084 0.848304 0.065506 0.220442
H18   H     H_    0.283327 0.182812 0.953558 0.124353
H19   H     H_    0.090681 0.339505 0.065192 0.220993
H20   H     H_    0.778360 0.667966 0.960319 0.124984
H21   H     H_    0.662770 0.744458 0.092135 0.148755
H22   H     H_    0.371266 0.142478 0.971011 0.128891
H23   H     H_    0.169544 0.258913 0.090872 0.146553
H24   H     H_    0.866213 0.626561 0.980982 0.130509
C77   C     C_R   0.493207 0.155756 0.574477 0.016614
C78   C     C_R   0.509119 0.166858 0.425578 0.042852
C79   C     C_R   0.001444 0.655229 0.577849 0.015014
C80   C     C_R   0.015152 0.664404 0.427799 0.022920
C81   C     C_R   0.460014 0.072897 0.528896 0.078321
C82   C     C_R   0.465382 0.079283 0.456104 0.044545
C83   C     C_R   0.989434 0.554524 0.534131 0.045506
C84   C     C_R   0.991789 0.561380 0.462578 0.036229
C85   C     C_R   0.541452 0.254264 0.470417 -0.080794
C86   C     C_R   0.534123 0.247865 0.544583 -0.087570
C87   C     C_R   0.038344 0.762701 0.470628 -0.081231
C88   C     C_R   0.032085 0.757394 0.545510 -0.088268
C89   C     C_3   0.458859 0.937701 0.528781 -0.015967
C90   C     C_3   0.452544 0.944772 0.447951 -0.052151
C91   C     C_3   0.967367 0.423727 0.532241 -0.013416
C92   C     C_3   0.964173 0.435751 0.450637 -0.040693
H25   H     H_    0.576557 0.322312 0.448758 0.200068
H26   H     H_    0.560700 0.312840 0.578270 0.203444
H27   H     H_    0.062659 0.841823 0.446811 0.221079
H28   H     H_    0.048981 0.833068 0.577456 0.221731
H29   H     H_    0.508404 0.899540 0.548955 0.178092
H30   H     H_    0.399514 0.924377 0.426695 0.146363
H31   H     H_    0.008422 0.364006 0.553307 0.192811
H32   H     H_    0.911004 0.434545 0.426898 0.147653
C93   C     C_R   0.746756 0.951915 0.586573 -0.004569
C94   C     C_R   0.244194 0.902607 0.425165 0.036531
C95   C     C_R   0.247440 0.450989 0.586138 -0.005423
C96   C     C_R   0.743836 0.403290 0.425187 0.034567
C97   C     C_R   0.795620 0.019260 0.547370 -0.018859
C98   C     C_R   0.257530 0.018421 0.450254 -0.054140
C99   C     C_R   0.296978 0.516275 0.546626 -0.022875
C100  C     C_R   0.754495 0.519767 0.450532 -0.047163
C101  C     C_R   0.789825 0.032998 0.475957 -0.012931
C102  C     C_R   0.256678 0.037488 0.522923 0.000787
C103  C     C_R   0.290539 0.532217 0.475455 -0.018334
C104  C     C_R   0.753802 0.538277 0.523236 0.003556
C105  C     C_R   0.673798 0.956795 0.479299 -0.155637
C106  C     C_R   0.239465 0.825741 0.547605 -0.155113
C107  C     C_R   0.174008 0.458869 0.479426 -0.147152
C108  C     C_R   0.739831 0.325824 0.547560 -0.167974
C109  C     C_R   0.681458 0.934860 0.553730 -0.162729
C110  C     C_R   0.233740 0.807384 0.474237 -0.155257
C111  C     C_R   0.181838 0.436083 0.553724 -0.154950
C112  C     C_R   0.734406 0.307665 0.474154 -0.163997
C113  C     C_3   0.870607 0.059323 0.545584 0.114044
C114  C     C_3   0.223869 0.137339 0.434825 0.084835
C115  C     C_3   0.372791 0.550701 0.544159 0.115223
C116  C     C_3   0.718013 0.636567 0.435848 0.083691
C117  C     C_3   0.862367 0.077673 0.464496 0.107582
C118  C     C_3   0.215550 0.150478 0.515416 0.100108
C119  C     C_3   0.363799 0.572618 0.463420 0.111490
C120  C     C_3   0.711006 0.649555 0.516564 0.097831
C121  C     C_R   0.731177 0.998093 0.438165 -0.007075
C122  C     C_R   0.250382 0.942870 0.572136 0.100904
C123  C     C_R   0.231404 0.498813 0.438040 -0.006586
C124  C     C_R   0.749646 0.443051 0.572265 0.093242
H33   H     H_    0.624517 0.938505 0.454037 0.207055
H34   H     H_    0.231940 0.751137 0.584505 0.113361
H35   H     H_    0.124569 0.442326 0.454320 0.209522
H36   H     H_    0.733297 0.250835 0.584357 0.114413
H37   H     H_    0.638690 0.898068 0.584444 0.178469
H38   H     H_    0.215513 0.721419 0.455410 0.094365
H39   H     H_    0.138817 0.400467 0.584603 0.175361
H40   H     H_    0.717107 0.221358 0.455135 0.094110
H41   H     H_    0.880490 0.143455 0.576076 0.070016
H42   H     H_    0.261784 0.204035 0.412059 0.141413
H43   H     H_    0.385278 0.632197 0.576044 0.076980
H44   H     H_    0.753924 0.705681 0.412188 0.137525
H45   H     H_    0.864812 0.173165 0.445948 0.066242
H46   H     H_    0.244014 0.228597 0.537874 0.109289
H47   H     H_    0.367779 0.668462 0.445868 0.067838
H48   H     H_    0.739211 0.728197 0.538604 0.107275
N1    N     N_R   0.459165 0.943097 0.081663 0.108857
O53   O     O_R   0.473408 0.835286 0.059771 -0.268565
O54   O     O_R   0.422842 0.952328 0.139764 -0.326272
N2    N     N_R   0.505211 0.938328 0.932637 0.090542
O55   O     O_R   0.556015 0.935423 0.887037 -0.323819
O56   O     O_R   0.454413 0.860017 0.925714 -0.258875
N3    N     N_R   0.958397 0.443487 0.082898 0.105730
O57   O     O_R   0.971419 0.335463 0.060578 -0.266401
O58   O     O_R   0.923804 0.453074 0.142065 -0.324240
N4    N     N_R   0.000838 0.436318 0.933552 0.096549
O59   O     O_R   0.051830 0.429405 0.888428 -0.330778
O60   O     O_R   0.948480 0.361235 0.926608 -0.256314
N5    N     N_3   0.899868 0.398933 0.563164 -0.590228
H49   H     H_    0.908775 0.354216 0.611467 0.260222
H50   H     H_    0.875192 0.334256 0.531315 0.201080
N6    N     N_3   0.011884 0.354543 0.415260 -0.562662
H51   H     H_    0.998752 0.352554 0.361178 0.276841
H52   H     H_    0.000531 0.267002 0.433401 0.300368
N7    N     N_3   0.397593 0.886002 0.562704 -0.598393
H53   H     H_    0.413524 0.845466 0.610352 0.261741
H54   H     H_    0.378786 0.815736 0.531035 0.202736
N8    N     N_3   0.506271 0.875515 0.412806 -0.578666
H55   H     H_    0.489974 0.861268 0.360218 0.277587
H56   H     H_    0.505762 0.788739 0.435113 0.297712
N9    N     N_R   0.917453 0.963037 0.564641 0.132708
O61   O     O_R   0.966583 0.985184 0.610745 -0.311244
O62   O     O_R   0.901328 0.852014 0.547929 -0.321197
N10   N     N_R   0.159042 0.130967 0.393430 0.123231
O63   O     O_R   0.152953 0.197527 0.336505 -0.303581
O64   O     O_R   0.107615 0.059608 0.411632 -0.226545
N11   N     N_R   0.417451 0.450193 0.560880 0.137929
O65   O     O_R   0.470234 0.468171 0.603147 -0.294661
O66   O     O_R   0.397817 0.340738 0.544384 -0.331666
N12   N     N_R   0.652269 0.626031 0.396281 0.121384
O67   O     O_R   0.642376 0.694782 0.340875 -0.304770
O68   O     O_R   0.603334 0.550057 0.415304 -0.224321
N13   N     N_R   0.904286 0.996548 0.421160 0.138738
O69   O     O_R   0.881282 0.889838 0.402538 -0.294063
O70   O     O_R   0.963584 0.035380 0.396446 -0.284174
N14   N     N_R   0.142979 0.137520 0.539857 0.135050
O71   O     O_R   0.117885 0.035173 0.563640 -0.292990
O72   O     O_R   0.099331 0.221614 0.524529 -0.358587
N15   N     N_R   0.403498 0.490815 0.418318 0.144196
O73   O     O_R   0.379418 0.384068 0.401187 -0.298523
O74   O     O_R   0.460398 0.530639 0.388671 -0.269050
N16   N     N_R   0.638977 0.634531 0.542498 0.136547
O75   O     O_R   0.615281 0.531046 0.566035 -0.280973
O76   O     O_R   0.594399 0.718593 0.529748 -0.363079
N17   N     N_R   0.837795 0.133466 0.049416 0.104301
O77   O     O_R   0.884900 0.093534 0.092767 -0.309653
O78   O     O_R   0.851004 0.234668 0.016733 -0.253268
N18   N     N_R   0.169608 0.769029 0.896343 0.071411
O79   O     O_R   0.148976 0.660082 0.913019 -0.314530
O80   O     O_R   0.155160 0.809036 0.832766 -0.361589
N19   N     N_R   0.335358 0.639861 0.048655 0.106792
O81   O     O_R   0.382967 0.597882 0.090678 -0.309614
O82   O     O_R   0.348730 0.741581 0.016516 -0.255898
N20   N     N_R   0.667865 0.263028 0.883417 0.070652
O83   O     O_R   0.650470 0.150097 0.893009 -0.303099
O84   O     O_R   0.651182 0.314123 0.823293 -0.359342
N21   N     N_3   0.824695 0.112869 0.901645 -0.523220
H57   H     H_    0.874687 0.079450 0.894978 0.272207
H58   H     H_    0.799872 0.124697 0.852483 0.260167
N22   N     N_3   0.146381 0.747542 0.044273 -0.568625
H59   H     H_    0.164231 0.692045 0.084833 0.212058
H60   H     H_    0.112550 0.807132 0.067187 0.257548
N23   N     N_3   0.327139 0.613337 0.901359 -0.520190
H61   H     H_    0.376273 0.575769 0.896127 0.269939
H62   H     H_    0.303634 0.626455 0.851634 0.259723
N24   N     N_3   0.638989 0.223147 0.028966 -0.574100
H63   H     H_    0.656617 0.156664 0.063067 0.197276
H64   H     H_    0.608759 0.277807 0.059903 0.237661

loop_
_geom_bond_atom_site_label_1
_geom_bond_atom_site_label_2
_geom_bond_distance
_ccdc_geom_bond_type
C37   C43   1.390360 A    
C80   C87   1.420326 A    
N7    H54   1.040133 S    
O25   C21   1.302614 A    
C58   C74   1.400219 A    
N19   O81   1.297495 A    
C45   C61   1.422896 A    
O4    C12   1.279097 A    
N23   H62   1.045774 S    
N16   O75   1.300958 A    
C22   C122  1.435492 S    
C82   C90   1.513209 S    
O39   C19   1.271763 A    
C116  H44   1.113517 S    
C100  C116  1.505809 S    
O21   C9    1.311921 A    
C18   C77   1.450632 S    
C1    O9    1.294416 A    
O44   Cr12  2.072257 S    
C90   N8    1.459396 S    
C3    O11   1.276516 A    
C12   C76   1.419570 S    
C4    O12   1.267809 A    
C118  N14   1.476235 S    
C110  H38   1.069464 S    
C27   C36   1.425345 A    
C72   H20   1.095888 S    
C57   C73   1.429210 A    
O2    C10   1.279070 A    
Cr7   O51   2.013888 S    
C72   H24   1.093652 S    
O17   Cr9   2.078629 S    
C102  C122  1.396337 A    
C70   H18   1.094590 S    
C117  H45   1.111230 S    
C71   H23   1.103164 S    
O9    Cr5   2.068558 S    
C5    C26   1.496845 S    
O31   Cr3   1.958371 S    
C89   N7    1.449438 S    
O16   Cr8   1.958735 S    
C58   N18   1.449536 S    
C29   C37   1.414982 A    
C79   C83   1.402443 A    
C17   C78   1.437099 S    
C113  C117  1.541332 S    
O28   Cr4   2.077557 S    
O12   Cr8   2.092718 S    
O22   Cr10  1.950231 S    
O15   C7    1.289974 A    
O6    C2    1.277452 A    
O46   Cr10  1.950589 S    
N23   H61   1.045113 S    
O14   Cr6   1.958735 S    
N24   H63   1.033546 S    
C65   H13   1.098445 S    
C62   N22   1.416394 S    
C56   C72   1.490767 S    
C16   C93   1.471298 S    
C68   H16   1.099980 S    
C57   C61   1.408045 A    
C69   H17   1.097514 S    
C32   C40   1.414294 A    
C104  C124  1.396583 A    
N12   O68   1.301142 A    
C102  C118  1.497708 S    
N22   H59   1.036815 S    
C87   H27   1.080944 S    
C88   H28   1.077200 S    
Cr12  O52   2.014275 S    
C17   O41   1.268623 A    
C47   C51   1.403969 A    
C33   N1    1.453304 S    
C19   O43   1.269381 A    
C59   N19   1.440391 S    
C20   O44   1.256357 A    
C57   N17   1.440981 S    
Cr8   O52   1.982929 S    
C87   C88   1.410869 A    
C10   C74   1.420449 S    
O46   C22   1.291639 A    
C6    C25   1.492240 S    
N15   O74   1.299220 A    
C4    C45   1.444773 S    
C90   H30   1.114469 S    
C64   N24   1.413364 S    
C16   O36   1.258897 A    
C91   H31   1.109691 S    
C30   C38   1.413148 A    
N17   O78   1.295760 A    
O27   C23   1.301651 A    
O31   C15   1.285752 A    
O32   C16   1.295485 A    
N18   O80   1.300750 A    
N6    H51   1.044754 S    
O47   Cr11  1.959287 S    
C26   C30   1.423792 A    
C105  H33   1.075448 S    
C14   C95   1.469219 S    
C86   H26   1.080465 S    
C33   C34   1.410348 A    
C89   H29   1.114216 S    
O5    C1    1.305579 A    
N5    H49   1.045208 S    
C103  C119  1.489582 S    
O24   C12   1.271851 A    
C41   H5    1.081821 S    
N19   O82   1.296523 A    
C94   C110  1.407903 A    
N9    O61   1.300225 A    
C51   C67   1.512657 S    
C28   C32   1.421820 A    
C46   C50   1.380437 A    
C49   C65   1.515155 S    
O32   Cr4   1.945441 S    
C2    C47   1.458724 S    
C67   C71   1.525055 S    
O11   Cr7   2.068558 S    
C53   C69   1.475044 S    
N10   O63   1.300203 A    
C43   C44   1.386615 A    
C59   C75   1.428087 A    
O27   Cr3   2.074339 S    
O3    Cr3   2.081210 S    
C46   C62   1.423484 A    
O8    C4    1.272552 A    
Cr5   O49   2.013888 S    
N1    O53   1.298045 A    
N21   H58   1.045761 S    
C83   C91   1.501991 S    
C81   C89   1.496095 S    
C31   C39   1.415455 A    
C99   C103  1.351127 A    
C24   C124  1.435082 S    
C20   C79   1.455455 S    
O22   C10   1.271332 A    
C108  C112  1.395638 A    
C103  C123  1.381038 A    
C2    O10   1.268997 A    
C40   H4    1.081656 S    
C113  H41   1.108461 S    
C77   C86   1.393856 A    
C120  N16   1.477411 S    
C49   C53   1.349976 A    
C98   C114  1.503665 S    
C51   C55   1.366627 A    
C67   H15   1.101464 S    
C60   C64   1.403375 A    
C115  N11   1.450340 S    
C39   C41   1.390277 A    
C95   C111  1.407178 A    
Cr1   O49   2.004011 S    
Cr3   O51   2.004011 S    
C78   C82   1.394624 A    
O26   Cr2   2.077557 S    
C5    O17   1.282433 A    
N4    O59   1.301887 A    
O29   C13   1.287283 A    
O28   C24   1.269495 A    
O14   C6    1.294574 A    
C8    O20   1.276614 A    
N14   O72   1.295508 A    
N11   O65   1.299772 A    
C113  N9    1.450769 S    
N16   O76   1.297665 A    
O40   Cr8   1.971639 S    
C25   C34   1.424511 A    
C106  C122  1.390004 A    
C15   C94   1.431473 S    
N8    H55   1.045852 S    
O41   Cr9   2.085946 S    
C112  H40   1.068623 S    
C92   N6    1.459902 S    
C66   H14   1.098502 S    
C98   C102  1.380436 A    
N2    O55   1.302412 A    
C104  C120  1.498326 S    
O33   Cr5   2.065889 S    
O5    Cr1   1.954183 S    
O35   Cr7   2.065889 S    
C36   N4    1.436289 S    
O29   Cr1   1.958371 S    
C93   C97   1.398385 A    
N14   O71   1.300921 A    
C1    C48   1.447249 S    
C105  C109  1.423324 A    
C7    C28   1.490735 S    
C3    C46   1.445014 S    
Cr9   O49   1.983725 S    
C28   C35   1.413783 A    
C18   O42   1.258267 A    
Cr11  O51   1.983725 S    
O26   C22   1.271255 A    
O20   Cr12  2.071792 S    
C40   C42   1.395718 A    
C55   C71   1.481288 S    
C58   C62   1.405172 A    
C115  H43   1.107134 S    
C108  C124  1.389445 A    
C21   C121  1.460493 S    
C96   C100  1.387837 A    
N20   O83   1.300003 A    
C34   N2    1.435852 S    
C37   H1    1.080046 S    
N3    O57   1.297660 A    
C23   C123  1.459063 S    
C39   H3    1.079995 S    
O30   C14   1.295309 A    
C92   H32   1.114692 S    
C93   C109  1.408086 A    
N24   H64   1.029438 S    
N15   O73   1.302822 A    
C109  H37   1.079152 S    
C116  N12   1.468113 S    
C26   C33   1.413947 A    
C52   C56   1.375510 A    
C84   C92   1.497391 S    
O42   Cr10  2.072257 S    
C85   H25   1.081534 S    
O18   Cr10  2.071792 S    
C77   C81   1.401273 A    
C118  H46   1.100227 S    
C101  C121  1.381344 A    
O34   Cr6   2.076367 S    
N22   H60   1.031472 S    
O6    Cr2   1.961068 S    
O24   Cr12  1.950231 S    
O30   Cr2   1.945441 S    
O48   Cr12  1.950589 S    
C81   C82   1.370867 A    
C50   C66   1.491091 S    
C66   C70   1.515160 S    
O37   C17   1.273626 A    
C56   C76   1.398821 A    
C15   O35   1.277015 A    
C66   H12   1.105063 S    
Cr10  O50   2.014275 S    
C67   H9    1.097891 S    
C47   C63   1.423749 A    
O40   C20   1.305322 A    
O43   Cr11  2.085946 S    
C48   C64   1.416009 A    
O37   Cr5   1.950143 S    
O21   Cr9   1.967607 S    
N17   O77   1.297773 A    
O39   Cr7   1.950143 S    
O3    C11   1.284815 A    
C13   C96   1.432012 S    
O45   Cr9   1.959287 S    
C13   O33   1.275697 A    
O13   Cr5   1.948247 S    
C114  H42   1.113473 S    
C107  H35   1.073638 S    
O15   Cr7   1.948247 S    
C111  H39   1.079884 S    
C120  H48   1.099361 S    
O23   C11   1.313633 A    
C38   H2    1.081712 S    
C101  C117  1.489132 S    
N6    H52   1.044947 S    
C65   C69   1.532875 S    
C78   C85   1.419066 A    
C52   C68   1.493806 S    
C68   C72   1.516572 S    
C63   N23   1.438954 S    
C70   H22   1.085890 S    
C71   H19   1.095217 S    
C41   C42   1.386437 A    
O1    Cr1   2.081210 S    
C44   H8    1.082092 S    
O19   Cr11  2.078629 S    
N11   O66   1.301104 A    
O45   C21   1.304406 A    
C54   C70   1.491592 S    
O47   C23   1.305326 A    
C35   N3    1.454195 S    
O13   C5    1.292058 A    
C91   C92   1.536741 S    
C80   C84   1.379941 A    
N10   O64   1.300900 A    
C89   C90   1.522186 S    
C6    O18   1.279447 A    
C61   N21   1.439732 S    
N12   O67   1.300338 A    
C53   C73   1.381571 A    
O36   Cr8   2.076367 S    
C19   C80   1.435042 S    
O38   Cr6   1.971639 S    
C115  C119  1.542034 S    
C83   C84   1.344642 A    
C69   H21   1.103820 S    
C29   C30   1.420315 A    
N21   H57   1.045276 S    
C106  H34   1.082765 S    
C31   C32   1.416664 A    
O8    Cr4   1.961068 S    
C100  C104  1.380086 A    
C54   C74   1.400783 A    
O1    C9    1.276154 A    
C85   C86   1.399953 A    
O7    C3    1.291454 A    
C42   H6    1.082109 S    
C59   C63   1.408269 A    
C91   N5    1.446100 S    
O23   Cr11  1.967607 S    
C45   C49   1.399401 A    
N13   O70   1.298839 A    
C116  C120  1.528070 S    
N3    O58   1.301944 A    
C38   C44   1.395157 A    
C7    O19   1.281549 A    
Cr4   O52   2.004704 S    
O2    Cr2   2.063755 S    
O48   C24   1.293214 A    
Cr6   O50   1.982929 S    
C119  N15   1.468383 S    
C108  H36   1.082602 S    
C25   C29   1.415103 A    
C96   C112  1.407481 A    
C95   C99   1.398484 A    
C114  N10   1.468327 S    
N4    O60   1.301525 A    
N5    H50   1.041731 S    
C60   C76   1.401346 A    
O16   C8    1.295309 A    
C119  H47   1.110507 S    
N9    O62   1.301616 A    
O7    Cr3   1.954183 S    
C114  C118  1.528466 S    
C107  C111  1.422830 A    
C50   C54   1.375372 A    
N8    H56   1.045532 S    
C99   C115  1.502692 S    
C97   C113  1.503053 S    
C35   C36   1.408686 A    
N2    O56   1.301769 A    
N13   O69   1.302885 A    
C11   C75   1.460484 S    
Cr2   O50   2.004704 S    
C43   H7    1.081931 S    
C9    C73   1.448612 S    
C117  N13   1.468226 S    
N1    O54   1.302239 A    
N7    H53   1.045412 S    
C8    C27   1.489207 S    
C68   H10   1.105203 S    
O38   C18   1.302416 A    
O25   Cr1   2.074339 S    
C14   O34   1.257798 A    
C107  C123  1.415633 A    
N18   O79   1.299836 A    
C105  C121  1.417302 A    
N20   O84   1.300770 A    
C97   C101  1.351671 A    
C60   N20   1.447212 S    
O10   Cr6   2.092718 S    
O4    Cr4   2.063755 S    
C94   C98   1.387079 A    
C27   C31   1.413293 A    
C106  C110  1.395682 A    
C65   H11   1.102222 S    
C48   C52   1.387368 A    
C55   C75   1.389937 A    
C79   C88   1.402221 A    
