data_mof_unit_48929.cif
_audit_creation_date              2013-03-05T16:09:39-0500
_audit_creation_method            fapswitch 2.2
_symmetry_space_group_name_H-M    P1
_symmetry_Int_Tables_number       1
_space_group_crystal_system       triclinic
_cell_length_a                    14.688816
_cell_length_b                    7.390008
_cell_length_c                    13.500155
_cell_angle_alpha                 90.0
_cell_angle_beta                  100.184855
_cell_angle_gamma                 90.000066
_cell_volume                      1442.35616857

loop_
_atom_site_label
_atom_site_type_symbol
_atom_site_description
_atom_site_fract_x
_atom_site_fract_y
_atom_site_fract_z
_atom_type_partial_charge
O1    O     O_R   0.398210 0.494340 0.401550 -0.599383
O2    O     O_R   0.601790 0.994340 0.598450 -0.599386
O3    O     O_R   0.586310 0.821730 0.403360 -0.591764
O4    O     O_R   0.413690 0.321730 0.596640 -0.591758
C1    C     C_R   0.609418 0.655788 0.375759 1.085727
C2    C     C_R   0.390583 0.155788 0.624242 1.085726
O5    O     O_R   0.397970 0.823900 0.389580 -0.544389
O6    O     O_R   0.602030 0.323900 0.610420 -0.544383
O7    O     O_R   0.412100 0.996500 0.584560 -0.589918
O8    O     O_R   0.587900 0.496500 0.415440 -0.589915
C3    C     C_R   0.365293 0.655447 0.363696 0.935175
C4    C     C_R   0.634707 0.155447 0.636303 0.935180
O9    O     O_3   0.504860 0.661550 0.563990 -0.328702
O10   O     O_3   0.495140 0.161550 0.436010 -0.328698
V1    V     V_3+5 0.499100 0.935510 0.488130 1.182549
V2    V     V_3+5 0.500900 0.435510 0.511870 1.182555
C5    C     C_1   0.716180 0.144877 0.716362 -0.204038
C6    C     C_1   0.283820 0.644876 0.283638 -0.204028
C7    C     C_1   0.784399 0.134046 0.782864 -0.197882
C8    C     C_1   0.215602 0.634046 0.217135 -0.197893
C9    C     C_3   0.257086 0.293908 0.846936 0.413575
C10   C     C_3   0.742920 0.793920 0.153074 0.413598
H1    H     H_    0.292966 0.249272 0.922878 0.098157
H2    H     H_    0.707036 0.749300 0.077130 0.098135
C11   C     C_3   0.329270 0.314454 0.775303 0.051951
C12   C     C_3   0.670736 0.814464 0.224706 0.051983
H3    H     H_    0.308437 0.434247 0.730949 0.120615
H4    H     H_    0.691568 0.934249 0.269069 0.120624
C13   C     C_3   0.139304 0.153179 0.699639 0.664737
C14   C     C_3   0.860698 0.653165 0.300365 0.664748
C15   C     C_3   0.246971 0.959931 0.822593 -0.664472
C16   C     C_3   0.753027 0.459935 0.177405 -0.664503
C17   C     C_3   0.187058 0.135134 0.813015 -0.388416
C18   C     C_3   0.812944 0.635134 0.186989 -0.388423
H5    H     H_    0.203964 0.842408 0.791550 0.273566
H6    H     H_    0.796030 0.342411 0.208450 0.273558
H7    H     H_    0.268290 0.929726 0.904145 0.191089
H8    H     H_    0.731709 0.429734 0.095853 0.191094
C19   C     C_3   0.322846 0.150504 0.700895 -0.537843
C20   C     C_3   0.677155 0.650503 0.299107 -0.537873
C21   C     C_3   0.220931 0.147746 0.635150 0.181084
C22   C     C_3   0.779070 0.647729 0.364852 0.181086
C23   C     C_3   0.335169 0.975868 0.772095 1.018616
C24   C     C_3   0.664827 0.475874 0.227901 1.018632
H9    H     H_    0.220197 0.009852 0.603825 0.183507
H10   H     H_    0.779800 0.509833 0.396171 0.183510
O11   O     O_R   0.912140 0.786650 0.084610 -0.536694
O12   O     O_R   0.087860 0.286650 0.915390 -0.536676
O13   O     O_R   0.102040 0.454810 0.110430 -0.565255
O14   O     O_R   0.897960 0.954810 0.889570 -0.565260
C25   C     C_R   0.134166 0.623488 0.137002 0.959237
C26   C     C_R   0.865835 0.123488 0.862997 0.959216
O15   O     O_R   0.913690 0.457060 0.096650 -0.583785
O16   O     O_R   0.086310 0.957060 0.903350 -0.583772
O17   O     O_R   0.898200 0.284560 0.901540 -0.598293
O18   O     O_R   0.101800 0.784560 0.098460 -0.598285
C27   C     C_R   0.884710 0.625402 0.116626 1.045822
C28   C     C_R   0.115291 0.125402 0.883376 1.045829
O19   O     O_3   0.995160 0.617270 0.936040 -0.279437
O20   O     O_3   0.004840 0.117270 0.063960 -0.279450
V3    V     V_3+5 0.000900 0.343280 0.011870 1.245579
V4    V     V_3+5 0.999100 0.843280 0.988130 1.245581
O21   O     O_3   0.210504 0.461677 0.850809 -0.563634
C29   C     C_3   0.246487 0.557278 0.939702 -0.092586
H11   H     H_    0.315186 0.615443 0.934909 0.153990
H12   H     H_    0.250837 0.472574 0.008475 0.076804
H13   H     H_    0.198542 0.669130 0.948269 0.155806
O22   O     O_3   0.789509 0.961687 0.149212 -0.563635
C30   C     C_3   0.753545 0.057291 0.060313 -0.092509
H14   H     H_    0.684852 0.115488 0.065096 0.154009
H15   H     H_    0.749193 0.972582 0.991542 0.076784
H16   H     H_    0.801504 0.169124 0.051751 0.155822
O23   O     O_3   0.332727 0.819803 0.710225 -0.706287
C31   C     C_3   0.411439 0.712651 0.730923 -0.027572
H17   H     H_    0.422741 0.667784 0.810167 0.189755
H18   H     H_    0.472902 0.778894 0.712413 0.143583
H19   H     H_    0.401344 0.600387 0.677977 0.191039
O24   O     O_3   0.667262 0.319800 0.289763 -0.706284
C32   C     C_3   0.588546 0.212663 0.269063 -0.027534
H20   H     H_    0.577236 0.167814 0.189818 0.189815
H21   H     H_    0.527089 0.278912 0.287581 0.143560
H22   H     H_    0.598636 0.100383 0.321998 0.191043
N1    N     N_R   0.072782 0.999736 0.674016 0.189214
O25   O     O_R   0.089859 0.863255 0.619164 -0.493123
O26   O     O_R   0.995184 0.998136 0.707959 -0.429953
N2    N     N_R   0.927217 0.499717 0.325985 0.189221
O27   O     O_R   0.910140 0.363243 0.380842 -0.493112
O28   O     O_R   0.004814 0.498117 0.292043 -0.429936
N3    N     N_R   0.423763 0.346782 0.832205 0.214562
O29   O     O_R   0.492905 0.372437 0.785341 -0.479978
O30   O     O_R   0.438947 0.370366 0.929310 -0.438719
N4    N     N_R   0.576245 0.846803 0.167798 0.214584
O31   O     O_R   0.507099 0.872419 0.214652 -0.479977
O32   O     O_R   0.561079 0.870539 0.070714 -0.438762
O33   O     O_3   0.090904 0.321718 0.690054 -0.618394
C33   C     C_3   0.019534 0.333177 0.604558 0.048303
H23   H     H_    0.952125 0.297053 0.625537 0.144496
H24   H     H_    0.032081 0.247832 0.540512 0.155265
H25   H     H_    0.013892 0.475649 0.578404 0.162816
O34   O     O_3   0.909102 0.821697 0.309957 -0.618396
C34   C     C_3   0.980464 0.833146 0.395458 0.048291
H26   H     H_    0.047872 0.797006 0.374490 0.144497
H27   H     H_    0.967908 0.747808 0.459500 0.155261
H28   H     H_    0.986111 0.975615 0.421611 0.162824
O35   O     O_3   0.205578 0.250370 0.543676 -0.622816
C35   C     C_3   0.209940 0.441297 0.552323 -0.039630
H29   H     H_    0.192658 0.498354 0.622033 0.188708
H30   H     H_    0.159027 0.499106 0.489802 0.154688
H31   H     H_    0.277971 0.492275 0.541220 0.141609
O36   O     O_3   0.794426 0.750338 0.456330 -0.622825
C36   C     C_3   0.790069 0.941265 0.447692 -0.039681
H32   H     H_    0.807349 0.998327 0.377982 0.188711
H33   H     H_    0.840988 0.999061 0.510216 0.154709
H34   H     H_    0.722039 0.992245 0.458803 0.141627
O37   O     O_3   0.409999 0.982835 0.858607 -0.642953
C37   C     C_3   0.503347 0.001824 0.845279 0.020507
H35   H     H_    0.511698 0.047131 0.769707 0.050398
H36   H     H_    0.541434 0.873312 0.864437 0.118823
H37   H     H_    0.539328 0.098584 0.901606 0.214505
O38   O     O_3   0.590000 0.482853 0.141389 -0.642969
C38   C     C_3   0.496652 0.501857 0.154712 0.020421
H38   H     H_    0.488299 0.547167 0.230276 0.050440
H39   H     H_    0.458561 0.373359 0.135559 0.118841
H40   H     H_    0.460679 0.598614 0.098384 0.214468

loop_
_geom_bond_atom_site_label_1
_geom_bond_atom_site_label_2
_geom_bond_distance
_ccdc_geom_bond_type
C23   O23   1.420736 S    
C3    C6    1.465950 S    
C17   C28   1.540403 S    
C13   C17   1.572519 S    
O23   C31   1.388381 S    
C36   H32   1.101092 S    
O1    C3    1.350936 A    
O2    C4    1.350937 A    
O11   V4    2.022772 S    
C19   C21   1.599778 S    
O5    C3    1.357525 A    
C34   H26   1.109484 S    
C21   O35   1.432672 S    
C16   H6    1.111458 S    
C10   H2    1.116511 S    
C13   N1    1.496917 S    
C8    C25   1.466166 S    
N2    O28   1.301522 A    
C9    C17   1.574146 S    
C35   H29   1.101073 S    
C24   O38   1.456295 S    
C12   N4    1.482115 S    
O37   C37   1.421071 S    
C33   H25   1.108929 S    
C14   O34   1.428594 S    
C37   H35   1.101046 S    
C25   O18   1.351347 A    
C22   H10   1.102612 S    
C30   H15   1.112169 S    
O36   C36   1.416274 S    
N4    O31   1.301825 A    
C38   H40   1.107536 S    
C23   O37   1.456315 S    
O15   V3    2.043647 S    
C7    C26   1.466165 S    
O33   C33   1.417916 S    
C9    O21   1.421522 S    
O22   C30   1.412223 S    
O13   C25   1.358435 A    
C31   H19   1.087976 S    
C33   H24   1.111620 S    
C4    C5    1.465950 S    
C18   C27   1.540412 S    
O14   C26   1.358436 A    
C15   C17   1.558000 S    
C16   H8    1.112690 S    
N3    O30   1.302021 A    
C26   O17   1.351347 A    
O5    V1    1.989492 S    
O6    V2    1.989494 S    
C2    O7    1.353669 A    
C10   C18   1.574154 S    
O13   V3    1.989413 S    
C31   H17   1.104165 S    
C14   C18   1.572520 S    
C29   H13   1.105183 S    
C32   H20   1.104142 S    
O4    C2    1.342620 A    
C32   H21   1.094040 S    
O15   C27   1.357272 A    
N2    O27   1.301629 A    
C19   C23   1.600219 S    
O16   V4    2.043644 S    
C15   H7    1.112695 S    
O20   V3    1.809171 S    
C16   C18   1.558006 S    
O4    V2    2.043553 S    
C30   H16   1.105186 S    
O11   C27   1.353037 A    
N1    O25   1.301627 A    
O6    C4    1.357524 A    
C33   H23   1.109531 S    
N4    O32   1.301898 A    
C16   C24   1.571430 S    
C36   H33   1.109518 S    
O1    V2    1.971781 S    
O2    V1    1.971780 S    
C10   O22   1.421530 S    
C38   H38   1.100956 S    
C15   C23   1.571432 S    
N1    O26   1.301544 A    
C34   H28   1.108899 S    
C9    H1    1.116504 S    
O14   V4    1.989414 S    
O18   V4    1.971778 S    
C1    C20   1.557712 S    
C14   N2    1.496908 S    
C31   H18   1.094060 S    
O3    V1    2.043556 S    
O38   C38   1.421064 S    
C13   O33   1.428606 S    
O16   C28   1.357270 A    
C2    C19   1.557721 S    
C9    C11   1.563680 S    
O19   V4    1.809170 S    
C13   C21   1.601983 S    
O24   C32   1.388374 S    
C11   N3    1.482110 S    
O3    C1    1.342621 A    
C32   H22   1.087972 S    
O12   C28   1.353036 A    
C11   H3    1.082169 S    
O35   C35   1.416295 S    
C12   H4    1.082185 S    
C37   H37   1.107583 S    
C29   H11   1.109204 S    
C24   O24   1.420733 S    
O7    V1    2.029612 S    
C1    O8    1.353663 A    
O8    V2    2.029611 S    
C11   C19   1.566017 S    
C12   C20   1.566019 S    
O12   V3    2.022771 S    
C35   H30   1.109486 S    
O17   V3    1.971776 S    
C15   H5    1.111463 S    
C20   C22   1.599789 S    
O34   C34   1.417888 S    
C5    C7    1.224089 T    
C37   H36   1.109339 S    
C36   H34   1.102721 S    
C6    C8    1.224089 T    
C22   O36   1.432660 S    
C30   H14   1.109195 S    
C38   H39   1.109279 S    
O21   C29   1.412214 S    
C20   C24   1.600225 S    
C34   H27   1.111583 S    
C10   C12   1.563674 S    
O9    V2    1.809519 S    
C21   H9    1.102625 S    
O10   V1    1.809520 S    
C14   C22   1.601979 S    
N3    O29   1.301891 A    
C29   H12   1.112174 S    
C35   H31   1.102709 S    
