data_mof_unit_33138.cif
_audit_creation_date              2012-10-26T19:04:42-0400
_audit_creation_method            fapswitch 2.2
_symmetry_space_group_name_H-M    P1
_symmetry_Int_Tables_number       1
_space_group_crystal_system       triclinic
_cell_length_a                    9.574171
_cell_length_b                    10.833273
_cell_length_c                    13.439165
_cell_angle_alpha                 92.293226
_cell_angle_beta                  72.494753
_cell_angle_gamma                 90.433474
_cell_volume                      1328.27311632

loop_
_atom_site_label
_atom_site_type_symbol
_atom_type_description
_atom_site_fract_x
_atom_site_fract_y
_atom_site_fract_z
_atom_type_partial_charge
C1    C     C_R   0.504139 0.736741 0.490148 0.572611
C2    C     C_R   0.373892 0.484332 0.814367 -0.002647
C3    C     C_R   0.284236 0.881213 0.416150 0.032301
C4    C     C_R   0.421615 0.492951 0.699773 0.537729
C5    C     C_R   0.145203 0.935753 0.438130 -0.126028
C6    C     C_R   0.112912 0.045359 0.497821 -0.153577
C7    C     C_R   0.223073 0.108085 0.526665 -0.103606
C8    C     C_R   0.366796 0.058847 0.499576 0.014333
C9    C     C_R   0.387844 0.934928 0.462322 -0.021825
C10   C     C_R   0.508565 0.870378 0.476912 -0.020546
C11   C     C_R   0.625131 0.936548 0.495292 -0.160744
C12   C     C_R   0.432392 0.472939 0.979199 0.033210
C13   C     C_R   0.619257 0.063944 0.505271 -0.163889
C14   C     C_R   0.490738 0.126938 0.508282 -0.003941
C15   C     C_R   0.912758 0.337425 0.360582 -0.101180
C16   C     C_R   0.496243 0.262150 0.505621 0.523854
C17   C     C_R   0.012709 0.257364 0.292684 -0.182927
C18   C     C_R   0.156303 0.256275 0.293202 -0.167944
C19   C     C_R   0.200785 0.335343 0.361525 -0.084494
C20   C     C_R   0.102791 0.419254 0.431873 0.170042
C21   C     C_R   0.953182 0.419779 0.431621 0.158933
C22   C     C_R   0.899346 0.576636 0.564819 -0.000657
C23   C     C_R   0.471321 0.448352 0.869773 0.027282
C24   C     C_R   0.047434 0.576676 0.564734 0.009963
C25   C     C_R   0.578435 0.496808 0.299983 0.566746
C26   C     C_R   0.789189 0.397039 0.024607 -0.138446
C27   C     C_R   0.622051 0.478691 0.186228 0.013618
C28   C     C_R   0.231072 0.522658 0.870070 -0.136868
C29   C     C_R   0.186978 0.531938 0.978272 -0.140781
C30   C     C_R   0.286397 0.509887 0.032588 -0.110454
C31   C     C_2   0.323738 0.780407 0.333711 0.603839
C32   C     C_R   0.540923 0.459012 0.030758 0.021850
C33   C     C_R   0.680430 0.409056 0.975017 0.051128
C34   C     C_R   0.708969 0.369653 0.870954 -0.143390
C35   C     C_R   0.605371 0.387187 0.819476 -0.125118
C36   C     C_R   0.516049 0.495809 0.135730 -0.106997
C37   C     C_R   0.760067 0.431515 0.129886 -0.150427
Cu1   Cu    Cu3+1 0.359340 0.500010 0.500010 0.953836
Cu2   Cu    Cu3+1 0.640660 0.499990 0.499990 0.923742
H1    H     H_    0.843499 0.417523 0.167711 0.124733
H2    H     H_    0.313054 0.325471 0.355697 0.180567
H3    H     H_    0.812342 0.325693 0.828803 0.105093
H4    H     H_    0.081130 0.639548 0.617673 0.113467
H5    H     H_    0.895906 0.358982 0.982349 0.111292
H6    H     H_    0.414241 0.538276 0.180528 0.183950
H7    H     H_    0.153549 0.547907 0.829877 0.129492
H8    H     H_    0.244210 0.519806 0.116408 0.132968
H9    H     H_    0.075993 0.560263 0.020359 0.130854
H10   H     H_    0.631140 0.348982 0.740588 0.149145
H11   H     H_    0.721018 0.889955 0.502742 0.138484
H12   H     H_    0.062397 0.894913 0.407284 0.139923
H13   H     H_    0.531845 0.840032 0.270241 0.290971
H14   H     H_    0.004165 0.085188 0.517242 0.114663
H15   H     H_    0.191901 0.192461 0.573415 0.148686
H16   H     H_    0.714567 0.112813 0.513513 0.133346
H17   H     H_    0.822114 0.639450 0.617893 0.120032
H18   H     H_    0.805628 0.330582 0.353555 0.181815
H19   H     H_    0.978108 0.195553 0.239349 0.123758
H20   H     H_    0.234075 0.193289 0.240527 0.130541
N1    N     N_R   0.852480 0.498790 0.499000 -0.245814
N2    N     N_R   0.148360 0.498710 0.498970 -0.232323
O1    O     O_R   0.381190 0.680360 0.500010 -0.482651
O2    O     O_R   0.465173 0.769159 0.263906 -0.691321
O3    O     O_R   0.618760 0.680340 0.500000 -0.499204
O4    O     O_R   0.323240 0.499990 0.650990 -0.511103
O5    O     O_R   0.560820 0.499960 0.650980 -0.508158
O6    O     O_R   0.381240 0.319660 0.500000 -0.541936
O7    O     O_R   0.618810 0.319640 0.499990 -0.534527
O8    O     O_R   0.439180 0.500040 0.349020 -0.491020
O9    O     O_R   0.676760 0.500010 0.349010 -0.518563
O10   O     O_2   0.230167 0.707481 0.324336 -0.495691

loop_
_geom_bond_atom_site_label_1
_geom_bond_atom_site_label_2
_ccdc_geom_bond_type
C35   H10   S    
C2    C4    S    
C26   C37   A    
C6    C7    A    
C3    C9    A    
C27   C36   A    
C25   C27   S    
C29   H9    S    
C11   C13   A    
Cu2   O7    S    
C18   H20   S    
C26   C33   A    
C19   C20   A    
C34   H3    S    
Cu1   O4    S    
C15   C21   A    
C17   H19   S    
Cu1   N2    S    
C13   H16   S    
C32   C33   A    
C31   O10   D    
C33   C34   A    
Cu1   O8    S    
C26   H5    S    
C36   H6    S    
C11   H11   S    
C13   C14   A    
C12   C32   A    
C3    C31   S    
Cu2   O3    S    
C15   H18   S    
C12   C23   A    
C28   H7    S    
C21   N1    A    
C29   C30   A    
C27   C37   A    
C24   N2    A    
C16   O7    A    
Cu2   N1    S    
C32   C36   A    
C22   C24   A    
C28   C29   A    
Cu2   O9    S    
C17   C18   A    
C37   H1    S    
C23   C35   A    
C22   N1    A    
C5    C6    A    
Cu2   O5    S    
C14   C16   S    
C25   O8    A    
C10   C11   A    
C6    H14   S    
C16   O6    A    
C20   N2    A    
Cu1   O6    S    
C1    O3    A    
C31   O2    S    
C30   H8    S    
C7    C8    A    
Cu1   Cu2   S    
C20   C21   A    
C4    O5    A    
C1    O1    A    
C34   C35   A    
C9    C10   A    
C2    C23   A    
C15   C17   A    
C24   H4    S    
C2    C28   A    
C4    O4    A    
C18   C19   A    
C22   H17   S    
C25   O9    A    
C8    C14   A    
C7    H15   S    
C12   C30   A    
C5    H12   S    
C1    C10   S    
C19   H2    S    
Cu1   O1    S    
C8    C9    A    
C3    C5    A    
H13   O2    S    
