data_mof_unit_26583.cif
_audit_creation_date              2013-03-05T16:39:10-0500
_audit_creation_method            fapswitch 2.2
_symmetry_space_group_name_H-M    P1
_symmetry_Int_Tables_number       1
_space_group_crystal_system       triclinic
_cell_length_a                    19.304097
_cell_length_b                    18.438382
_cell_length_c                    27.740736
_cell_angle_alpha                 90.000381
_cell_angle_beta                  89.971968
_cell_angle_gamma                 89.924468
_cell_volume                      9873.92557575

loop_
_atom_site_label
_atom_site_type_symbol
_atom_site_description
_atom_site_fract_x
_atom_site_fract_y
_atom_site_fract_z
_atom_type_partial_charge
O1    O     O_R   0.398180 0.560840 0.499990 -0.632279
O2    O     O_R   0.601820 0.439160 0.500010 -0.631868
O3    O     O_R   0.601820 0.560840 0.500010 -0.632518
O4    O     O_R   0.398180 0.439160 0.499990 -0.632239
C1    C     C_R   0.365614 0.500043 0.500070 0.932552
C2    C     C_R   0.634378 0.499968 0.499977 0.932348
O5    O     O_R   0.500010 0.560810 0.428750 -0.615216
O6    O     O_R   0.499990 0.439190 0.571250 -0.615414
O7    O     O_R   0.499990 0.560810 0.571250 -0.614608
O8    O     O_R   0.500010 0.439190 0.428750 -0.614851
C3    C     C_R   0.500169 0.500036 0.405929 0.885136
C4    C     C_R   0.499849 0.500038 0.594065 0.884759
Zn1   Zn    Zn3+2 0.500000 0.581210 0.500000 0.946219
Zn2   Zn    Zn3+2 0.500000 0.418790 0.500000 0.946799
C5    C     C_R   0.444440 0.498772 0.178397 0.520513
C6    C     C_R   0.555838 0.497351 0.821585 0.519905
O9    O     O_2   0.385134 0.495021 0.204111 -0.573269
O10   O     O_2   0.615051 0.492135 0.795867 -0.574060
N1    N     N_R   0.506568 0.501039 0.201567 -0.350233
N2    N     N_R   0.493769 0.501144 0.798419 -0.350192
C7    C     C_R   0.567930 0.503765 0.177247 0.479278
C8    C     C_R   0.432480 0.505400 0.822741 0.478975
C9    C     C_R   0.518613 0.437374 0.277895 -0.112242
C10   C     C_R   0.480570 0.437747 0.722095 -0.114072
C11   C     C_R   0.515878 0.436411 0.327893 -0.218307
C12   C     C_R   0.483213 0.436735 0.672095 -0.221644
C13   C     C_R   0.490071 0.565399 0.328258 -0.261767
C14   C     C_R   0.511222 0.565144 0.671721 -0.258977
C15   C     C_R   0.492971 0.566845 0.278052 0.041850
C16   C     C_R   0.508470 0.566634 0.721930 0.041890
C17   C     C_R   0.507181 0.502117 0.252946 0.289197
C18   C     C_R   0.493163 0.502227 0.747040 0.290222
C19   C     C_R   0.504428 0.505624 0.101823 -0.063600
C20   C     C_R   0.496009 0.505706 0.898161 -0.063634
C21   C     C_R   0.442153 0.500016 0.128175 -0.010763
C22   C     C_R   0.558155 0.498552 0.871807 -0.010554
C23   C     C_R   0.378902 0.495383 0.104064 -0.147702
C24   C     C_R   0.621299 0.492364 0.895918 -0.147979
C25   C     C_R   0.568481 0.509821 0.126544 -0.063494
C26   C     C_R   0.432055 0.511484 0.873442 -0.063622
C27   C     C_R   0.501713 0.500439 0.353330 -0.054220
C28   C     C_R   0.498408 0.500457 0.646658 -0.053486
H1    H     H_    0.478944 0.615123 0.347648 0.163260
H2    H     H_    0.523200 0.614610 0.652317 0.163554
H3    H     H_    0.330653 0.489545 0.123653 0.186835
H4    H     H_    0.669418 0.485330 0.876327 0.186671
C29   C     C_R   0.435625 0.510810 0.975686 0.030537
C30   C     C_R   0.564903 0.509212 0.024298 0.030587
C31   C     C_R   0.562915 0.503866 0.973387 0.057277
C32   C     C_R   0.437505 0.505424 0.026596 0.057243
C33   C     C_R   0.498147 0.506862 0.949214 0.068869
C34   C     C_R   0.502318 0.506821 0.050770 0.068923
C35   C     C_R   0.373128 0.521885 0.950462 -0.268864
C36   C     C_R   0.627607 0.518736 0.049523 -0.268843
C37   C     C_R   0.370692 0.523234 0.900268 0.012854
C38   C     C_R   0.630067 0.520037 0.099718 0.012877
O11   O     O_2   0.372735 0.503169 0.797599 -0.561405
O12   O     O_2   0.627611 0.500066 0.202392 -0.560933
C39   C     C_R   0.376512 0.497569 0.054232 -0.223600
C40   C     C_R   0.623736 0.494502 0.945750 -0.223601
H5    H     H_    0.473027 0.386300 0.653389 0.164877
H6    H     H_    0.525145 0.385753 0.346592 0.166011
H7    H     H_    0.469327 0.388292 0.741638 0.141868
H8    H     H_    0.529011 0.387685 0.258357 0.142802
H9    H     H_    0.325315 0.533499 0.969101 0.142748
H10   H     H_    0.675644 0.529151 0.030884 0.142710
H11   H     H_    0.326004 0.490709 0.038338 0.141583
H12   H     H_    0.674095 0.486402 0.961643 0.141532
C41   C     C_R   0.745752 0.435780 0.490433 -0.331916
C42   C     C_R   0.254406 0.564651 0.509239 -0.332595
C43   C     C_R   0.254508 0.435535 0.491943 -0.315484
C44   C     C_R   0.745280 0.564361 0.509452 -0.316306
H13   H     H_    0.717690 0.386791 0.481597 0.156345
H14   H     H_    0.282605 0.613852 0.517300 0.157617
H15   H     H_    0.282438 0.386230 0.483433 0.157187
H16   H     H_    0.717209 0.613350 0.518535 0.155986
C45   C     C_R   0.818193 0.434853 0.491789 0.452061
C46   C     C_R   0.181968 0.565698 0.508194 0.450898
C47   C     C_R   0.182347 0.434474 0.493567 0.438954
C48   C     C_R   0.817433 0.565587 0.508202 0.437632
C49   C     C_R   0.853293 0.500401 0.500049 -0.106496
C50   C     C_R   0.146655 0.499984 0.500981 -0.106202
C51   C     C_R   0.709564 0.500006 0.499927 -0.138923
C52   C     C_R   0.290415 0.500099 0.500410 -0.140201
C53   C     C_R   0.964365 0.540033 0.465420 -0.147113
C54   C     C_R   0.035528 0.460577 0.535785 -0.145630
C55   C     C_R   0.036100 0.539746 0.465591 -0.133945
C56   C     C_R   0.963783 0.460809 0.535584 -0.135156
H17   H     H_    0.936924 0.570287 0.437931 0.126207
H18   H     H_    0.062963 0.430279 0.563258 0.128191
H19   H     H_    0.064045 0.570036 0.438356 0.133048
H20   H     H_    0.935811 0.430410 0.562751 0.132984
C57   C     C_R   0.071550 0.499978 0.500753 0.222602
C58   C     C_R   0.928363 0.500604 0.500432 0.223973
C59   C     C_R   0.561218 0.725941 0.500345 -0.144194
C60   C     C_R   0.438827 0.274028 0.501761 -0.143291
C61   C     C_R   0.438848 0.726226 0.499616 -0.144783
C62   C     C_R   0.561122 0.273769 0.498322 -0.144173
H21   H     H_    0.608970 0.695594 0.498949 0.147716
H22   H     H_    0.391172 0.304301 0.504821 0.148503
H23   H     H_    0.391023 0.696097 0.500765 0.146167
H24   H     H_    0.608860 0.303837 0.495546 0.147175
C63   C     C_R   0.563011 0.802508 0.501932 0.342984
C64   C     C_R   0.436978 0.197477 0.500184 0.341579
C65   C     C_R   0.437233 0.802816 0.498150 0.345460
C66   C     C_R   0.562812 0.197203 0.499832 0.344544
C67   C     C_R   0.500157 0.841645 0.500074 -0.098034
C68   C     C_R   0.499870 0.158391 0.499973 -0.100679
N3    N     N_R   0.500000 0.689440 0.500000 -0.121006
N4    N     N_R   0.500000 0.310560 0.500000 -0.121485
C69   C     C_R   0.466086 0.962003 0.463470 -0.145793
C70   C     C_R   0.534078 0.038171 0.536542 -0.149178
C71   C     C_R   0.534160 0.962039 0.536574 -0.147382
C72   C     C_R   0.465847 0.038130 0.463514 -0.150405
H25   H     H_    0.440272 0.933547 0.434477 0.136899
H26   H     H_    0.560061 0.066688 0.565437 0.133424
H27   H     H_    0.560084 0.933631 0.565564 0.135958
H28   H     H_    0.439832 0.066584 0.434587 0.131882
C73   C     C_R   0.499873 0.077167 0.500034 0.235510
C74   C     C_R   0.500182 0.922946 0.500026 0.231295
O13   O     O_3   0.856614 0.372957 0.481089 -0.596538
C75   C     C_3   0.830366 0.310980 0.504899 0.093452
H29   H     H_    0.789648 0.285295 0.482339 0.157189
H30   H     H_    0.808884 0.323858 0.541280 0.122403
C76   C     C_3   0.888775 0.256559 0.511716 -0.812094
H31   H     H_    0.929460 0.280273 0.535166 0.243282
H32   H     H_    0.868526 0.206628 0.529049 0.204748
H33   H     H_    0.911819 0.242101 0.476295 0.269314
O14   O     O_3   0.143815 0.628033 0.518220 -0.597031
C77   C     C_3   0.169840 0.689082 0.493249 0.093877
H34   H     H_    0.190517 0.674870 0.456862 0.120430
H35   H     H_    0.211130 0.715316 0.515012 0.157672
C78   C     C_3   0.111559 0.743597 0.486212 -0.816425
H36   H     H_    0.089426 0.759468 0.521647 0.268643
H37   H     H_    0.131701 0.792767 0.467872 0.205263
H38   H     H_    0.070178 0.719326 0.463608 0.243104
O15   O     O_3   0.145565 0.371830 0.483036 -0.596587
C79   C     C_3   0.161869 0.316791 0.516662 0.100095
H39   H     H_    0.161359 0.337635 0.554415 0.127380
H40   H     H_    0.213411 0.292825 0.508667 0.141771
C80   C     C_3   0.108232 0.256784 0.512899 -0.806684
H41   H     H_    0.108155 0.233784 0.475887 0.261766
H42   H     H_    0.120589 0.212930 0.538960 0.203636
H43   H     H_    0.056011 0.278781 0.521181 0.255746
O16   O     O_3   0.853957 0.627929 0.519852 -0.597768
C81   C     C_3   0.838722 0.683615 0.486463 0.101326
H44   H     H_    0.786514 0.706769 0.493383 0.141224
H45   H     H_    0.841427 0.663680 0.448543 0.126958
C82   C     C_3   0.891439 0.744165 0.492222 -0.807421
H46   H     H_    0.944363 0.722946 0.485299 0.257942
H47   H     H_    0.880147 0.788346 0.466171 0.203684
H48   H     H_    0.889047 0.766491 0.529380 0.260344
O17   O     O_3   0.625331 0.839807 0.500144 -0.594808
C83   C     C_3   0.667281 0.820725 0.539950 0.092723
H49   H     H_    0.689851 0.765782 0.535068 0.128409
H50   H     H_    0.637533 0.822433 0.574417 0.125602
C84   C     C_3   0.726805 0.874337 0.543782 -0.806304
H51   H     H_    0.706234 0.929974 0.549338 0.249394
H52   H     H_    0.760442 0.859725 0.574769 0.204495
H53   H     H_    0.758303 0.873144 0.510262 0.260495
O18   O     O_3   0.374871 0.160221 0.504027 -0.595011
C85   C     C_3   0.331305 0.177682 0.464753 0.096476
H54   H     H_    0.359239 0.172766 0.429705 0.127494
H55   H     H_    0.310319 0.233531 0.468383 0.127337
C86   C     C_3   0.270400 0.125484 0.464077 -0.803354
H56   H     H_    0.240539 0.130125 0.498182 0.258727
H57   H     H_    0.235672 0.138608 0.433379 0.205569
H58   H     H_    0.289397 0.068938 0.460027 0.253298
O19   O     O_3   0.375021 0.840518 0.499682 -0.591794
C87   C     C_3   0.332842 0.820952 0.460122 0.093989
H59   H     H_    0.308199 0.767391 0.466453 0.118826
H60   H     H_    0.362872 0.819193 0.425760 0.124462
C88   C     C_3   0.275538 0.876959 0.454462 -0.822394
H61   H     H_    0.298335 0.931169 0.447330 0.251161
H62   H     H_    0.241539 0.861837 0.423796 0.198408
H63   H     H_    0.243865 0.879529 0.487862 0.263576
O20   O     O_3   0.624863 0.159559 0.496493 -0.591772
C89   C     C_3   0.668479 0.177890 0.535544 0.096794
H64   H     H_    0.639883 0.177661 0.570507 0.126047
H65   H     H_    0.692188 0.232079 0.529849 0.118710
C90   C     C_3   0.726600 0.122404 0.538901 -0.818626
H66   H     H_    0.757181 0.122155 0.504974 0.262712
H67   H     H_    0.761401 0.136231 0.569400 0.198571
H68   H     H_    0.704651 0.067536 0.545007 0.253938
C91   C     C_R   0.479971 0.635810 0.252356 0.112350
C92   C     C_R   0.415748 0.670982 0.257023 -0.118582
C93   C     C_R   0.402978 0.735631 0.232198 -0.141735
C94   C     C_R   0.454270 0.765702 0.202791 -0.099722
C95   C     C_R   0.518558 0.731387 0.198379 -0.142501
C96   C     C_R   0.531556 0.666838 0.223217 -0.167814
H69   H     H_    0.375442 0.647942 0.279450 0.137045
H70   H     H_    0.353270 0.762346 0.235684 0.128560
H71   H     H_    0.444280 0.815705 0.183564 0.125212
H72   H     H_    0.558419 0.754923 0.175844 0.128015
H73   H     H_    0.581931 0.641492 0.220089 0.156112
C97   C     C_R   0.522816 0.635269 0.747624 0.110650
C98   C     C_R   0.587735 0.668836 0.742986 -0.117381
C99   C     C_R   0.601782 0.733151 0.767819 -0.140357
C100  C     C_R   0.551081 0.764489 0.797203 -0.100881
C101  C     C_R   0.486113 0.731780 0.801584 -0.142187
C102  C     C_R   0.471842 0.667568 0.776739 -0.165961
H74   H     H_    0.627587 0.644800 0.720578 0.139886
H75   H     H_    0.652021 0.758623 0.764359 0.130496
H76   H     H_    0.562062 0.814230 0.816438 0.125412
H77   H     H_    0.446717 0.756301 0.824103 0.128248
H78   H     H_    0.420969 0.643474 0.779847 0.156821
C103  C     C_R   0.303520 0.542308 0.877869 0.193603
C104  C     C_R   0.247323 0.494246 0.880639 -0.135393
C105  C     C_R   0.183693 0.512904 0.859964 -0.133765
C106  C     C_R   0.175723 0.579719 0.836773 -0.101567
C107  C     C_R   0.231295 0.628129 0.834369 -0.128343
C108  C     C_R   0.294978 0.609725 0.855028 -0.100349
H79   H     H_    0.252972 0.442383 0.898557 0.125968
H80   H     H_    0.140547 0.475596 0.861947 0.131269
H81   H     H_    0.126438 0.594060 0.820789 0.128769
H82   H     H_    0.224984 0.679963 0.816585 0.129230
H83   H     H_    0.337617 0.647758 0.853226 0.106818
C109  C     C_R   0.697605 0.537438 0.122118 0.193339
C110  C     C_R   0.752818 0.487990 0.119348 -0.134928
C111  C     C_R   0.816805 0.505057 0.140029 -0.130910
C112  C     C_R   0.826117 0.571653 0.163228 -0.102938
C113  C     C_R   0.771535 0.621433 0.165631 -0.131042
C114  C     C_R   0.707500 0.604621 0.144965 -0.099471
H84   H     H_    0.746127 0.436283 0.101426 0.126253
H85   H     H_    0.859188 0.466686 0.138047 0.132000
H86   H     H_    0.875675 0.584761 0.179218 0.126737
H87   H     H_    0.778886 0.673092 0.183422 0.126974
H88   H     H_    0.665637 0.643702 0.146771 0.106594

loop_
_geom_bond_atom_site_label_1
_geom_bond_atom_site_label_2
_geom_bond_distance
_ccdc_geom_bond_type
C43   H15   1.082343 S    
C104  H79   1.083133 S    
C62   N4    1.361014 A    
C78   H36   1.110722 S    
C55   H19   1.083580 S    
C13   C15   1.394109 A    
O19   C87   1.413915 S    
C81   C82   1.520118 S    
C41   C45   1.399024 A    
C79   H39   1.115635 S    
C64   C68   1.411059 A    
C44   H16   1.082399 S    
O3    C2    1.285650 A    
N1    C17   1.425499 S    
C8    O11   1.348764 S    
C38   C109  1.480128 S    
C89   H64   1.115765 S    
C109  C110  1.403766 A    
C91   C96   1.404649 A    
C90   H66   1.110750 S    
C19   C34   1.417025 A    
C30   C36   1.409636 A    
C65   C67   1.411823 A    
C20   C33   1.417024 A    
C86   H56   1.110857 S    
C31   C40   1.412313 A    
C65   O19   1.387470 S    
O1    C1    1.285954 A    
C32   C39   1.412303 A    
C21   C23   1.395209 A    
C12   H5    1.083197 S    
C10   C12   1.388097 A    
C85   H54   1.115180 S    
C30   C34   1.414255 A    
C80   H42   1.110424 S    
C48   C49   1.404496 A    
C59   H21   1.078396 S    
C88   H63   1.110819 S    
C42   C46   1.398768 A    
C108  H83   1.083155 S    
C106  H81   1.082325 S    
C85   C86   1.520531 S    
C101  H77   1.082418 S    
C60   H22   1.078731 S    
C54   C56   1.384984 A    
C47   C50   1.404881 A    
Zn2   N4    1.995584 S    
C14   C28   1.402886 A    
C92   H69   1.083215 S    
O7    Zn1   2.012002 S    
C111  C112  1.398190 A    
Zn1   N3    1.995584 S    
C39   H11   1.077846 S    
C110  H84   1.083142 S    
C95   H72   1.082414 S    
C63   O17   1.387389 S    
C84   H51   1.110264 S    
C16   C97   1.478963 S    
C56   H20   1.083582 S    
C15   C91   1.478991 S    
C101  C102  1.397761 A    
C31   C33   1.420081 A    
C42   H14   1.081999 S    
C78   H38   1.110394 S    
C32   C34   1.420079 A    
C102  H78   1.081798 S    
C97   C102  1.404625 A    
C41   H13   1.082063 S    
C99   C100  1.397832 A    
C42   C52   1.399097 A    
C66   O20   1.386684 S    
C83   H50   1.115516 S    
C72   C73   1.406338 A    
O3    Zn1   2.000618 S    
C6    N2    1.361655 A    
C29   C35   1.409632 A    
C61   C65   1.413088 A    
C66   C68   1.410920 A    
C90   H67   1.110478 S    
C107  H82   1.082314 S    
C100  C101  1.397587 A    
C84   H52   1.110515 S    
C50   C57   1.449843 S    
C88   H61   1.110391 S    
C68   C73   1.497636 S    
C86   H57   1.110537 S    
O2    C2    1.286074 A    
C5    C21   1.394101 A    
C70   C71   1.403757 A    
C59   C63   1.412917 A    
O16   C81   1.413556 S    
C29   C32   1.416265 A    
C81   H45   1.115459 S    
C35   C37   1.393448 A    
C69   H25   1.082391 S    
C36   C38   1.393472 A    
C81   H44   1.110633 S    
C53   C55   1.384795 A    
C4    C28   1.459232 S    
C103  C104  1.403764 A    
C89   C90   1.520270 S    
C9    H8    1.082984 S    
C109  C114  1.404792 A    
C83   C84   1.520499 S    
C54   H18   1.083051 S    
C80   H43   1.110049 S    
C11   C27   1.401924 A    
C110  C111  1.398436 A    
C1    C52   1.451687 S    
C53   H17   1.083006 S    
C114  H88   1.083158 S    
C104  C105  1.398437 A    
C29   C33   1.414251 A    
C13   C27   1.402960 A    
C103  C108  1.404780 A    
C62   H24   1.078798 S    
C60   N4    1.361114 A    
C112  H86   1.082323 S    
C14   H2    1.084209 S    
C43   C47   1.393880 A    
C44   C48   1.393492 A    
C69   C74   1.406991 A    
C94   C95   1.397582 A    
C9    C17   1.397232 A    
C5    N1    1.361672 A    
C10   C18   1.397279 A    
C112  C113  1.398030 A    
C41   C51   1.399056 A    
C54   C57   1.398732 A    
C76   H33   1.110711 S    
C71   C74   1.406993 A    
C61   N3    1.360748 A    
C53   C58   1.398410 A    
C46   C50   1.405411 A    
O5    C3    1.287026 A    
C107  C108  1.398038 A    
C7    C25   1.411003 A    
C45   C49   1.405220 A    
O6    C4    1.288154 A    
C26   C37   1.415064 A    
C8    C26   1.410970 A    
C105  C106  1.398180 A    
C93   H70   1.082318 S    
C98   H74   1.083198 S    
C64   O18   1.386617 S    
C25   C38   1.415059 A    
C19   C25   1.416405 A    
C83   H49   1.110516 S    
O13   C75   1.414259 S    
C23   C39   1.383752 A    
C88   H62   1.110515 S    
C79   H40   1.110432 S    
C96   H73   1.081810 S    
C92   C93   1.398336 A    
C71   H27   1.082234 S    
C48   O16   1.387523 S    
C47   O15   1.387809 S    
N2    C8    1.363882 A    
C94   H71   1.082280 S    
O20   C89   1.413624 S    
C10   H7    1.083019 S    
C60   C64   1.412653 A    
C59   N3    1.360769 A    
C100  H76   1.082332 S    
C24   C40   1.383776 A    
C82   H48   1.110853 S    
C77   C78   1.520350 S    
O1    Zn1   2.001595 S    
C23   H3    1.083605 S    
C67   C74   1.499062 S    
C70   H26   1.082429 S    
C35   H9    1.078943 S    
C12   C28   1.401830 A    
C76   H32   1.110107 S    
C43   C52   1.398260 A    
N2    C18   1.425465 S    
C90   H68   1.110301 S    
C95   C96   1.397718 A    
C5    O9    1.350450 S    
C72   H28   1.082181 S    
O6    Zn2   2.011997 S    
C2    C51   1.451403 S    
N1    C7    1.363893 A    
C46   O14   1.392266 S    
C7    O12   1.348751 S    
C97   C98   1.404298 A    
C79   C80   1.519978 S    
C70   C73   1.406451 A    
C89   H65   1.110814 S    
C75   H29   1.111428 S    
C86   H58   1.110452 S    
C36   H10   1.078937 S    
C84   H53   1.110964 S    
C37   C103  1.480131 S    
O15   C79   1.413704 S    
C105  H80   1.082322 S    
C62   C66   1.412723 A    
C77   H35   1.111424 S    
C75   C76   1.520261 S    
C82   H47   1.110452 S    
C77   H34   1.116336 S    
O14   C77   1.414384 S    
C93   C94   1.397840 A    
C15   C17   1.408399 A    
C85   H55   1.110643 S    
O18   C85   1.413536 S    
C82   H46   1.110176 S    
C6    C22   1.394122 A    
C16   C18   1.408383 A    
C49   C58   1.449210 S    
C91   C92   1.404315 A    
C76   H31   1.110225 S    
C87   H60   1.115857 S    
C113  H87   1.082317 S    
C30   C31   1.416294 A    
O4    C1    1.285909 A    
C55   C57   1.398838 A    
C22   C24   1.395222 A    
C19   C21   1.410584 A    
C14   C16   1.394104 A    
C111  H85   1.082315 S    
C3    C27   1.459458 S    
C69   C72   1.403653 A    
C20   C22   1.410591 A    
C11   H6    1.083130 S    
C9    C11   1.388072 A    
O4    Zn2   2.000622 S    
C98   C99   1.398354 A    
O2    Zn2   2.001591 S    
O7    C4    1.286933 A    
C24   H4    1.083605 S    
C44   C51   1.398402 A    
C45   O13   1.392198 S    
O8    C3    1.288202 A    
C13   H1    1.084180 S    
O5    Zn1   2.011997 S    
C40   H12   1.077847 S    
C6    O10   1.350458 S    
C106  C107  1.398025 A    
C87   H59   1.110691 S    
C99   H75   1.082330 S    
C78   H37   1.110284 S    
C56   C58   1.398636 A    
C20   C26   1.416408 A    
C63   C67   1.411861 A    
O17   C83   1.413891 S    
C80   H41   1.110869 S    
C75   H30   1.116334 S    
C113  C114  1.398041 A    
C61   H23   1.078543 S    
O8    Zn2   2.012002 S    
C87   C88   1.520481 S    
