data_mof_unit_50975.cif
_audit_creation_date              2013-03-05T16:01:58-0500
_audit_creation_method            fapswitch 2.2
_symmetry_space_group_name_H-M    P1
_symmetry_Int_Tables_number       1
_space_group_crystal_system       triclinic
_cell_length_a                    14.942997
_cell_length_b                    14.164184
_cell_length_c                    14.140233
_cell_angle_alpha                 89.999865
_cell_angle_beta                  87.995016
_cell_angle_gamma                 89.999926
_cell_volume                      2991.0238281

loop_
_atom_site_label
_atom_site_type_symbol
_atom_site_description
_atom_site_fract_x
_atom_site_fract_y
_atom_site_fract_z
_atom_type_partial_charge
O1    O     O_R   0.367850 0.580280 0.500020 -0.626860
O2    O     O_R   0.632150 0.419720 0.499980 -0.610247
O3    O     O_R   0.632150 0.580280 0.499980 -0.626859
O4    O     O_R   0.367850 0.419720 0.500020 -0.610248
C1    C     C_R   0.327271 0.499914 0.501038 0.950710
C2    C     C_R   0.672729 0.499914 0.498961 0.950710
O5    O     O_R   0.500000 0.580290 0.373720 -0.605414
O6    O     O_R   0.500000 0.419710 0.626280 -0.608568
O7    O     O_R   0.500000 0.580290 0.626280 -0.605415
O8    O     O_R   0.500000 0.419710 0.373720 -0.608565
C3    C     C_R   0.499533 0.499998 0.329317 0.941596
C4    C     C_R   0.500467 0.499998 0.670683 0.941595
Zn1   Zn    Zn3+2 0.500000 0.607200 0.500000 0.944920
Zn2   Zn    Zn3+2 0.500000 0.392800 0.500000 0.945035
C5    C     C_1   0.499403 0.499992 0.227839 -0.161218
C6    C     C_1   0.500597 0.499992 0.772161 -0.161216
C7    C     C_1   0.499536 0.499994 0.142561 0.005452
C8    C     C_1   0.500464 0.499993 0.857438 0.005452
C9    C     C_1   0.499848 0.499997 0.042647 0.020550
C10   C     C_1   0.500152 0.499997 0.957353 0.020550
C11   C     C_R   0.816049 0.521804 0.412156 -0.098922
C12   C     C_R   0.183951 0.521806 0.587843 -0.098921
C13   C     C_R   0.768493 0.499907 0.496655 -0.172450
C14   C     C_R   0.231507 0.499908 0.503345 -0.172449
C15   C     C_R   0.811624 0.483972 0.581233 0.115708
C16   C     C_R   0.188376 0.483971 0.418767 0.115707
C17   C     C_R   0.902317 0.508699 0.585204 0.114652
C18   C     C_R   0.097683 0.508698 0.414795 0.114653
C19   C     C_R   0.953211 0.513981 0.498925 -0.019165
C20   C     C_R   0.046789 0.513981 0.501074 -0.019166
C21   C     C_R   0.910271 0.515686 0.410649 -0.035492
C22   C     C_R   0.089729 0.515687 0.589350 -0.035493
C23   C     C_R   0.944138 0.523690 0.672085 0.064142
C24   C     C_R   0.055862 0.523688 0.327914 0.064141
C25   C     C_R   0.037406 0.514917 0.675288 -0.018568
C26   C     C_R   0.962593 0.514915 0.324711 -0.018568
C27   C     C_R   0.575111 0.800076 0.470536 0.216259
C28   C     C_R   0.426105 0.200341 0.533859 0.218835
C29   C     C_R   0.424889 0.800076 0.529463 0.216257
C30   C     C_R   0.573894 0.200341 0.466142 0.218830
N1    N     N_R   0.500000 0.750030 0.500000 -0.104109
N2    N     N_R   0.500000 0.249970 0.500000 -0.108507
C31   C     C_R   0.419602 0.899547 0.512428 -0.021133
C32   C     C_R   0.580566 0.100616 0.482446 -0.024672
C33   C     C_R   0.580398 0.899547 0.487571 -0.021133
C34   C     C_R   0.419433 0.100617 0.517556 -0.024674
C35   C     C_R   0.500000 0.950090 0.500000 -0.057807
C36   C     C_R   0.500000 0.050385 0.500000 -0.060518
C37   C     C_R   0.337433 0.949426 0.506960 0.190817
C38   C     C_R   0.663650 0.049981 0.484655 0.192696
C39   C     C_R   0.662567 0.949426 0.493041 0.190816
C40   C     C_R   0.336349 0.049981 0.515349 0.192699
C41   C     C_2   0.767286 0.556582 0.328932 0.897703
O9    O     O_2   0.704418 0.511709 0.298972 -0.642966
O10   O     O_R   0.794604 0.640430 0.284434 -0.797709
H1    H     H_    0.756780 0.656768 0.228589 0.351937
C42   C     C_2   0.232713 0.556584 0.671067 0.897703
O11   O     O_2   0.295582 0.511711 0.701028 -0.642968
O12   O     O_R   0.205395 0.640433 0.715564 -0.797710
H2    H     H_    0.243218 0.656771 0.771408 0.351937
C43   C     C_3   0.762327 0.432146 0.661573 -0.883937
H3    H     H_    0.729663 0.367962 0.633841 0.252080
H4    H     H_    0.807998 0.405584 0.715535 0.255001
H5    H     H_    0.710268 0.478275 0.695238 0.223689
C44   C     C_3   0.237673 0.432143 0.338428 -0.883936
H6    H     H_    0.192002 0.405581 0.284466 0.255000
H7    H     H_    0.289732 0.478271 0.304763 0.223689
H8    H     H_    0.270336 0.367960 0.366162 0.252082
C45   C     C_3   0.892208 0.560315 0.758688 -0.806065
H9    H     H_    0.824079 0.584651 0.741992 0.239071
H10   H     H_    0.887992 0.505599 0.814884 0.251703
H11   H     H_    0.926178 0.623735 0.786460 0.273974
C46   C     C_3   0.107792 0.560311 0.241310 -0.806067
H12   H     H_    0.175920 0.584647 0.258006 0.239071
H13   H     H_    0.112007 0.505594 0.185115 0.251702
H14   H     H_    0.073822 0.623730 0.213537 0.273975
C47   C     C_2   0.076569 0.487561 0.766783 0.944747
O13   O     O_2   0.065601 0.536987 0.837139 -0.593534
O14   O     O_R   0.126729 0.404458 0.771518 -0.797868
H15   H     H_    0.150665 0.393151 0.836762 0.353404
C48   C     C_2   0.923431 0.487558 0.233217 0.944747
O15   O     O_2   0.934399 0.536983 0.162860 -0.593535
O16   O     O_R   0.873272 0.404455 0.228483 -0.797868
H16   H     H_    0.849336 0.393147 0.163240 0.353405
C49   C     C_3   0.643073 0.755363 0.403097 -0.753376
H17   H     H_    0.610734 0.703590 0.356952 0.260912
H18   H     H_    0.673427 0.809295 0.354803 0.221329
H19   H     H_    0.697893 0.721067 0.440703 0.249937
C50   C     C_3   0.360705 0.247319 0.602424 -0.748417
H20   H     H_    0.392283 0.304418 0.641691 0.276215
H21   H     H_    0.302036 0.275859 0.566184 0.248551
H22   H     H_    0.338372 0.196621 0.658263 0.206721
C51   C     C_3   0.356925 0.755362 0.596899 -0.753372
H23   H     H_    0.389261 0.703585 0.643041 0.260917
H24   H     H_    0.326572 0.809292 0.645196 0.221327
H25   H     H_    0.302103 0.721071 0.559290 0.249936
C52   C     C_3   0.639296 0.247318 0.397577 -0.748411
H26   H     H_    0.607717 0.304413 0.358306 0.276211
H27   H     H_    0.697963 0.275861 0.433818 0.248553
H28   H     H_    0.661634 0.196617 0.341742 0.206722
C53   C     C_3   0.254078 0.897225 0.477709 -0.885965
H29   H     H_    0.225720 0.931493 0.414880 0.242207
H30   H     H_    0.268456 0.824857 0.452143 0.242454
H31   H     H_    0.203546 0.895175 0.537129 0.256295
C54   C     C_3   0.751957 0.103312 0.489053 -0.882524
H32   H     H_    0.808954 0.061493 0.513501 0.248026
H33   H     H_    0.773767 0.128172 0.417702 0.247347
H34   H     H_    0.744924 0.163231 0.539387 0.240839
C55   C     C_3   0.745923 0.897224 0.522288 -0.885959
H35   H     H_    0.774279 0.931485 0.585121 0.242202
H36   H     H_    0.731549 0.824853 0.547844 0.242454
H37   H     H_    0.796457 0.895184 0.462868 0.256296
C56   C     C_3   0.248040 0.103310 0.510959 -0.882520
H38   H     H_    0.191039 0.061487 0.486527 0.248025
H39   H     H_    0.226238 0.128176 0.582311 0.247344
H40   H     H_    0.255065 0.163225 0.460618 0.240840

loop_
_geom_bond_atom_site_label_1
_geom_bond_atom_site_label_2
_geom_bond_distance
_ccdc_geom_bond_type
C47   O13   1.222823 D    
O10   H1    1.013802 S    
C51   H23   1.104124 S    
C17   C19   1.416855 A    
C46   H12   1.108059 S    
C9    C10   1.205928 T    
O3    C2    1.289590 A    
C12   C42   1.489457 S    
Zn1   N1    2.023070 S    
C52   H26   1.096983 S    
C29   N1    1.379527 A    
C40   C56   1.523634 S    
C17   C23   1.413716 A    
O5    C3    1.299215 A    
C54   H33   1.106858 S    
C28   C50   1.507161 S    
C53   H29   1.109408 S    
C12   C22   1.410044 A    
O16   H16   1.013803 S    
O1    C1    1.289590 A    
C27   C49   1.507994 S    
C14   C16   1.396637 A    
C28   N2    1.380450 A    
C45   H9    1.108059 S    
C55   H36   1.105479 S    
C37   C53   1.518313 S    
C42   O12   1.398233 S    
C33   C39   1.421048 A    
C34   C40   1.435087 A    
C43   H4    1.107235 S    
C33   C35   1.404263 A    
C45   H10   1.110195 S    
O7    Zn1   1.825855 S    
C29   C51   1.507994 S    
C52   H27   1.107266 S    
C3    C5    1.434998 S    
C4    C6    1.434998 S    
C44   H7    1.110288 S    
C38   C54   1.523632 S    
C50   H21   1.107264 S    
C8    C10   1.412657 S    
O3    Zn1   2.011181 S    
C23   C45   1.518024 S    
Zn2   N2    2.023072 S    
C56   H40   1.110262 S    
C37   C40   1.429261 A    
C47   O14   1.398322 S    
C18   C24   1.413716 A    
O12   H2    1.013801 S    
C39   C55   1.518313 S    
O4    Zn2   2.011183 S    
C46   H13   1.110194 S    
O2    C2    1.287452 A    
C48   O16   1.398323 S    
C48   O15   1.222821 D    
C41   O10   1.398233 S    
C54   H34   1.110258 S    
C34   C36   1.412908 A    
C49   H18   1.110829 S    
C22   C25   1.421830 A    
O8    Zn2   1.825856 S    
C55   H37   1.110226 S    
C30   C52   1.507162 S    
C31   C37   1.421045 A    
C29   C31   1.432008 A    
C49   H17   1.104125 S    
C25   C47   1.489767 S    
C45   H11   1.110293 S    
C19   C20   1.399732 A    
C11   C41   1.489459 S    
C11   C21   1.410043 A    
C35   C36   1.420607 A    
C30   C32   1.435230 A    
C26   C48   1.489766 S    
O6    C4    1.299161 A    
C44   H8    1.109898 S    
C38   C39   1.429259 A    
C15   C43   1.521028 S    
C50   H22   1.109974 S    
C6    C8    1.205776 T    
C53   H31   1.110226 S    
C11   C13   1.403352 A    
C15   C17   1.402766 A    
C46   H14   1.110292 S    
C12   C14   1.403350 A    
O1    Zn1   2.011184 S    
C27   C33   1.432010 A    
C52   H28   1.109975 S    
C56   H38   1.102892 S    
C49   H19   1.104663 S    
C32   C38   1.435081 A    
C5    C7    1.205776 T    
O6    Zn2   1.825857 S    
C16   C44   1.521027 S    
O4    C1    1.287452 A    
C41   O9    1.222229 D    
C51   H25   1.104664 S    
C54   H32   1.102887 S    
C16   C18   1.402767 A    
C18   C20   1.416855 A    
C19   C21   1.423533 A    
C55   H35   1.109407 S    
C43   H5    1.110288 S    
C20   C22   1.423533 A    
C42   O11   1.222231 D    
C51   H24   1.110829 S    
C1    C14   1.430227 S    
C2    C13   1.430226 S    
C30   N2    1.380447 A    
C23   C25   1.401546 A    
C24   C26   1.401545 A    
C13   C15   1.396638 A    
C27   N1    1.379528 A    
C43   H3    1.109899 S    
O2    Zn2   2.011182 S    
O7    C4    1.299214 A    
C28   C34   1.435232 A    
O8    C3    1.299161 A    
C24   C46   1.518023 S    
O14   H15   1.013805 S    
C7    C9    1.412657 S    
O5    Zn1   1.825859 S    
C53   H30   1.105483 S    
C44   H6    1.107236 S    
C21   C26   1.421830 A    
C50   H20   1.096978 S    
C31   C35   1.404259 A    
C32   C36   1.412905 A    
C56   H39   1.106859 S    
