data_mof_unit_12996.cif
_audit_creation_date              2012-12-11T14:40:11-0500
_audit_creation_method            fapswitch 2.2
_symmetry_space_group_name_H-M    P1
_symmetry_Int_Tables_number       1
_space_group_crystal_system       triclinic
_cell_length_a                    19.813944
_cell_length_b                    10.897801
_cell_length_c                    19.454573
_cell_angle_alpha                 90.021008
_cell_angle_beta                  97.873461
_cell_angle_gamma                 89.582631
_cell_volume                      4161.08312636

loop_
_atom_site_label
_atom_site_type_symbol
_atom_type_description
_atom_site_fract_x
_atom_site_fract_y
_atom_site_fract_z
_atom_type_partial_charge
C1    C     C_R   0.724947 0.955506 0.361842 0.556153
C2    C     C_R   0.291857 0.001155 0.633740 0.563599
C3    C     C_R   0.224946 0.455507 0.361842 0.556153
C4    C     C_R   0.791858 0.501156 0.633740 0.563596
C5    C     C_3   0.701164 0.384167 0.483567 -0.122575
C6    C     C_3   0.285190 0.324595 0.518948 -0.095686
C7    C     C_3   0.201164 0.884168 0.483566 -0.122572
C8    C     C_3   0.785189 0.824592 0.518948 -0.095683
C9    C     C_3   0.751835 0.404971 0.432004 0.020323
C10   C     C_3   0.250482 0.406192 0.568853 0.021567
C11   C     C_3   0.251835 0.904972 0.432004 0.020323
C12   C     C_3   0.750482 0.906192 0.568852 0.021567
C13   C     C_3   0.763755 0.537786 0.453781 -0.144053
C14   C     C_3   0.273155 0.523346 0.535896 -0.122283
C15   C     C_3   0.263755 0.037785 0.453781 -0.144056
C16   C     C_3   0.773156 0.023345 0.535894 -0.122286
C17   C     C_3   0.823555 0.493053 0.508352 -0.179253
C18   C     C_3   0.205330 0.521701 0.485559 -0.156727
C19   C     C_3   0.323556 0.993051 0.508353 -0.179252
C20   C     C_3   0.705331 0.021700 0.485557 -0.156726
C21   C     C_3   0.811430 0.359116 0.485132 -0.109848
C22   C     C_3   0.182795 0.404721 0.520323 -0.106208
C23   C     C_3   0.311429 0.859115 0.485132 -0.109848
C24   C     C_3   0.682794 0.904722 0.520322 -0.106207
C25   C     C_3   0.760697 0.342046 0.537747 -0.140421
C26   C     C_3   0.217330 0.324231 0.469718 -0.120015
C27   C     C_3   0.260696 0.842045 0.537747 -0.140422
C28   C     C_3   0.717328 0.824230 0.469718 -0.120014
C29   C     C_3   0.773002 0.475334 0.560558 0.062935
C30   C     C_3   0.239831 0.439343 0.435895 0.054445
C31   C     C_3   0.273002 0.975332 0.560558 0.062937
C32   C     C_3   0.739830 0.939341 0.435894 0.054445
C33   C     C_3   0.518876 0.272355 0.967962 -0.164741
C34   C     C_3   0.481731 0.271007 0.032391 -0.164802
C35   C     C_3   0.018879 0.772349 0.967963 -0.164746
C36   C     C_3   0.981732 0.770997 0.032391 -0.164810
C37   C     C_3   0.567942 0.171180 0.999418 0.242282
C38   C     C_3   0.434461 0.168823 0.000539 0.240381
C39   C     C_3   0.067946 0.671177 0.999421 0.242285
C40   C     C_3   0.934465 0.668811 0.000537 0.240381
C41   C     C_3   0.531769 0.169944 0.064191 0.028656
C42   C     C_3   0.470542 0.170334 0.935838 0.023491
C43   C     C_3   0.031771 0.669936 0.064193 0.028671
C44   C     C_3   0.970548 0.670327 0.935837 0.023476
C45   C     C_R   0.536155 0.180145 0.338633 0.547746
C46   C     C_R   0.465766 0.179375 0.662814 0.534676
C47   C     C_R   0.036156 0.680145 0.338633 0.547748
C48   C     C_R   0.965767 0.679375 0.662814 0.534676
C49   C     C_3   0.483839 0.067310 0.032388 0.018222
C50   C     C_3   0.520335 0.068801 0.967074 0.010871
C51   C     C_3   0.983845 0.567298 0.032387 0.018268
C52   C     C_3   0.020342 0.568794 0.967074 0.010872
C53   C     C_1   0.781939 0.474779 0.914730 0.009428
C54   C     C_1   0.218402 0.473684 0.085531 0.012330
C55   C     C_1   0.281940 0.974782 0.914730 0.009412
C56   C     C_1   0.718401 0.973686 0.085530 0.012309
C57   C     C_1   0.757597 0.438293 0.041781 -0.058594
C58   C     C_1   0.242633 0.437201 0.958471 -0.061360
C59   C     C_1   0.257597 0.938297 0.041782 -0.058599
C60   C     C_1   0.742630 0.937202 0.958470 -0.061353
C61   C     C_1   0.770690 0.459462 0.973376 -0.030508
C62   C     C_1   0.229726 0.458249 0.026931 -0.032619
C63   C     C_1   0.270690 0.959467 0.973376 -0.030520
C64   C     C_1   0.729723 0.958250 0.026930 -0.032605
C65   C     C_1   0.746952 0.410910 0.099232 -0.013919
C66   C     C_1   0.253018 0.410037 0.900894 -0.014095
C67   C     C_1   0.246953 0.910913 0.099232 -0.013914
C68   C     C_1   0.753017 0.910038 0.900894 -0.014103
C69   C     C_R   0.739333 0.361193 0.362098 0.547593
C70   C     C_R   0.259438 0.366795 0.639925 0.536471
C71   C     C_R   0.239334 0.861194 0.362097 0.547591
C72   C     C_R   0.759438 0.866795 0.639925 0.536469
C73   C     C_R   0.705004 0.996602 0.154785 0.553161
C74   C     C_R   0.295158 0.997357 0.845360 0.554410
C75   C     C_R   0.205005 0.496600 0.154785 0.553179
C76   C     C_R   0.795157 0.497355 0.845360 0.554406
C77   C     C_R   0.561110 0.181558 0.136071 0.565145
C78   C     C_R   0.439978 0.181867 0.864258 0.563963
C79   C     C_R   0.061111 0.681557 0.136072 0.565161
C80   C     C_R   0.939982 0.681866 0.864259 0.563954
C81   C     C_R   0.736064 0.362062 0.165021 0.542221
C82   C     C_R   0.263893 0.361609 0.834992 0.540266
C83   C     C_R   0.236064 0.862062 0.165021 0.542223
C84   C     C_R   0.763893 0.861610 0.834992 0.540264
C85   C     C_1   0.489769 0.169680 0.596947 -0.043831
C86   C     C_1   0.517332 0.171758 0.406860 -0.019713
C87   C     C_1   0.989769 0.669679 0.596948 -0.043831
C88   C     C_1   0.017333 0.671758 0.406861 -0.019714
C89   C     C_1   0.508931 0.166833 0.466896 -0.069628
C90   C     C_1   0.501126 0.165627 0.537777 -0.083312
C91   C     C_1   0.008932 0.666832 0.466896 -0.069631
C92   C     C_1   0.001128 0.665626 0.537778 -0.083313
C93   C     C_3   0.713244 0.517613 0.506508 0.287324
C94   C     C_3   0.306601 0.442335 0.485453 0.286759
C95   C     C_3   0.213245 0.017613 0.506508 0.287324
C96   C     C_3   0.806601 0.942331 0.485452 0.286758
Cr1   Cr    Cr6+3 0.765830 0.160660 0.268180 1.027983
Cr2   Cr    Cr6+3 0.234170 0.160660 0.731820 1.025794
Cr3   Cr    Cr6+3 0.265830 0.660660 0.268180 1.027983
Cr4   Cr    Cr6+3 0.734170 0.660660 0.731820 1.025795
Cr5   Cr    Cr6+3 0.612110 0.009150 0.248770 0.982424
Cr6   Cr    Cr6+3 0.387890 0.009150 0.751230 0.988491
Cr7   Cr    Cr6+3 0.112110 0.509150 0.248770 0.982401
Cr8   Cr    Cr6+3 0.887890 0.509150 0.751230 0.988510
Cr9   Cr    Cr6+3 0.615930 0.324050 0.248450 1.000839
Cr10  Cr    Cr6+3 0.384070 0.324050 0.751550 0.990944
Cr11  Cr    Cr6+3 0.115930 0.824050 0.248450 1.000839
Cr12  Cr    Cr6+3 0.884070 0.824050 0.751550 0.990950
H1    H     H_    0.651966 0.335413 0.471449 0.098718
H2    H     H_    0.317797 0.243891 0.535291 0.093669
H3    H     H_    0.151966 0.835414 0.471448 0.098718
H4    H     H_    0.817795 0.743888 0.535292 0.093668
H5    H     H_    0.768005 0.610190 0.414696 0.095565
H6    H     H_    0.296809 0.599027 0.567142 0.095889
H7    H     H_    0.268006 0.110190 0.414697 0.095562
H8    H     H_    0.796811 0.099028 0.567138 0.095891
H9    H     H_    0.374002 0.037275 0.520018 0.119729
H10   H     H_    0.672527 0.102435 0.469336 0.117600
H11   H     H_    0.874002 0.537278 0.520017 0.119728
H12   H     H_    0.172526 0.602435 0.469337 0.117601
H13   H     H_    0.851350 0.292298 0.474743 0.143992
H14   H     H_    0.132516 0.391282 0.538164 0.139463
H15   H     H_    0.351349 0.792296 0.474743 0.143996
H16   H     H_    0.632515 0.891284 0.538163 0.139465
H17   H     H_    0.755039 0.272219 0.577496 0.124222
H18   H     H_    0.194770 0.251965 0.434794 0.143260
H19   H     H_    0.255037 0.772218 0.577495 0.124221
H20   H     H_    0.694770 0.751963 0.434795 0.143264
H21   H     H_    0.531752 0.358254 0.942153 0.130113
H22   H     H_    0.467448 0.356117 0.058444 0.130582
H23   H     H_    0.031754 0.858250 0.942155 0.130115
H24   H     H_    0.967447 0.856105 0.058444 0.130584
O1    O     O_R   0.783230 0.287800 0.346510 -0.513666
O2    O     O_R   0.216770 0.287800 0.653490 -0.494889
O3    O     O_R   0.283230 0.787800 0.346510 -0.513666
O4    O     O_R   0.716770 0.787800 0.653490 -0.494889
O5    O     O_R   0.554500 0.081650 0.170370 -0.526098
O6    O     O_R   0.445500 0.081650 0.829630 -0.524920
O7    O     O_R   0.054500 0.581650 0.170370 -0.526129
O8    O     O_R   0.945500 0.581650 0.829630 -0.524957
O9    O     O_R   0.545430 0.285140 0.163100 -0.528128
O10   O     O_R   0.454570 0.285140 0.836900 -0.526427
O11   O     O_R   0.045430 0.785140 0.163100 -0.528125
O12   O     O_R   0.954570 0.785140 0.836900 -0.526417
O13   O     O_R   0.677850 0.374730 0.185500 -0.505158
O14   O     O_R   0.322150 0.374730 0.814500 -0.502236
O15   O     O_R   0.177850 0.874730 0.185500 -0.505159
O16   O     O_R   0.822150 0.874730 0.814500 -0.502233
O17   O     O_3   0.664630 0.164620 0.255130 -0.284362
O18   O     O_3   0.335370 0.164620 0.744870 -0.301400
O19   O     O_3   0.164630 0.664620 0.255130 -0.284361
O20   O     O_3   0.835370 0.664620 0.744870 -0.301397
O21   O     O_R   0.760130 0.037060 0.338610 -0.465094
O22   O     O_R   0.239870 0.037060 0.661390 -0.466832
O23   O     O_R   0.260130 0.537060 0.338610 -0.465093
O24   O     O_R   0.739870 0.537060 0.661390 -0.466833
O25   O     O_R   0.666620 0.921370 0.332440 -0.532539
O26   O     O_R   0.333380 0.921370 0.667560 -0.519752
O27   O     O_R   0.166620 0.421370 0.332440 -0.532542
O28   O     O_R   0.833380 0.421370 0.667560 -0.519745
O29   O     O_R   0.557170 0.082420 0.312350 -0.494324
O30   O     O_R   0.442830 0.082420 0.687650 -0.504572
O31   O     O_R   0.057170 0.582420 0.312350 -0.494328
O32   O     O_R   0.942830 0.582420 0.687650 -0.504564
O33   O     O_R   0.548310 0.285980 0.316250 -0.513124
O34   O     O_R   0.451690 0.285980 0.683750 -0.527755
O35   O     O_R   0.048310 0.785980 0.316250 -0.513123
O36   O     O_R   0.951690 0.785980 0.683750 -0.527752
O37   O     O_R   0.680520 0.375500 0.327470 -0.515543
O38   O     O_R   0.319480 0.375500 0.672530 -0.515778
O39   O     O_R   0.180520 0.875500 0.327470 -0.515542
O40   O     O_R   0.819480 0.875500 0.672530 -0.515779
O41   O     O_R   0.780350 0.286970 0.193350 -0.517503
O42   O     O_R   0.219650 0.286970 0.806650 -0.520487
O43   O     O_R   0.280350 0.786970 0.193350 -0.517504
O44   O     O_R   0.719650 0.786970 0.806650 -0.520487
O45   O     O_R   0.757460 0.036290 0.196640 -0.503762
O46   O     O_R   0.242540 0.036290 0.803360 -0.500759
O47   O     O_R   0.257460 0.536290 0.196640 -0.503766
O48   O     O_R   0.742540 0.536290 0.803360 -0.500756
O49   O     O_R   0.663740 0.920540 0.179290 -0.540505
O50   O     O_R   0.336260 0.920540 0.820710 -0.534608
O51   O     O_R   0.163740 0.420540 0.179290 -0.540513
O52   O     O_R   0.836260 0.420540 0.820710 -0.534641
O53   O     O_3   0.659039 0.598801 0.516254 -0.558859
C97   C     C_3   0.605678 0.586075 0.459629 -0.003861
H25   H     H_    0.576322 0.501818 0.466979 0.132623
H26   H     H_    0.625527 0.578323 0.408820 0.136223
C98   C     C_3   0.556778 0.696466 0.454808 -0.279529
H27   H     H_    0.540238 0.714474 0.506006 0.172138
H28   H     H_    0.582292 0.779860 0.439329 0.169821
C99   C     C_3   0.494874 0.676258 0.400094 -0.460118
H29   H     H_    0.511063 0.669225 0.347770 0.147293
H30   H     H_    0.458983 0.754962 0.400322 0.155179
H31   H     H_    0.467955 0.591104 0.410717 0.195644
O54   O     O_3   0.370571 0.467676 0.464487 -0.574836
C100  C     C_3   0.424149 0.445139 0.519461 0.006255
H32   H     H_    0.469940 0.420652 0.495284 0.150541
H33   H     H_    0.414360 0.365928 0.552171 0.150109
C101  C     C_3   0.440252 0.558271 0.565918 -0.277413
H34   H     H_    0.438065 0.642181 0.533493 0.166128
H35   H     H_    0.402420 0.567751 0.602372 0.161675
C102  C     C_3   0.509779 0.548013 0.610689 -0.456699
H36   H     H_    0.550384 0.523759 0.579302 0.182539
H37   H     H_    0.508874 0.476906 0.651152 0.182501
H38   H     H_    0.522598 0.637080 0.636825 0.146837
O55   O     O_3   0.159040 0.098801 0.516254 -0.558859
C103  C     C_3   0.105681 0.086083 0.459626 -0.003847
H39   H     H_    0.076326 0.001818 0.466967 0.132621
H40   H     H_    0.125534 0.078351 0.408817 0.136209
C104  C     C_3   0.056778 0.196472 0.454815 -0.279514
H41   H     H_    0.040240 0.214468 0.506017 0.172139
H42   H     H_    0.082290 0.279874 0.439339 0.169814
C105  C     C_3   0.994873 0.176269 0.400103 -0.460114
H43   H     H_    0.011062 0.169217 0.347777 0.147294
H44   H     H_    0.958988 0.254988 0.400326 0.155173
H45   H     H_    0.967946 0.091123 0.410733 0.195650
O56   O     O_3   0.870571 0.967667 0.464485 -0.574841
C106  C     C_3   0.924149 0.945129 0.519458 0.006255
H46   H     H_    0.969940 0.920642 0.495280 0.150543
H47   H     H_    0.914360 0.865917 0.552169 0.150107
C107  C     C_3   0.940253 0.058262 0.565916 -0.277403
H48   H     H_    0.938061 0.142175 0.533490 0.166121
H49   H     H_    0.902423 0.067736 0.602375 0.161675
C108  C     C_3   0.009784 0.048005 0.610681 -0.456689
H50   H     H_    0.050385 0.023741 0.579292 0.182535
H51   H     H_    0.008881 0.976909 0.651150 0.182495
H52   H     H_    0.022607 0.137077 0.636809 0.146840
O57   O     O_3   0.639330 0.164775 0.001588 -0.591062
C109  C     C_3   0.662502 0.236037 0.948762 0.010349
H53   H     H_    0.718946 0.232224 0.958386 0.168369
H54   H     H_    0.647259 0.333812 0.952542 0.134116
C110  C     C_3   0.641044 0.186360 0.875044 -0.297652
H55   H     H_    0.656872 0.089229 0.872351 0.165487
H56   H     H_    0.585174 0.193185 0.860808 0.184762
C111  C     C_3   0.673555 0.258162 0.821184 -0.448163
H57   H     H_    0.657531 0.355918 0.821675 0.175675
H58   H     H_    0.656686 0.220028 0.768746 0.154092
H59   H     H_    0.729926 0.250810 0.831938 0.172685
O58   O     O_3   0.363209 0.160174 0.998638 -0.591720
C112  C     C_3   0.338826 0.232255 0.050745 0.010118
H60   H     H_    0.282417 0.228355 0.040732 0.167002
H61   H     H_    0.353056 0.330031 0.046460 0.134522
C113  C     C_3   0.360242 0.183704 0.124848 -0.294880
H62   H     H_    0.343030 0.088018 0.128633 0.163638
H63   H     H_    0.416229 0.186412 0.138640 0.188205
C114  C     C_3   0.329155 0.259816 0.178334 -0.448942
H64   H     H_    0.345717 0.356683 0.176308 0.175793
H65   H     H_    0.346503 0.223191 0.231116 0.155345
H66   H     H_    0.272724 0.254900 0.168501 0.169500
O59   O     O_3   0.139334 0.664779 0.001592 -0.591065
C115  C     C_3   0.162506 0.736041 0.948765 0.010347
H67   H     H_    0.218950 0.732228 0.958390 0.168371
H68   H     H_    0.147262 0.833815 0.952545 0.134121
C116  C     C_3   0.141049 0.686361 0.875047 -0.297658
H69   H     H_    0.156876 0.589230 0.872356 0.165486
H70   H     H_    0.085179 0.693189 0.860811 0.184756
C117  C     C_3   0.173562 0.758159 0.821188 -0.448163
H71   H     H_    0.157538 0.855916 0.821677 0.175679
H72   H     H_    0.156693 0.720024 0.768750 0.154092
H73   H     H_    0.229932 0.750807 0.831943 0.172685
O60   O     O_3   0.863213 0.660159 0.998636 -0.591717
C118  C     C_3   0.838828 0.732251 0.050738 0.010114
H74   H     H_    0.782420 0.728351 0.040724 0.166995
H75   H     H_    0.853058 0.830026 0.046446 0.134522
C119  C     C_3   0.860243 0.683714 0.124845 -0.294877
H76   H     H_    0.843013 0.588041 0.128641 0.163620
H77   H     H_    0.916231 0.686388 0.138632 0.188219
C120  C     C_3   0.829175 0.759866 0.178328 -0.448927
H78   H     H_    0.845746 0.856725 0.176285 0.175781
H79   H     H_    0.846528 0.723259 0.231113 0.155352
H80   H     H_    0.772744 0.754967 0.168505 0.169508
C121  C     C_3   0.459386 0.951381 0.067125 -0.237018
C122  C     C_3   0.516085 0.858198 0.091257 -0.396746
H81   H     H_    0.563383 0.876823 0.068751 0.171352
H82   H     H_    0.528298 0.859287 0.148648 0.180043
H83   H     H_    0.498678 0.763973 0.076609 0.112865
H84   H     H_    0.435032 0.977478 0.112773 0.149806
H85   H     H_    0.419651 0.906570 0.029932 0.152247
C123  C     C_3   0.545380 0.956836 0.928652 -0.244587
C124  C     C_3   0.492331 0.855439 0.914250 -0.403661
H86   H     H_    0.499597 0.784883 0.955551 0.128103
H87   H     H_    0.439883 0.892765 0.910729 0.193061
H88   H     H_    0.498160 0.808985 0.864556 0.141528
H89   H     H_    0.559138 0.986938 0.878187 0.156573
H90   H     H_    0.592220 0.918338 0.958895 0.155738
C125  C     C_3   0.959376 0.451359 0.067104 -0.237021
C126  C     C_3   0.016072 0.358199 0.091291 -0.396834
H91   H     H_    0.063352 0.376704 0.068727 0.171302
H92   H     H_    0.028319 0.359444 0.148678 0.180203
H93   H     H_    0.998638 0.263942 0.076745 0.112837
H94   H     H_    0.934970 0.477441 0.112721 0.149803
H95   H     H_    0.919680 0.406529 0.029873 0.152267
C127  C     C_3   0.045404 0.456842 0.928653 -0.244638
C128  C     C_3   0.992386 0.355393 0.914276 -0.403869
H96   H     H_    0.999555 0.285033 0.955693 0.128203
H97   H     H_    0.939924 0.392736 0.910565 0.193229
H98   H     H_    0.998357 0.308682 0.864684 0.141412
H99   H     H_    0.059135 0.486946 0.878177 0.156611
H100  H     H_    0.092260 0.418384 0.958887 0.155802

loop_
_geom_bond_atom_site_label_1
_geom_bond_atom_site_label_2
_ccdc_geom_bond_type
C79   O7    A    
C116  H70   S    
C20   H10   S    
Cr11  O39   S    
C124  H88   S    
C102  H37   S    
Cr9   O37   S    
C94   O54   S    
Cr10  O34   S    
C108  H52   S    
C113  H62   S    
C122  H81   S    
C26   H18   S    
C100  H33   S    
C9    C13   S    
C123  H89   S    
C55   C74   S    
C11   C15   S    
C12   C16   S    
C6    C94   S    
C75   O47   A    
C49   C121  S    
C41   C49   S    
C22   H14   S    
C25   C29   S    
Cr11  O35   S    
Cr1   O41   S    
C27   C31   S    
C51   C52   S    
Cr6   O50   S    
C99   H31   S    
C28   C32   S    
Cr5   O5    S    
C14   H6    S    
C17   C21   S    
Cr8   O8    S    
C19   C23   S    
O57   C109  S    
C66   C82   S    
C73   O49   A    
C74   O46   A    
C16   C20   S    
C48   C87   S    
C109  H54   S    
C5    C25   S    
C120  H79   S    
C8    C28   S    
Cr7   O51   S    
Cr11  O11   S    
C72   O40   A    
Cr12  O12   S    
Cr2   O18   S    
C114  H66   S    
C118  H75   S    
C56   C73   S    
C126  H91   S    
C77   O5    A    
O54   C100  S    
Cr8   O32   S    
C85   C90   T    
C57   C61   S    
C48   O32   A    
C7    H3    S    
C59   C63   S    
C121  H84   S    
C113  C114  S    
C60   C64   S    
Cr8   O20   S    
C8    H4    S    
C30   C94   S    
C37   C50   S    
C9    C21   S    
C11   C23   S    
C77   O9    A    
C38   O58   S    
C101  H35   S    
C70   O2    A    
C97   H25   S    
C99   H30   S    
C115  H67   S    
Cr12  O16   S    
C29   C93   S    
Cr2   O22   S    
C67   C83   S    
Cr10  O18   S    
C3    C30   S    
Cr1   O1    S    
Cr6   O26   S    
C128  H97   S    
Cr8   O52   S    
Cr4   O20   S    
C37   O57   S    
C33   C42   S    
C36   H24   S    
C105  H44   S    
C50   C123  S    
C111  H57   S    
C112  H60   S    
C98   H28   S    
C45   O29   A    
C59   C67   T    
C53   C61   T    
C79   O11   A    
C111  H58   S    
C80   O12   A    
C55   C63   T    
C56   C64   T    
Cr2   O46   S    
C110  H55   S    
Cr11  O19   S    
C44   C52   S    
Cr12  O36   S    
C2    O22   A    
C3    O27   A    
Cr10  O38   S    
C109  H53   S    
C33   C34   S    
C16   C96   S    
C82   O42   A    
C123  C124  S    
C10   C14   S    
C91   C92   S    
C23   H15   S    
C107  C108  S    
C125  H95   S    
C126  H92   S    
C5    C9    S    
C88   C91   T    
C8    C12   S    
C69   O37   A    
C107  H49   S    
C60   C68   T    
C119  H77   S    
C42   C50   S    
C115  C116  S    
C81   O41   A    
C26   C30   S    
Cr12  O40   S    
C71   O39   A    
Cr4   O48   S    
Cr5   O49   S    
C20   C32   S    
C21   C25   S    
C32   C96   S    
C18   C22   S    
C24   C28   S    
C119  C120  S    
O60   C118  S    
C74   O50   A    
C124  H87   S    
C40   C51   S    
C12   C24   S    
C111  H59   S    
C13   C17   S    
C112  C113  S    
C117  H71   S    
C127  H99   S    
C106  C107  S    
C6    C26   S    
O58   C112  S    
C108  H51   S    
C113  H63   S    
C122  H82   S    
C37   C41   S    
C100  H32   S    
C110  C111  S    
C123  H90   S    
C54   C75   S    
C40   C44   S    
C104  C105  S    
Cr3   O43   S    
C49   C50   S    
Cr1   O17   S    
C125  H94   S    
C120  H78   S    
Cr4   O4    S    
C58   C62   S    
C122  H83   S    
C17   C29   S    
C35   C36   S    
C19   C31   S    
O59   C115  S    
C38   C49   S    
C10   C22   S    
C15   C19   S    
C51   C125  S    
C9    C69   S    
C78   O10   A    
C15   C95   S    
C127  C128  S    
C41   C77   S    
C11   C71   S    
C7    C27   S    
C25   H17   S    
Cr12  O20   S    
C27   H19   S    
C103  H39   S    
Cr3   O23   S    
Cr4   O44   S    
Cr10  O10   S    
Cr1   O21   S    
C4    C29   S    
Cr7   O19   S    
C46   C85   S    
C47   O31   A    
Cr4   O24   S    
C84   O16   A    
C12   C72   S    
C116  C117  S    
Cr5   O25   S    
C87   C92   T    
C34   C41   S    
Cr8   O28   S    
C16   H8    S    
C82   O14   A    
C114  H65   S    
C95   O55   S    
C102  H38   S    
O55   C103  S    
C68   C84   S    
C44   C80   S    
C128  H96   S    
C54   C62   T    
C80   O8    A    
C33   C37   S    
C13   C93   S    
C100  C101  S    
C35   C39   S    
C126  H93   S    
Cr3   O47   S    
Cr11  O15   S    
Cr1   O45   S    
C104  H41   S    
Cr6   O30   S    
Cr9   O13   S    
C3    O23   A    
Cr3   O3    S    
C1    O21   A    
Cr6   O18   S    
C10   C70   S    
C4    O24   A    
C53   C76   S    
C97   H26   S    
C35   H23   S    
C106  H46   S    
C7    C95   S    
C115  H68   S    
C33   H21   S    
C46   O34   A    
C57   C65   T    
C76   O48   A    
C86   C89   T    
C6    C10   S    
C97   C98   S    
C70   O38   A    
C99   H29   S    
Cr9   O9    S    
C43   C51   S    
O53   C97   S    
C5    H1    S    
C103  C104  S    
C31   C95   S    
C1    O25   A    
Cr9   O33   S    
C45   C86   S    
C98   H27   S    
C17   H11   S    
C39   O59   S    
C19   H9    S    
C22   C26   S    
C120  H80   S    
C36   C43   S    
C89   C90   S    
C84   O44   A    
C45   O33   A    
C14   C94   S    
C28   H20   S    
C93   O53   S    
C118  C119  S    
C102  H36   S    
C83   O43   A    
C14   C18   S    
C8    C96   S    
C75   O51   A    
C7    C11   S    
C121  H85   S    
C38   C42   S    
C71   O3    A    
Cr2   O42   S    
C72   O4    A    
C43   C79   S    
C24   H16   S    
C109  C110  S    
Cr6   O6    S    
C40   O60   S    
C58   C66   T    
C20   C24   S    
C101  H34   S    
C18   C30   S    
C23   C27   S    
C2    O26   A    
C73   O45   A    
C39   C52   S    
Cr5   O29   S    
C6    H2    S    
C78   O6    A    
C128  H98   S    
C36   C40   S    
C105  H43   S    
C39   C43   S    
C124  H86   S    
Cr3   O19   S    
C1    C32   S    
C2    C31   S    
C112  H61   S    
C98   C99   S    
C117  H72   S    
C127  H100  S    
Cr7   O7    S    
C106  H47   S    
C47   O35   A    
C48   O36   A    
C121  C122  S    
C35   C44   S    
C110  H56   S    
C83   O15   A    
C104  H42   S    
C42   C78   S    
C81   O13   A    
C125  C126  S    
C117  H73   S    
C116  H69   S    
C18   H12   S    
C69   O1    A    
C108  H50   S    
C34   C38   S    
C105  H45   S    
C5    C93   S    
C114  H64   S    
Cr9   O17   S    
Cr2   O2    S    
Cr7   O31   S    
Cr10  O14   S    
C47   C88   S    
C118  H74   S    
Cr7   O27   S    
O56   C106  S    
C4    O28   A    
C101  C102  S    
C96   O56   S    
Cr5   O17   S    
C15   H7    S    
C21   H13   S    
C107  H48   S    
C119  H76   S    
C34   H22   S    
C103  H40   S    
C46   O30   A    
C65   C81   S    
C52   C127  S    
C76   O52   A    
C13   H5    S    
