data_mof_unit_21164.cif
_audit_creation_date              2013-03-05T16:02:02-0500
_audit_creation_method            fapswitch 2.2
_symmetry_space_group_name_H-M    P1
_symmetry_Int_Tables_number       1
_space_group_crystal_system       triclinic
_cell_length_a                    6.933733
_cell_length_b                    17.548824
_cell_length_c                    19.508873
_cell_angle_alpha                 108.343277
_cell_angle_beta                  89.269168
_cell_angle_gamma                 90.604912
_cell_volume                      2252.9622723

loop_
_atom_site_label
_atom_site_type_symbol
_atom_site_description
_atom_site_fract_x
_atom_site_fract_y
_atom_site_fract_z
_atom_type_partial_charge
O1    O     O_R   0.494330 0.415720 0.413720 -0.598883
O2    O     O_R   0.819330 0.430070 0.560210 -0.599672
O3    O     O_R   0.994320 0.584280 0.586280 -0.590253
C1    C     C_R   0.649569 0.413441 0.580536 0.951266
O4    O     O_R   0.823730 0.406300 0.412670 -0.598390
O5    O     O_R   0.998760 0.560340 0.437690 -0.598472
C2    C     C_R   0.655306 0.383734 0.384642 0.928737
O6    O     O_R   0.489890 0.439660 0.562310 -0.608563
O7    O     O_3   0.662340 0.550560 0.508380 -0.255599
V1    V     V_3+5 0.935370 0.490620 0.498450 1.185004
O8    O     O_R   0.328750 0.569930 0.439790 -0.572078
C3    C     C_R   0.161370 0.582106 0.415697 1.042388
O9    O     O_R   0.324340 0.593700 0.587330 -0.567594
C4    C     C_R   0.154430 0.617833 0.614543 1.050665
V2    V     V_3+5 0.435940 0.509380 0.501550 1.202131
O10   O     O_3   0.159100 0.449440 0.491620 -0.290594
H1    H     H_    0.450150 0.872207 0.589059 0.158967
C5    C     C_R   0.956473 0.602741 0.741930 -0.280859
C6    C     C_R   0.856821 0.593805 0.801612 0.595057
C7    C     C_R   0.854739 0.655818 0.866440 -0.187928
C8    C     C_R   0.946978 0.727909 0.871649 -0.245537
C9    C     C_R   0.037363 0.741117 0.810757 0.138455
C10   C     C_R   0.045000 0.676997 0.744336 0.050184
C11   C     C_R   0.123658 0.816155 0.816266 -0.266887
C12   C     C_R   0.219564 0.827682 0.755608 0.086315
C13   C     C_R   0.220095 0.765394 0.687503 -0.006448
C14   C     C_R   0.139734 0.687965 0.682534 -0.266015
C15   C     C_R   0.308613 0.902614 0.760921 -0.170820
C16   C     C_R   0.400860 0.915865 0.702372 -0.212951
C17   C     C_R   0.391794 0.858167 0.635497 -0.137146
C18   C     C_R   0.294327 0.785811 0.626770 0.425840
H2    H     H_    0.961087 0.550767 0.694281 0.167452
H3    H     H_    0.781737 0.648199 0.913286 0.171992
H4    H     H_    0.945878 0.772811 0.924310 0.147554
H5    H     H_    0.306777 0.953152 0.809700 0.142393
H6    H     H_    0.469873 0.973177 0.708077 0.143962
C19   C     C_R   0.308728 0.632250 0.319499 -0.204114
C20   C     C_R   0.154508 0.632582 0.367223 -0.104367
C21   C     C_R   0.993575 0.681460 0.368554 -0.093176
C22   C     C_R   0.985125 0.728793 0.322419 0.164119
C23   C     C_R   0.138743 0.726864 0.273754 0.057280
C24   C     C_R   0.301012 0.678414 0.272322 0.148807
C25   C     C_R   0.824792 0.777376 0.323485 -0.208525
C26   C     C_R   0.815518 0.822964 0.276211 -0.218827
C27   C     C_R   0.966401 0.820857 0.226980 0.157945
C28   C     C_R   0.129628 0.773130 0.226158 0.038586
C29   C     C_R   0.283674 0.771490 0.177735 0.139483
C30   C     C_R   0.443873 0.722860 0.176606 -0.189108
C31   C     C_R   0.452091 0.676581 0.223277 -0.160871
C32   C     C_R   0.957219 0.865743 0.178757 -0.249636
C33   C     C_R   0.111470 0.865284 0.130951 -0.148057
C34   C     C_R   0.274729 0.818307 0.131212 -0.239551
H7    H     H_    0.433167 0.594854 0.318138 0.137840
H8    H     H_    0.874825 0.682706 0.405584 0.139747
H9    H     H_    0.705442 0.779534 0.360443 0.146436
H10   H     H_    0.689476 0.859519 0.277853 0.138339
H11   H     H_    0.831623 0.902278 0.179402 0.133814
H12   H     H_    0.393915 0.817303 0.094414 0.142756
H13   H     H_    0.563317 0.720729 0.139690 0.155387
H14   H     H_    0.577324 0.639607 0.221204 0.195127
C35   C     C_R   0.469401 0.184991 0.867212 -0.199294
C36   C     C_R   0.624205 0.134448 0.868953 -0.160514
C37   C     C_R   0.782690 0.129722 0.822015 -0.252912
C38   C     C_R   0.785035 0.173760 0.772941 0.181318
C39   C     C_R   0.628736 0.224352 0.771721 0.044581
C40   C     C_R   0.471569 0.230381 0.819567 0.074330
C41   C     C_R   0.940521 0.167970 0.724877 -0.224998
C42   C     C_R   0.942060 0.212287 0.676477 -0.190541
C43   C     C_R   0.788520 0.263485 0.675432 0.235187
C44   C     C_R   0.630106 0.269303 0.722940 0.002004
C45   C     C_R   0.474714 0.320847 0.722506 0.003321
C46   C     C_R   0.321234 0.327957 0.772349 0.484606
C47   C     C_R   0.319577 0.282313 0.819618 -0.287161
C48   C     C_R   0.792846 0.310121 0.628723 -0.180084
C49   C     C_R   0.639264 0.361524 0.627635 -0.162535
C50   C     C_R   0.479325 0.365192 0.673503 -0.100845
H15   H     H_    0.347228 0.189595 0.903522 0.143910
H16   H     H_    0.902137 0.090548 0.822603 0.137011
H17   H     H_    0.061716 0.129520 0.725013 0.135070
H18   H     H_    0.064922 0.207369 0.640482 0.121072
H19   H     H_    0.916406 0.306492 0.593234 0.126656
H20   H     H_    0.362268 0.405117 0.672490 0.177442
H21   H     H_    0.199585 0.288114 0.857061 0.185865
H22   H     H_    0.389424 0.144502 0.431909 0.112058
C51   C     C_R   0.776145 0.400254 0.246449 -0.324888
C52   C     C_R   0.834945 0.410948 0.180881 0.416463
C53   C     C_R   0.825114 0.345977 0.117375 -0.213767
C54   C     C_R   0.755115 0.271903 0.118593 -0.216344
C55   C     C_R   0.694459 0.259862 0.183849 0.135262
C56   C     C_R   0.706451 0.325207 0.249359 0.081141
C57   C     C_R   0.619041 0.184541 0.184086 -0.301585
C58   C     C_R   0.555816 0.174594 0.250217 0.114792
C59   C     C_R   0.569342 0.239668 0.316000 0.116531
C60   C     C_R   0.645089 0.315133 0.315838 -0.279304
C61   C     C_R   0.481748 0.099939 0.252470 -0.176151
C62   C     C_R   0.421752 0.089672 0.317443 -0.111899
C63   C     C_R   0.435262 0.152955 0.381522 -0.110782
C64   C     C_R   0.508663 0.227068 0.381166 -0.160100
H23   H     H_    0.784520 0.451279 0.295037 0.158491
H24   H     H_    0.868734 0.352739 0.066104 0.181289
H25   H     H_    0.747105 0.224532 0.067375 0.131721
H26   H     H_    0.470189 0.048569 0.204251 0.113733
H27   H     H_    0.365373 0.032119 0.318082 0.117823
H28   H     H_    0.518285 0.274013 0.432603 0.097145
O11   O     O_R   0.775200 0.060470 0.937800 -0.595283
O12   O     O_R   0.441110 0.093720 0.087350 -0.588960
O13   O     O_R   0.266330 0.939630 0.062280 -0.600739
C65   C     C_R   0.609340 0.116022 0.115475 0.940952
O14   O     O_R   0.445750 0.069950 0.939820 -0.608302
O15   O     O_R   0.271000 0.915700 0.913700 -0.594192
C66   C     C_R   0.615293 0.085097 0.918228 0.944955
O16   O     O_R   0.770530 0.084400 0.086380 -0.589984
O17   O     O_3   0.602830 0.949510 0.991680 -0.273576
V3    V     V_3+5 0.329710 0.009370 0.001550 1.157619
O18   O     O_R   0.940990 0.906170 0.912570 -0.593581
C67   C     C_R   0.110723 0.883579 0.885131 0.932171
O19   O     O_R   0.936350 0.929940 0.060100 -0.602745
C68   C     C_R   0.104079 0.914812 0.081749 0.949140
V4    V     V_3+5 0.829160 0.990450 0.998310 1.158288
O20   O     O_3   0.105910 0.050480 0.008320 -0.271537
Cl1   Cl    Cl    0.131238 0.395722 0.779803 -0.601788
N1    N     N_R   0.901847 0.487992 0.178651 0.231360
O21   O     O_R   0.980036 0.495780 0.120186 -0.381194
O22   O     O_R   0.878649 0.551640 0.234289 -0.467709
Cl2   Cl    Cl    0.730766 0.504970 0.795525 -0.591582
Cl3   Cl    Cl    0.233601 0.735923 0.537521 -0.741539

loop_
_geom_bond_atom_site_label_1
_geom_bond_atom_site_label_2
_geom_bond_distance
_ccdc_geom_bond_type
C42   H18   1.083719 S    
C53   C54   1.389855 A    
C59   C60   1.420428 A    
C46   Cl1   1.757893 S    
C23   C24   1.412106 A    
C6    C7    1.384789 A    
C1    O6    1.299130 A    
C54   H25   1.081746 S    
C51   C52   1.404935 A    
C12   C15   1.421200 A    
C16   H6    1.083354 S    
C13   C14   1.438294 A    
C16   C17   1.378614 A    
C31   H14   1.082183 S    
O12   V3    2.009696 S    
H22   C63   1.082630 S    
C15   C16   1.383212 A    
C53   H24   1.082718 S    
O19   V4    1.994567 S    
O5    C3    1.297282 A    
C17   C18   1.395269 A    
C21   H8    1.084233 S    
C39   C44   1.414284 A    
C63   C64   1.393635 A    
C33   C68   1.485514 S    
C5    C6    1.396344 A    
C19   C24   1.406323 A    
C1    C49   1.484349 S    
O9    C4    1.304690 A    
O17   V4    1.708367 S    
O8    V2    1.994622 S    
C35   C40   1.401449 A    
C22   C25   1.404085 A    
C36   C66   1.483021 S    
C61   C62   1.393172 A    
C15   H5    1.077508 S    
C35   H15   1.084449 S    
C42   C43   1.404751 A    
C52   N1    1.438166 S    
C23   C28   1.415102 A    
C44   C45   1.415898 A    
O1    V2    2.006264 S    
C10   C14   1.430167 A    
C4    C14   1.502056 S    
C55   C57   1.417672 A    
O7    V1    2.152277 S    
O15   V3    2.008864 S    
O13   C68   1.297096 A    
C61   H26   1.081966 S    
C19   H7    1.084539 S    
O11   C66   1.298719 A    
C13   C18   1.429980 A    
C8    C9    1.417365 A    
H1    C17   1.083619 S    
C35   C36   1.407129 A    
C56   C60   1.422299 A    
C20   C21   1.409616 A    
C48   C49   1.407519 A    
C41   C42   1.399380 A    
C38   C41   1.403006 A    
C41   H17   1.083802 S    
C11   C12   1.418193 A    
C50   H20   1.082202 S    
C57   C58   1.418745 A    
O4    C2    1.299929 A    
C52   C53   1.396773 A    
C8    H4    1.080197 S    
C12   C13   1.430376 A    
C27   C28   1.412014 A    
C40   C47   1.400310 A    
C6    Cl2   1.750914 S    
C58   C61   1.415448 A    
C65   O16   1.295345 A    
O2    C1    1.296765 A    
C49   C50   1.405209 A    
O13   V3    1.995656 S    
C19   C20   1.407709 A    
C51   H23   1.081550 S    
C26   H10   1.083749 S    
C29   C30   1.403626 A    
C51   C56   1.415676 A    
C62   C63   1.389908 A    
C36   C37   1.407627 A    
C32   C33   1.408460 A    
C43   C48   1.403282 A    
C7    C8    1.386905 A    
O3    C4    1.296394 A    
C34   H12   1.084355 S    
O14   V3    1.997729 S    
C7    H3    1.083062 S    
C25   H9    1.083691 S    
C30   C31   1.399837 A    
C11   C67   1.487142 S    
O6    V2    1.993938 S    
O18   V4    2.005148 S    
O9    V2    2.005337 S    
C25   C26   1.400614 A    
C9    C11   1.414049 A    
C5    H2    1.078536 S    
C48   H19   1.084279 S    
N1    O22   1.299184 A    
O2    V1    1.997796 S    
O15   C67   1.291601 A    
C21   C22   1.405858 A    
C26   C27   1.403983 A    
C30   H13   1.083716 S    
O17   V3    2.152258 S    
C2    C60   1.496520 S    
C28   C29   1.411343 A    
C22   C23   1.411299 A    
O1    C2    1.295903 A    
C32   H11   1.084453 S    
C57   C65   1.493178 S    
C46   C47   1.398780 A    
O5    V1    1.995849 S    
O16   V4    2.012186 S    
V4    O20   2.160443 S    
C29   C34   1.405152 A    
C38   C39   1.413343 A    
O14   C66   1.296646 A    
O7    V2    1.710272 S    
C33   C34   1.408390 A    
O3    V1    2.008876 S    
V1    O10   1.704191 S    
O19   C68   1.300392 A    
C45   C50   1.409793 A    
O12   C65   1.298609 A    
C27   C32   1.406627 A    
C5    C10   1.422118 A    
C64   H28   1.081819 S    
V2    O10   2.160365 S    
C58   C59   1.427671 A    
C3    C20   1.486768 S    
C43   C44   1.411647 A    
C24   C31   1.403437 A    
C37   C38   1.406805 A    
O4    V1    2.009857 S    
C45   C46   1.411962 A    
C54   C55   1.412820 A    
C39   C40   1.408675 A    
C62   H27   1.082814 S    
C9    C10   1.424718 A    
O11   V4    1.994333 S    
C18   Cl3   1.739767 S    
N1    O21   1.301663 A    
C55   C56   1.425998 A    
C59   C64   1.415440 A    
C47   H21   1.084273 S    
V3    O20   1.704211 S    
O18   C67   1.299609 A    
O8    C3    1.302254 A    
C37   H16   1.084388 S    
