data_mof_unit_29623.cif
_audit_creation_date              2012-12-10T16:52:59-0500
_audit_creation_method            fapswitch 2.2
_symmetry_space_group_name_H-M    P1
_symmetry_Int_Tables_number       1
_space_group_crystal_system       triclinic
_cell_length_a                    7.776451
_cell_length_b                    8.620272
_cell_length_c                    11.514888
_cell_angle_alpha                 90.83843
_cell_angle_beta                  85.597813
_cell_angle_gamma                 93.210162
_cell_volume                      768.375617114

loop_
_atom_site_label
_atom_site_type_symbol
_atom_type_description
_atom_site_fract_x
_atom_site_fract_y
_atom_site_fract_z
_atom_type_partial_charge
C1    C     C_R   0.544728 0.794094 0.498245 0.846671
C2    C     C_2   0.434647 0.044010 0.489085 0.172174
C3    C     C_3   0.729829 0.975529 0.674585 0.118244
C4    C     C_3   0.662228 0.103165 0.756949 -0.347780
C5    C     C_3   0.676387 0.062018 0.884196 -0.961539
C6    C     C_3   0.307961 0.973472 0.320414 0.101276
C7    C     C_3   0.204112 0.094767 0.265273 -0.336768
C8    C     C_3   0.222771 0.083890 0.132531 -0.963881
C9    C     C_R   0.455310 0.205884 0.502398 0.873881
C10   C     C_R   0.501534 0.500080 0.717950 0.869795
C11   C     C_R   0.498423 0.499782 0.282049 0.874008
C12   C     C_1   0.503744 0.499177 0.838258 -0.187580
C13   C     C_1   0.495857 0.499248 0.161742 -0.185561
C14   C     C_1   0.501716 0.498726 0.940587 -0.007112
C15   C     C_1   0.497607 0.498772 0.059413 -0.008518
C16   C     C_2   0.565379 0.956029 0.515193 0.158949
H1    H     H_    0.868446 0.963019 0.687626 0.176485
H2    H     H_    0.065421 0.077129 0.295978 0.243529
H3    H     H_    0.250405 0.212828 0.292392 0.224835
H4    H     H_    0.360184 0.105109 0.100020 0.267868
H5    H     H_    0.145675 0.173029 0.095410 0.273118
H6    H     H_    0.175197 0.967276 0.102597 0.267855
H7    H     H_    0.013483 0.381146 0.414349 0.196229
H8    H     H_    0.986481 0.618872 0.585639 0.197032
H9    H     H_    0.662016 0.861635 0.698323 0.104366
H10   H     H_    0.738500 0.213792 0.737522 0.253477
H11   H     H_    0.524662 0.120116 0.743269 0.199704
H12   H     H_    0.597752 0.953456 0.906497 0.266149
H13   H     H_    0.627802 0.157446 0.941312 0.271594
H14   H     H_    0.813203 0.046277 0.900643 0.267943
H15   H     H_    0.258383 0.855953 0.293679 0.182003
H16   H     H_    0.446027 0.985692 0.285056 0.091092
N1    N     N_2   0.950330 0.457960 0.469510 -0.157958
N2    N     N_2   0.049670 0.542040 0.530490 -0.159218
O1    O     O_R   0.389250 0.738570 0.507480 -0.586775
O2    O     O_3   0.283733 0.983980 0.443616 -0.619603
O3    O     O_R   0.610750 0.261430 0.492520 -0.582358
O4    O     O_R   0.678390 0.711630 0.487940 -0.607296
O5    O     O_R   0.321610 0.288370 0.512060 -0.608281
O6    O     O_R   0.355420 0.513450 0.675320 -0.607905
O7    O     O_R   0.644580 0.486550 0.324680 -0.607818
O8    O     O_R   0.644570 0.486510 0.655780 -0.633767
O9    O     O_R   0.355430 0.513490 0.344220 -0.634978
O10   O     O_3   0.718438 0.018202 0.557006 -0.620202
Zn1   Zn    Zn3+2 0.306940 0.517990 0.513050 0.962142
Zn2   Zn    Zn3+2 0.693060 0.482010 0.486950 0.964482

loop_
_geom_bond_atom_site_label_1
_geom_bond_atom_site_label_2
_ccdc_geom_bond_type
C4    H10   S    
O7    Zn2   S    
C11   O9    A    
C6    C7    S    
C2    C16   D    
C10   O8    A    
C5    H12   S    
O9    Zn1   S    
C16   O10   S    
C5    H13   S    
C3    H9    S    
O5    Zn1   S    
C7    H2    S    
C9    O3    A    
C8    H5    S    
C7    C8    S    
C1    C16   S    
N1    Zn2   S    
C11   C13   S    
C8    H4    S    
C10   C12   S    
C1    O4    A    
C12   C14   T    
C3    H1    S    
C7    H3    S    
C13   C15   T    
O6    Zn1   S    
C3    O10   S    
O4    Zn2   S    
C3    C4    S    
O1    Zn1   S    
C9    O5    A    
C4    H11   S    
N1    N2    D    
C1    O1    A    
C10   O6    A    
C5    H14   S    
O8    Zn2   S    
C11   O7    A    
C2    O2    S    
N2    Zn1   S    
C14   C15   S    
C6    H16   S    
C6    H15   S    
O3    Zn2   S    
C2    C9    S    
C8    H6    S    
H8    N2    S    
C6    O2    S    
C4    C5    S    
H7    N1    S    
