data_mof_unit_36579.cif
_audit_creation_date              2012-12-10T17:31:15-0500
_audit_creation_method            fapswitch 2.2
_symmetry_space_group_name_H-M    P1
_symmetry_Int_Tables_number       1
_space_group_crystal_system       triclinic
_cell_length_a                    11.981222
_cell_length_b                    12.832282
_cell_length_c                    15.46128
_cell_angle_alpha                 86.626233
_cell_angle_beta                  115.471728
_cell_angle_gamma                 95.222912
_cell_volume                      2136.6316445

loop_
_atom_site_label
_atom_site_type_symbol
_atom_type_description
_atom_site_fract_x
_atom_site_fract_y
_atom_site_fract_z
_atom_type_partial_charge
C1    C     C_R   0.474601 0.299006 0.497274 0.959618
C2    C     C_R   0.631453 0.978183 0.469152 0.487093
C3    C     C_R   0.369512 0.130896 0.522958 0.424992
C4    C     C_R   0.630701 0.869054 0.477293 0.426048
C5    C     C_R   0.531004 0.134470 0.466426 -0.296088
C6    C     C_R   0.469248 0.865468 0.533876 -0.295890
C7    C     C_R   0.540777 0.028368 0.483549 -0.078084
C8    C     C_R   0.459494 0.971577 0.516777 -0.077852
C9    C     C_R   0.998551 0.584913 0.398657 -0.344135
C10   C     C_R   0.001412 0.415099 0.601259 -0.343535
C11   C     C_R   0.120624 0.578511 0.410166 0.012700
C12   C     C_R   0.525428 0.700981 0.502771 0.956716
C13   C     C_R   0.879348 0.421427 0.589756 0.009682
C14   C     C_R   0.164013 0.466455 0.546544 -0.068313
C15   C     C_R   0.835993 0.533673 0.453494 -0.062586
C16   C     C_R   0.576461 0.497179 0.680502 0.875083
C17   C     C_R   0.424406 0.507647 0.319605 0.873630
C18   C     C_R   0.041883 0.470057 0.537541 0.087523
C19   C     C_R   0.958103 0.530055 0.462442 0.091006
C20   C     C_R   0.625092 0.512746 0.783531 -0.057071
C21   C     C_R   0.381938 0.529015 0.216947 -0.054830
C22   C     C_R   0.793187 0.544789 0.940024 -0.200106
C23   C     C_R   0.660378 0.585949 0.110132 -0.218278
C24   C     C_R   0.224024 0.569456 0.059387 -0.200183
C25   C     C_R   0.752374 0.521439 0.843604 -0.201966
C26   C     C_R   0.258030 0.545166 0.156199 -0.202187
C27   C     C_R   0.540088 0.529060 0.819887 -0.250712
C28   C     C_R   0.471300 0.540554 0.181208 -0.244297
C29   C     C_R   0.578767 0.558425 0.914227 0.091281
C30   C     C_R   0.440493 0.568659 0.085774 0.092235
C31   C     C_R   0.707042 0.561837 0.976073 0.179575
C32   C     C_R   0.314020 0.578996 0.023355 0.177910
C33   C     C_R   0.491656 0.576971 0.949718 0.068081
C34   C     C_R   0.365976 0.592728 0.888766 -0.222964
C35   C     C_R   0.531455 0.578004 0.049766 0.071924
C36   C     C_3   0.820963 0.807961 0.521147 -0.238781
C37   C     C_3   0.178916 0.191362 0.479254 -0.233940
C38   C     C_3   0.186989 0.919446 0.480217 -0.336715
C39   C     C_3   0.813209 0.080612 0.520019 -0.333152
C40   C     C_R   0.746835 0.580067 0.073156 -0.235331
C41   C     C_R   0.279059 0.595832 0.925633 -0.233070
C42   C     C_R   0.545376 0.813424 0.506497 -0.275139
C43   C     C_R   0.454788 0.186526 0.493708 -0.277078
C44   C     C_R   0.368780 0.021756 0.531131 0.487617
H1    H     H_    0.844738 0.585418 0.121343 0.141624
H2    H     H_    0.819763 0.510337 0.816245 0.152043
H3    H     H_    0.891652 0.548979 0.986422 0.128709
H4    H     H_    0.127419 0.579050 0.012463 0.128685
H5    H     H_    0.696796 0.599010 0.186063 0.143942
H6    H     H_    0.333055 0.604914 0.812304 0.152816
H7    H     H_    0.412691 0.821484 0.564343 0.225344
H8    H     H_    0.587536 0.178434 0.435932 0.225906
H9    H     H_    0.770841 0.580229 0.396622 0.141809
H10   H     H_    0.229192 0.419984 0.603478 0.148432
H11   H     H_    0.818939 0.788355 0.591723 0.135540
H12   H     H_    0.183305 0.606560 0.876985 0.145863
H13   H     H_    0.881032 0.880275 0.525659 0.171778
H14   H     H_    0.864636 0.743909 0.505011 0.176477
H15   H     H_    0.118721 0.119627 0.476553 0.172397
H16   H     H_    0.180090 0.208696 0.408091 0.134616
H17   H     H_    0.135955 0.256661 0.494340 0.177471
H18   H     H_    0.106740 0.900984 0.497835 0.193488
H19   H     H_    0.212149 0.844619 0.463360 0.177095
H20   H     H_    0.155589 0.971261 0.414934 0.137834
H21   H     H_    0.788464 0.156101 0.535976 0.177471
H22   H     H_    0.893949 0.097883 0.502818 0.193348
H23   H     H_    0.848806 0.379760 0.639532 0.130597
H24   H     H_    0.843728 0.029456 0.585738 0.136256
H25   H     H_    0.151140 0.620067 0.360325 0.127427
H26   H     H_    0.936330 0.631844 0.340181 0.146258
H27   H     H_    0.063605 0.368083 0.659653 0.154350
H28   H     H_    0.564909 0.523258 0.228256 0.157980
H29   H     H_    0.442616 0.515752 0.773943 0.158725
H30   H     H_    0.187825 0.538207 0.183172 0.150021
N1    N     N_R   0.799120 0.480200 0.517090 -0.095686
N2    N     N_R   0.200880 0.519800 0.482910 -0.095827
O1    O     O_R   0.580150 0.341050 0.504560 -0.630142
O2    O     O_3   0.298329 0.183215 0.554544 -0.575711
O3    O     O_3   0.285830 0.966529 0.560588 -0.585369
O4    O     O_3   0.714418 0.033390 0.439696 -0.584524
O5    O     O_R   0.419850 0.658950 0.495440 -0.632005
O6    O     O_R   0.388090 0.353760 0.493600 -0.576795
O7    O     O_R   0.611910 0.646240 0.506400 -0.579261
O8    O     O_R   0.650890 0.490020 0.640860 -0.629873
O9    O     O_R   0.349110 0.509980 0.359140 -0.629267
O10   O     O_R   0.458830 0.502730 0.629890 -0.620165
O11   O     O_R   0.541170 0.497270 0.370110 -0.619510
O12   O     O_3   0.701857 0.816799 0.445635 -0.574845
Zn1   Zn    Zn3+2 0.628240 0.491510 0.507320 0.947246
Zn2   Zn    Zn3+2 0.371760 0.508490 0.492680 0.947001

loop_
_geom_bond_atom_site_label_1
_geom_bond_atom_site_label_2
_ccdc_geom_bond_type
C15   N1    A    
C21   C26   A    
C20   C25   A    
C27   C29   A    
C1    O1    A    
C39   H24   S    
C14   C18   A    
C2    C7    A    
C7    C8    A    
C36   O12   S    
C15   C19   A    
O1    Zn1   S    
C30   C35   A    
C17   O9    A    
C15   H9    S    
C24   C26   A    
C36   H14   S    
C11   N2    A    
C23   H5    S    
C38   O3    S    
C23   C40   A    
C29   C33   A    
C16   O8    A    
C31   C40   A    
C18   C19   A    
C12   C42   S    
C33   C35   A    
C1    C43   S    
C13   N1    A    
C22   C25   A    
C32   C41   A    
C5    H8    S    
C6    H7    S    
C10   H27   S    
C22   H3    S    
C5    C43   A    
C16   O10   A    
C39   H21   S    
C28   H28   S    
C34   C41   A    
C9    C19   A    
C38   H20   S    
C40   H1    S    
O7    Zn1   S    
C3    C44   A    
C34   H6    S    
C22   C31   A    
C24   H4    S    
C9    H26   S    
C36   H13   S    
O10   Zn2   S    
C5    C7    A    
C6    C8    A    
C1    O6    A    
C17   C21   S    
C12   O7    A    
C14   N2    A    
C2    C4    A    
C24   C32   A    
C41   H12   S    
C16   C20   S    
C3    C43   A    
C33   C34   A    
C9    C11   A    
C37   H15   S    
O5    Zn2   S    
C14   H10   S    
C21   C28   A    
C23   C35   A    
O11   Zn1   S    
C39   H22   S    
O8    Zn1   S    
C38   H19   S    
C13   H23   S    
C17   O11   A    
C44   O3    S    
C8    C44   A    
C10   C13   A    
C37   H17   S    
O9    Zn2   S    
C11   H25   S    
C4    O12   S    
C20   C27   A    
C37   O2    S    
O6    Zn2   S    
C39   O4    S    
C28   C30   A    
C29   C31   A    
C36   H11   S    
C30   C32   A    
C4    C42   A    
C10   C18   A    
C26   H30   S    
C12   O5    A    
C37   H16   S    
C2    O4    S    
N1    Zn1   S    
C6    C42   A    
C27   H29   S    
C3    O2    S    
C25   H2    S    
N2    Zn2   S    
C38   H18   S    
