data_mof_unit_59981.cif
_audit_creation_date              2012-12-10T18:57:49-0500
_audit_creation_method            fapswitch 2.2
_symmetry_space_group_name_H-M    P1
_symmetry_Int_Tables_number       1
_space_group_crystal_system       triclinic
_cell_length_a                    10.634578
_cell_length_b                    9.899575
_cell_length_c                    8.922697
_cell_angle_alpha                 89.999007
_cell_angle_beta                  91.872216
_cell_angle_gamma                 90.00233
_cell_volume                      938.86047784

loop_
_atom_site_label
_atom_site_type_symbol
_atom_type_description
_atom_site_fract_x
_atom_site_fract_y
_atom_site_fract_z
_atom_type_partial_charge
C1    C     C_R   0.260753 0.500470 0.518223 0.921659
C2    C     C_R   0.062130 0.626673 0.525525 0.132927
C3    C     C_R   0.873509 0.502676 0.463501 -0.226523
C4    C     C_R   0.126502 0.502662 0.536560 -0.226514
C5    C     C_R   0.571551 0.072711 0.604135 0.190731
C6    C     C_R   0.428256 0.927558 0.396150 0.196628
C7    C     C_R   0.428453 0.072709 0.395861 0.190691
C8    C     C_R   0.571737 0.927562 0.603856 0.196760
C9    C     C_3   0.771971 0.138404 0.732271 -0.652234
C10   C     C_3   0.396687 0.852136 0.138956 -0.739210
C11   C     C_3   0.228059 0.138440 0.267750 -0.652150
C12   C     C_R   0.739252 0.500476 0.481796 0.921667
C13   C     C_3   0.603239 0.852187 0.861072 -0.739358
C14   C     C_R   0.499496 0.499969 0.218738 0.934662
C15   C     C_R   0.500507 0.499967 0.781262 0.934672
C16   C     C_1   0.499849 0.499837 0.065376 -0.197886
C17   C     C_1   0.500157 0.499835 0.934624 -0.197862
C18   C     C_R   0.061102 0.380125 0.528132 0.115729
C19   C     C_R   0.937892 0.626684 0.474604 0.132908
C20   C     C_R   0.938898 0.380133 0.471896 0.115772
H1    H     H_    0.590328 0.154817 0.818700 0.226207
H2    H     H_    0.198983 0.088317 0.160847 0.228427
H3    H     H_    0.188061 0.241916 0.267173 0.262038
H4    H     H_    0.188491 0.080988 0.361795 0.268514
H5    H     H_    0.742357 0.867363 0.702783 0.250522
H6    H     H_    0.631858 0.945371 0.921753 0.219343
H7    H     H_    0.645688 0.764958 0.922322 0.252036
H8    H     H_    0.499226 0.842168 0.860479 0.256614
H9    H     H_    0.800980 0.088230 0.839162 0.228487
H10   H     H_    0.812016 0.241867 0.732920 0.262015
H11   H     H_    0.811548 0.080978 0.638217 0.268576
H12   H     H_    0.257602 0.867356 0.297285 0.250520
H13   H     H_    0.367829 0.945191 0.078139 0.219337
H14   H     H_    0.354404 0.764722 0.077846 0.252069
H15   H     H_    0.500731 0.842379 0.139531 0.256492
H16   H     H_    0.409669 0.154514 0.181185 0.226072
I1    I     I_    0.127356 0.206497 0.648663 -0.334926
I2    I     I_    0.861914 0.809697 0.379493 -0.318821
I3    I     I_    0.872629 0.206522 0.351344 -0.334899
I4    I     I_    0.138147 0.809646 0.620705 -0.318820
N1    N     N_R   0.500000 0.857200 0.500000 -0.115809
N2    N     N_R   0.500000 0.142800 0.500000 -0.117615
N3    N     N_2   0.636211 0.147125 0.719101 -0.269325
N4    N     N_2   0.353119 0.853229 0.290575 -0.242743
N5    N     N_2   0.363827 0.147118 0.280864 -0.269165
N6    N     N_2   0.646837 0.853234 0.709466 -0.242717
O1    O     O_R   0.316770 0.614620 0.499990 -0.586631
O2    O     O_R   0.683230 0.385380 0.500010 -0.579378
O3    O     O_R   0.683230 0.614620 0.500010 -0.586637
O4    O     O_R   0.316770 0.385380 0.499990 -0.579405
O5    O     O_R   0.500010 0.614640 0.285340 -0.594581
O6    O     O_R   0.499990 0.385360 0.714660 -0.607210
O7    O     O_R   0.499990 0.614640 0.714660 -0.594570
O8    O     O_R   0.500010 0.385360 0.285340 -0.607069
Zn1   Zn    Zn3+2 0.500000 0.653120 0.500000 1.009817
Zn2   Zn    Zn3+2 0.500000 0.346880 0.500000 1.010166

loop_
_geom_bond_atom_site_label_1
_geom_bond_atom_site_label_2
_ccdc_geom_bond_type
C5    C8    A    
C2    C4    A    
C5    N2    A    
C13   H8    S    
C3    C19   A    
C6    C7    A    
C19   I2    S    
C2    I4    S    
O4    Zn2   S    
C1    O4    A    
C11   H2    S    
C18   C20   A    
C14   O5    A    
O2    Zn2   S    
C9    H9    S    
C12   O2    A    
C1    C4    S    
C4    C18   A    
C12   O3    A    
H12   N4    S    
H16   N5    S    
C10   H14   S    
C6    N4    S    
C15   O6    A    
C10   H15   S    
C9    H10   S    
C7    N5    S    
C11   H3    S    
C14   O8    A    
C18   I1    S    
C10   H13   S    
C14   C16   S    
O7    Zn1   S    
C5    N3    S    
C13   N6    S    
O8    Zn2   S    
C13   H6    S    
C11   N5    S    
C9    N3    S    
C9    H11   S    
C10   N4    S    
C15   O7    A    
C11   H4    S    
C3    C20   A    
C8    N1    A    
O1    Zn1   S    
O5    Zn1   S    
C7    N2    A    
C15   C17   S    
C20   I3    S    
C13   H7    S    
C3    C12   S    
C8    N6    S    
N2    Zn2   S    
C2    C19   A    
H1    N3    S    
H5    N6    S    
C6    N1    A    
N1    Zn1   S    
O6    Zn2   S    
C1    O1    A    
C16   C17   T    
O3    Zn1   S    
