data_mof_unit_37136.cif
_audit_creation_date              2012-12-10T17:55:03-0500
_audit_creation_method            fapswitch 2.2
_symmetry_space_group_name_H-M    P1
_symmetry_Int_Tables_number       1
_space_group_crystal_system       triclinic
_cell_length_a                    8.730676
_cell_length_b                    10.934684
_cell_length_c                    9.520829
_cell_angle_alpha                 90.009549
_cell_angle_beta                  97.937371
_cell_angle_gamma                 90.260718
_cell_volume                      900.209238764

loop_
_atom_site_label
_atom_site_type_symbol
_atom_type_description
_atom_site_fract_x
_atom_site_fract_y
_atom_site_fract_z
_atom_type_partial_charge
C1    C     C_R   0.499579 0.261958 0.500090 0.858033
C2    C     C_R   0.500444 0.738039 0.500286 0.858960
C3    C     C_R   0.203741 0.499976 0.463715 0.883572
C4    C     C_R   0.796260 0.500088 0.536285 0.883555
C5    C     C_2   0.037905 0.500016 0.443721 -0.338797
C6    C     C_2   0.962098 0.500152 0.556282 -0.339553
C7    C     C_R   0.483757 0.062095 0.371999 0.139823
C8    C     C_R   0.484814 0.937381 0.626760 0.133007
C9    C     C_R   0.516508 0.937823 0.376192 0.139163
C10   C     C_R   0.515107 0.062675 0.630583 0.133107
C11   C     C_R   0.500755 0.871962 0.501160 -0.234483
C12   C     C_R   0.499312 0.128029 0.500923 -0.235769
C13   C     C_R   0.378449 0.451829 0.058833 0.028896
C14   C     C_R   0.620977 0.549146 0.940971 0.031664
C15   C     C_R   0.379079 0.450850 0.910312 0.029286
C16   C     C_R   0.621503 0.548155 0.089636 0.027292
Cu1   Cu    Cu3+1 0.500000 0.500020 0.640660 0.997453
Cu2   Cu    Cu3+1 0.500000 0.499980 0.359340 0.998434
H1    H     H_    0.977967 0.499900 0.335738 0.171250
H2    H     H_    0.022040 0.500285 0.664265 0.171614
H3    H     H_    0.280869 0.413006 0.101956 0.139613
H4    H     H_    0.717573 0.589466 0.897635 0.133474
H5    H     H_    0.282531 0.410433 0.842540 0.129940
H6    H     H_    0.719053 0.587051 0.157440 0.135914
N1    N     N_R   0.500040 0.500030 0.852080 -0.166634
N2    N     N_R   0.499960 0.499970 0.147920 -0.167295
O1    O     O_R   0.499990 0.319660 0.618740 -0.560463
O2    O     O_R   0.500010 0.680340 0.381260 -0.557630
O3    O     O_R   0.499990 0.319630 0.381170 -0.557963
O4    O     O_R   0.500010 0.680370 0.618830 -0.560321
O5    O     O_R   0.274840 0.500010 0.591370 -0.587951
O6    O     O_R   0.725160 0.499990 0.408630 -0.588178
O7    O     O_R   0.274830 0.499980 0.353800 -0.595017
O8    O     O_R   0.725170 0.500020 0.646200 -0.594727
I1    I     I_    0.384832 0.134666 0.170460 -0.245365
I2    I     I_    0.392627 0.860702 0.806018 -0.223736
I3    I     I_    0.615757 0.865138 0.199907 -0.249659
I4    I     I_    0.607196 0.139417 0.833194 -0.220506

loop_
_geom_bond_atom_site_label_1
_geom_bond_atom_site_label_2
_ccdc_geom_bond_type
C5    H1    S    
C6    H2    S    
Cu2   N2    S    
C10   I4    S    
C2    O4    A    
Cu1   N1    S    
C14   H4    S    
C9    I3    S    
Cu1   Cu2   S    
C13   H3    S    
C16   H6    S    
Cu2   O3    S    
C3    O5    A    
Cu1   O4    S    
C9    C11   A    
C1    O3    A    
C4    O6    A    
C1    C12   S    
C10   C12   A    
C8    C11   A    
C2    C11   S    
C15   H5    S    
C4    O8    A    
C13   C15   A    
C14   N1    A    
C16   N2    A    
C5    C6    D    
Cu1   O5    S    
Cu2   O7    S    
C14   C16   A    
C13   N2    A    
C15   N1    A    
Cu2   O6    S    
Cu1   O8    S    
C3    O7    A    
Cu1   O1    S    
C7    C9    A    
Cu2   O2    S    
C4    C6    S    
C8    I2    S    
C1    O1    A    
C2    O2    A    
C7    C12   A    
C7    I1    S    
C8    C10   A    
C3    C5    S    
