data_mof_unit_37807.cif
_audit_creation_date              2012-12-10T17:28:31-0500
_audit_creation_method            fapswitch 2.2
_symmetry_space_group_name_H-M    P1
_symmetry_Int_Tables_number       1
_space_group_crystal_system       triclinic
_cell_length_a                    10.717023
_cell_length_b                    11.971775
_cell_length_c                    12.896333
_cell_angle_alpha                 93.230896
_cell_angle_beta                  92.015566
_cell_angle_gamma                 85.77914
_cell_volume                      1646.71211892

loop_
_atom_site_label
_atom_site_type_symbol
_atom_type_description
_atom_site_fract_x
_atom_site_fract_y
_atom_site_fract_z
_atom_type_partial_charge
C1    C     C_R   0.494360 0.521772 0.700267 0.859262
C2    C     C_R   0.473061 0.559448 0.132108 -0.308314
C3    C     C_R   0.500110 0.445093 0.974084 0.086228
C4    C     C_R   0.473359 0.552490 0.025000 0.085743
C5    C     C_R   0.416521 0.951547 0.379876 -0.333042
C6    C     C_R   0.585498 0.048236 0.619387 -0.332860
C7    C     C_R   0.421842 0.835916 0.393638 0.025394
C8    C     C_R   0.581608 0.163774 0.605024 0.028596
C9    C     C_R   0.530665 0.860061 0.555599 -0.048528
C10   C     C_R   0.468308 0.140035 0.444950 -0.048106
C11   C     C_R   0.529251 0.976890 0.544554 0.097021
C12   C     C_R   0.502214 0.478028 0.299530 0.859963
C13   C     C_R   0.470644 0.023139 0.455659 0.096848
C14   C     C_R   0.738906 0.501673 0.513699 0.857974
C15   C     C_R   0.260298 0.499176 0.488986 0.863433
C16   C     C_R   0.900548 0.548207 0.706908 0.163433
C17   C     C_R   0.092683 0.507011 0.298031 0.159784
C18   C     C_R   0.979071 0.523423 0.793456 -0.121887
C19   C     C_R   0.022838 0.462473 0.213352 -0.154039
C20   C     C_R   0.104739 0.493233 0.781809 -0.206768
C21   C     C_R   0.905226 0.426610 0.227408 -0.196639
C22   C     C_R   0.154270 0.489190 0.684023 -0.140160
C23   C     C_R   0.499766 0.464598 0.188226 -0.100214
C24   C     C_R   0.853688 0.440491 0.324715 -0.144034
C25   C     C_R   0.076507 0.503670 0.593731 0.068609
C26   C     C_R   0.924787 0.478924 0.413008 0.072047
C27   C     C_R   0.946207 0.521110 0.603845 0.000394
C28   C     C_R   0.050657 0.498079 0.401587 0.036941
C29   C     C_R   0.127117 0.502601 0.493762 -0.174792
C30   C     C_R   0.871591 0.502023 0.511522 -0.175417
C31   C     C_3   0.778116 0.613439 0.732497 -0.443627
C32   C     C_3   0.797213 0.723980 0.794867 -0.866433
C33   C     C_3   0.184498 0.589720 0.270968 -0.445231
C34   C     C_R   0.484430 0.534254 0.811188 -0.114223
C35   C     C_3   0.131147 0.709851 0.295411 -0.825106
C36   C     C_3   0.418576 0.765679 0.023147 -0.426772
C37   C     C_3   0.392316 0.864709 0.953542 -0.892622
C38   C     C_3   0.550562 0.231178 0.975671 -0.424721
C39   C     C_3   0.571982 0.131403 0.045001 -0.894540
C40   C     C_R   0.449397 0.650779 0.968076 0.171374
C41   C     C_R   0.523988 0.346725 0.030880 0.168721
C42   C     C_R   0.456250 0.639181 0.860166 -0.188101
C43   C     C_R   0.523783 0.359160 0.138951 -0.211346
C44   C     C_R   0.504317 0.438603 0.867222 -0.311886
H1    H     H_    0.849989 0.395949 0.161304 0.152302
H2    H     H_    0.525803 0.358740 0.826295 0.166415
H3    H     H_    0.543468 0.287785 0.186040 0.176589
H4    H     H_    0.440399 0.710932 0.813025 0.177702
H5    H     H_    0.421936 0.177223 0.377949 0.123690
H6    H     H_    0.576232 0.822953 0.622949 0.122451
H7    H     H_    0.624276 0.218626 0.663303 0.126602
H8    H     H_    0.384217 0.780536 0.333586 0.133311
H9    H     H_    0.837369 0.709047 0.873783 0.257856
H10   H     H_    0.859930 0.775125 0.753437 0.266240
H11   H     H_    0.705437 0.772478 0.804061 0.242100
H12   H     H_    0.165335 0.478538 0.849413 0.152563
H13   H     H_    0.723754 0.638808 0.663873 0.241792
H14   H     H_    0.723162 0.560607 0.778608 0.204829
H15   H     H_    0.034057 0.722162 0.262804 0.263774
H16   H     H_    0.130642 0.728643 0.380703 0.272500
H17   H     H_    0.188426 0.769794 0.259460 0.225041
H18   H     H_    0.274570 0.573986 0.310599 0.225272
H19   H     H_    0.204738 0.581511 0.186758 0.199027
H20   H     H_    0.476055 0.877715 0.908512 0.253211
H21   H     H_    0.310687 0.850755 0.900126 0.264871
H22   H     H_    0.369807 0.942237 0.002718 0.256134
H23   H     H_    0.372101 0.984299 0.310033 0.143016
H24   H     H_    0.334223 0.760773 0.070023 0.203906
H25   H     H_    0.498293 0.785944 0.076698 0.211659
H26   H     H_    0.655841 0.140939 0.096958 0.260608
H27   H     H_    0.488245 0.122900 0.091544 0.256866
H28   H     H_    0.588661 0.053146 0.995507 0.256640
H29   H     H_    0.470060 0.213760 0.921947 0.210827
H30   H     H_    0.635541 0.233172 0.928992 0.202727
H31   H     H_    0.631652 0.015183 0.688430 0.143851
H32   H     H_    0.944208 0.533642 0.871514 0.139273
H33   H     H_    0.054720 0.464004 0.134664 0.129891
H34   H     H_    0.253897 0.471332 0.680506 0.158897
H35   H     H_    0.758181 0.419214 0.329318 0.161322
H36   H     H_    0.452734 0.639346 0.173364 0.164408
N1    N     N_R   0.523130 0.207800 0.519340 -0.099303
N2    N     N_R   0.476870 0.792200 0.480660 -0.096619
O1    O     O_R   0.506170 0.421700 0.658830 -0.635447
O2    O     O_R   0.493830 0.578300 0.341170 -0.634549
O3    O     O_R   0.491330 0.609310 0.646410 -0.636889
O4    O     O_R   0.508670 0.390690 0.353590 -0.635790
O5    O     O_R   0.690650 0.406190 0.506220 -0.614256
O6    O     O_R   0.309350 0.593810 0.493780 -0.611090
O7    O     O_R   0.675800 0.593810 0.493800 -0.614242
O8    O     O_R   0.324200 0.406190 0.506200 -0.614710
Zn1   Zn    Zn3+2 0.509910 0.374730 0.508290 0.936181
Zn2   Zn    Zn3+2 0.490090 0.625270 0.491710 0.936194

loop_
_geom_bond_atom_site_label_1
_geom_bond_atom_site_label_2
_ccdc_geom_bond_type
O5    Zn1   S    
C34   C42   A    
C20   H12   S    
N2    Zn2   S    
C6    H31   S    
C16   C31   S    
C12   C23   S    
C31   H14   S    
C36   C37   S    
C19   C21   A    
C24   C26   A    
C7    H8    S    
O4    Zn1   S    
C38   C39   S    
C23   C43   A    
C12   O2    A    
C35   H15   S    
C19   H33   S    
C17   C19   A    
C3    C41   A    
O6    Zn2   S    
C33   H18   S    
C22   C25   A    
C37   H21   S    
C39   H28   S    
C32   H11   S    
C5    C13   A    
C5    H23   S    
C9    N2    A    
C16   C27   A    
C40   C42   A    
C27   C30   A    
C1    O3    A    
C41   C43   A    
C17   C33   S    
C14   C30   S    
C32   H10   S    
O3    Zn2   S    
C44   H2    S    
C1    C34   S    
C15   C29   S    
C21   H1    S    
C25   C29   A    
C3    C44   A    
C8    N1    A    
C4    C40   A    
C36   C40   S    
C34   C44   A    
C22   H34   S    
C38   C41   S    
C6    C11   A    
C5    C7    A    
C6    C8    A    
C35   H16   S    
C2    C4    A    
C14   O7    A    
C24   H35   S    
C31   C32   S    
C33   H19   S    
C37   H22   S    
C35   H17   S    
C42   H4    S    
O7    Zn2   S    
C9    C11   A    
C8    H7    S    
C20   C22   A    
C26   C30   A    
C1    O1    A    
C3    C4    A    
C32   H9    S    
C37   H20   S    
C36   H25   S    
C38   H30   S    
C28   C29   A    
C18   H32   S    
C17   C28   A    
C9    H6    S    
C10   C13   A    
C14   O5    A    
C36   H24   S    
C25   C27   A    
O1    Zn1   S    
C10   N1    A    
C26   C28   A    
C12   O4    A    
C31   H13   S    
C15   O8    A    
C11   C13   A    
O8    Zn1   S    
C33   C35   S    
C39   H26   S    
C18   C20   A    
C2    H36   S    
N1    Zn1   S    
C7    N2    A    
C16   C18   A    
C21   C24   A    
C2    C23   A    
C39   H27   S    
O2    Zn2   S    
C10   H5    S    
C43   H3    S    
C15   O6    A    
C38   H29   S    
