data_mof_unit_11905.cif
_audit_creation_date              2012-12-11T14:07:20-0500
_audit_creation_method            fapswitch 2.2
_symmetry_space_group_name_H-M    P1
_symmetry_Int_Tables_number       1
_space_group_crystal_system       triclinic
_cell_length_a                    19.804385
_cell_length_b                    17.124157
_cell_length_c                    15.390829
_cell_angle_alpha                 89.998117
_cell_angle_beta                  53.49033
_cell_angle_gamma                 89.995244
_cell_volume                      4195.2422977

loop_
_atom_site_label
_atom_site_type_symbol
_atom_type_description
_atom_site_fract_x
_atom_site_fract_y
_atom_site_fract_z
_atom_type_partial_charge
C1    C     C_R   0.377889 0.197537 0.992567 0.598873
C2    C     C_R   0.377866 0.802479 0.992607 0.598872
C3    C     C_R   0.877886 0.697531 0.992576 0.598862
C4    C     C_R   0.877877 0.302478 0.992597 0.598863
C5    C     C_R   0.663869 0.911102 0.060580 -0.139040
C6    C     C_R   0.663806 0.088947 0.060696 -0.139030
C7    C     C_R   0.163902 0.411126 0.060513 -0.139059
C8    C     C_R   0.163826 0.588935 0.060658 -0.139094
C9    C     C_R   0.703902 0.153014 0.992600 0.158129
C10   C     C_R   0.703998 0.847068 0.992426 0.158117
C11   C     C_R   0.203953 0.652965 0.992500 0.158105
C12   C     C_R   0.204045 0.347113 0.992322 0.158031
C13   C     C_R   0.612858 0.818447 0.694460 0.027901
C14   C     C_R   0.612869 0.181553 0.694455 0.027830
C15   C     C_R   0.112854 0.318447 0.694460 0.027945
C16   C     C_R   0.112866 0.681552 0.694456 0.027902
C17   C     C_3   0.199010 0.135229 0.517388 -0.513489
C18   C     C_3   0.199031 0.864772 0.517394 -0.513482
C19   C     C_3   0.699020 0.635227 0.517393 -0.513486
C20   C     C_3   0.699022 0.364773 0.517391 -0.513481
C21   C     C_3   0.142259 0.182576 0.622055 -0.382200
C22   C     C_3   0.142285 0.817425 0.622058 -0.382240
C23   C     C_3   0.642267 0.682574 0.622059 -0.382212
C24   C     C_3   0.642274 0.317426 0.622056 -0.382225
C25   C     C_3   0.311596 0.239983 0.444222 0.685818
C26   C     C_3   0.311608 0.759997 0.444214 0.685834
C27   C     C_3   0.811599 0.739992 0.444213 0.685816
C28   C     C_3   0.811610 0.260006 0.444215 0.685831
C29   C     C_3   0.701263 0.746437 0.409588 -0.381324
C30   C     C_3   0.701281 0.253565 0.409580 -0.381342
C31   C     C_3   0.201273 0.246447 0.409579 -0.381324
C32   C     C_3   0.201277 0.753573 0.409586 -0.381343
C33   C     C_3   0.257839 0.191290 0.420957 0.198321
C34   C     C_3   0.257853 0.808710 0.420959 0.198322
C35   C     C_3   0.757841 0.691289 0.420958 0.198331
C36   C     C_3   0.757850 0.308711 0.420956 0.198325
C37   C     C_3   0.661435 0.770889 0.596866 0.278622
C38   C     C_3   0.661446 0.229110 0.596861 0.278623
C39   C     C_3   0.161432 0.270890 0.596865 0.278605
C40   C     C_3   0.161445 0.729110 0.596863 0.278585
C41   C     C_3   0.754706 0.786815 0.547583 -0.513345
C42   C     C_3   0.754718 0.213177 0.547578 -0.513327
C43   C     C_3   0.254703 0.286810 0.547589 -0.513355
C44   C     C_3   0.254713 0.713167 0.547575 -0.513338
C45   C     C_R   0.354093 0.824317 0.218641 -0.011403
C46   C     C_R   0.354084 0.175682 0.218638 -0.011373
C47   C     C_R   0.854090 0.324319 0.218640 -0.011402
C48   C     C_R   0.854086 0.675683 0.218639 -0.011381
C49   C     C_3   0.644310 0.793770 0.513701 -0.382059
C50   C     C_3   0.644324 0.206237 0.513694 -0.382062
C51   C     C_3   0.144315 0.293777 0.513695 -0.382073
C52   C     C_3   0.144315 0.706248 0.513703 -0.382061
C53   C     C_2   0.272846 0.693825 0.978530 -0.375916
C54   C     C_2   0.273007 0.306287 0.978264 -0.375941
C55   C     C_2   0.772784 0.193872 0.978638 -0.376005
C56   C     C_2   0.772905 0.806217 0.978444 -0.375933
C57   C     C_2   0.812500 0.252011 0.906956 0.767254
C58   C     C_2   0.812576 0.748030 0.906838 0.767177
C59   C     C_2   0.312513 0.752005 0.906922 0.767189
C60   C     C_2   0.312609 0.248038 0.906760 0.767119
C61   C     C_R   0.366439 0.888490 0.895739 -0.167950
C62   C     C_R   0.366470 0.111531 0.895698 -0.167881
C63   C     C_R   0.866456 0.388488 0.895724 -0.168018
C64   C     C_R   0.866470 0.611527 0.895703 -0.167981
C65   C     C_R   0.365912 0.087703 0.316452 -0.138879
C66   C     C_R   0.365920 0.912293 0.316452 -0.138876
C67   C     C_R   0.865914 0.587703 0.316451 -0.138889
C68   C     C_R   0.865916 0.412295 0.316452 -0.138861
C69   C     C_R   0.349838 0.187822 0.930923 -0.208778
C70   C     C_R   0.349790 0.812212 0.931000 -0.208766
C71   C     C_R   0.849838 0.687812 0.930939 -0.208749
C72   C     C_R   0.849814 0.312211 0.930983 -0.208727
C73   C     C_R   0.316658 0.852552 0.322033 -0.012619
C74   C     C_R   0.316645 0.147446 0.322031 -0.012624
C75   C     C_R   0.816653 0.352555 0.322032 -0.012632
C76   C     C_R   0.816647 0.647446 0.322032 -0.012642
C77   C     C_R   0.656223 0.181663 0.961311 -0.036323
C78   C     C_R   0.656295 0.818407 0.961177 -0.036488
C79   C     C_R   0.156275 0.681603 0.961201 -0.036427
C80   C     C_R   0.156324 0.318449 0.961104 -0.036539
C81   C     C_R   0.603285 0.802412 0.789279 -0.077423
C82   C     C_R   0.603292 0.197587 0.789276 -0.077314
C83   C     C_R   0.103279 0.302410 0.789280 -0.077511
C84   C     C_R   0.103286 0.697587 0.789278 -0.077421
C85   C     C_R   0.594854 0.103988 0.694893 -0.128687
C86   C     C_R   0.594849 0.896015 0.694896 -0.128669
C87   C     C_R   0.094856 0.603987 0.694892 -0.128669
C88   C     C_R   0.094848 0.396016 0.694895 -0.128663
H1    H     H_    0.159767 0.100657 0.501575 0.202118
H2    H     H_    0.159785 0.899356 0.501590 0.202122
H3    H     H_    0.659779 0.600646 0.501585 0.202109
H4    H     H_    0.659777 0.399354 0.501583 0.202112
H5    H     H_    0.575055 0.670775 0.658537 0.193193
H6    H     H_    0.575061 0.329230 0.658538 0.193173
H7    H     H_    0.075047 0.170782 0.658532 0.193204
H8    H     H_    0.075074 0.829235 0.658550 0.193203
H9    H     H_    0.154244 0.162849 0.680523 0.167757
H10   H     H_    0.154282 0.837135 0.680514 0.167759
H11   H     H_    0.654253 0.662851 0.680528 0.167742
H12   H     H_    0.654263 0.337145 0.680522 0.167744
H13   H     H_    0.351256 0.200677 0.454375 0.011816
H14   H     H_    0.351271 0.799290 0.454368 0.011815
H15   H     H_    0.851270 0.700692 0.454354 0.011813
H16   H     H_    0.851270 0.299305 0.454368 0.011806
H17   H     H_    0.768204 0.770416 0.605919 0.155211
H18   H     H_    0.768213 0.229564 0.605918 0.155204
H19   H     H_    0.268195 0.270413 0.605930 0.155215
H20   H     H_    0.268211 0.729545 0.605911 0.155201
H21   H     H_    0.739455 0.788339 0.341948 0.195335
H22   H     H_    0.739479 0.211659 0.341946 0.195345
H23   H     H_    0.239473 0.288351 0.341946 0.195345
H24   H     H_    0.239471 0.711666 0.341952 0.195344
H25   H     H_    0.662503 0.711988 0.392862 0.165510
H26   H     H_    0.662523 0.288014 0.392843 0.165505
H27   H     H_    0.162516 0.212006 0.392840 0.165518
H28   H     H_    0.162524 0.788027 0.392848 0.165511
H29   H     H_    0.577191 0.783339 0.548481 0.177544
H30   H     H_    0.577207 0.216678 0.548470 0.177546
H31   H     H_    0.077198 0.283347 0.548468 0.177550
H32   H     H_    0.077202 0.716701 0.548484 0.177570
H33   H     H_    0.658104 0.856490 0.491524 0.163863
H34   H     H_    0.658116 0.143517 0.491519 0.163858
H35   H     H_    0.158110 0.356496 0.491523 0.163858
H36   H     H_    0.158094 0.643529 0.491534 0.163850
H37   H     H_    0.336713 0.774010 0.194123 0.155579
H38   H     H_    0.336699 0.225988 0.194115 0.155537
H39   H     H_    0.836710 0.274012 0.194121 0.155560
H40   H     H_    0.836704 0.725992 0.194117 0.155557
H41   H     H_    0.768885 0.850256 0.530043 0.216113
H42   H     H_    0.768901 0.149736 0.530028 0.216112
H43   H     H_    0.268886 0.350250 0.530044 0.216108
H44   H     H_    0.268888 0.649729 0.530023 0.216105
H45   H     H_    0.279292 0.684506 0.042915 0.173344
H46   H     H_    0.279530 0.315683 0.042568 0.173511
H47   H     H_    0.779216 0.184577 0.043042 0.173307
H48   H     H_    0.779351 0.815540 0.042830 0.173372
H49   H     H_    0.361833 0.914347 0.835305 0.164395
H50   H     H_    0.361890 0.085681 0.835241 0.164419
H51   H     H_    0.861848 0.414346 0.835291 0.164380
H52   H     H_    0.861878 0.585674 0.835258 0.164391
H53   H     H_    0.363043 0.061887 0.382312 0.086283
H54   H     H_    0.363054 0.938105 0.382309 0.086288
H55   H     H_    0.863047 0.561888 0.382310 0.086286
H56   H     H_    0.863048 0.438107 0.382311 0.086281
H57   H     H_    0.664107 0.234540 0.918019 0.158935
H58   H     H_    0.664215 0.765554 0.917832 0.158999
H59   H     H_    0.164193 0.734448 0.917840 0.159024
H60   H     H_    0.164265 0.265625 0.917701 0.159109
H61   H     H_    0.607818 0.746469 0.817855 0.119365
H62   H     H_    0.607834 0.253524 0.817847 0.119363
H63   H     H_    0.107805 0.246466 0.817857 0.119398
H64   H     H_    0.107816 0.753528 0.817853 0.119381
H65   H     H_    0.590232 0.072524 0.637863 0.093854
H66   H     H_    0.590224 0.927483 0.637868 0.093842
H67   H     H_    0.090237 0.572522 0.637859 0.093845
H68   H     H_    0.090224 0.427486 0.637868 0.093837
H69   H     H_    0.680235 0.937807 0.109126 0.110363
H70   H     H_    0.680146 0.062249 0.109277 0.110345
H71   H     H_    0.180292 0.437830 0.109033 0.110358
H72   H     H_    0.180155 0.562264 0.109262 0.110336
H73   H     H_    0.235398 0.093000 0.529319 0.161505
H74   H     H_    0.235423 0.906991 0.529322 0.161498
H75   H     H_    0.735415 0.593006 0.529323 0.161497
H76   H     H_    0.735411 0.406995 0.529322 0.161493
N1    N     N_R   0.408680 0.130160 0.995800 -0.095478
N2    N     N_R   0.408680 0.869840 0.995800 -0.095479
N3    N     N_R   0.908680 0.630160 0.995800 -0.095486
N4    N     N_R   0.908680 0.369840 0.995800 -0.095490
N5    N     N_R   0.421680 0.867580 0.153120 -0.043009
N6    N     N_R   0.421680 0.132420 0.153120 -0.043004
N7    N     N_R   0.921680 0.367580 0.153120 -0.043000
N8    N     N_R   0.921680 0.632420 0.153120 -0.043003
N9    N     N_R   0.403730 0.921770 0.935950 -0.079497
N10   N     N_R   0.403730 0.078230 0.935950 -0.079513
N11   N     N_R   0.903730 0.421770 0.935950 -0.079487
N12   N     N_R   0.903730 0.578230 0.935950 -0.079496
N13   N     N_R   0.426630 0.075970 0.212960 -0.044005
N14   N     N_R   0.426630 0.924030 0.212960 -0.044004
N15   N     N_R   0.926630 0.575970 0.212960 -0.044004
N16   N     N_R   0.926630 0.424030 0.212960 -0.044001
N17   N     N_R   0.591320 0.134600 0.004200 -0.060836
N18   N     N_R   0.591320 0.865400 0.004200 -0.060827
N19   N     N_R   0.091320 0.634600 0.004200 -0.060829
N20   N     N_R   0.091320 0.365400 0.004200 -0.060828
N21   N     N_R   0.578320 0.867660 0.846880 -0.045736
N22   N     N_R   0.578320 0.132340 0.846880 -0.045726
N23   N     N_R   0.078320 0.367660 0.846880 -0.045750
N24   N     N_R   0.078320 0.632340 0.846880 -0.045739
N25   N     N_R   0.573370 0.074390 0.787040 -0.042438
N26   N     N_R   0.573370 0.925610 0.787040 -0.042431
N27   N     N_R   0.073370 0.574390 0.787040 -0.042436
N28   N     N_R   0.073370 0.425610 0.787040 -0.042430
N29   N     N_R   0.596270 0.927870 0.064040 -0.051767
N30   N     N_R   0.596270 0.072130 0.064040 -0.051773
N31   N     N_R   0.096270 0.427870 0.064040 -0.051753
N32   N     N_R   0.096270 0.572130 0.064040 -0.051757
Ni1   Ni    Ni4+2 0.500000 0.131190 0.000000 0.283734
Ni2   Ni    Ni4+2 0.500000 0.868810 0.000000 0.283732
Ni3   Ni    Ni4+2 0.000000 0.631190 0.000000 0.283742
Ni4   Ni    Ni4+2 0.000000 0.368810 0.000000 0.283742
Ni5   Ni    Ni4+2 0.488650 1.000000 0.862740 0.197194
Ni6   Ni    Ni4+2 0.988650 0.500000 0.862740 0.197193
Ni7   Ni    Ni4+2 0.511350 1.000000 0.137260 0.217764
Ni8   Ni    Ni4+2 0.011350 0.500000 0.137260 0.217775
F1    F     F_    0.401796 0.266660 0.009628 -0.730658
F2    F     F_    0.401759 0.733345 0.009673 -0.730593
F3    F     F_    0.901784 0.766658 0.009643 -0.730592
F4    F     F_    0.901769 0.233343 0.009662 -0.730554
F5    F     F_    0.364879 0.290290 0.359048 -0.688681
F6    F     F_    0.364888 0.709692 0.359034 -0.688683
F7    F     F_    0.864869 0.790303 0.359039 -0.688666
F8    F     F_    0.864893 0.209700 0.359037 -0.688663
F9    F     F_    0.807493 0.262551 0.823307 -0.726544
F10   F     F_    0.807560 0.737456 0.823202 -0.726556
F11   F     F_    0.307502 0.762570 0.823280 -0.726568
F12   F     F_    0.307532 0.237394 0.823188 -0.726602

loop_
_geom_bond_atom_site_label_1
_geom_bond_atom_site_label_2
_ccdc_geom_bond_type
C61   C70   A    
N4    N11   A    
C23   H11   S    
C22   H10   S    
C77   H57   S    
C51   H35   S    
C48   C76   A    
C39   C51   S    
N18   Ni2   S    
C46   C74   A    
N17   Ni1   S    
C25   C43   S    
C6    C9    A    
C52   H36   S    
C53   C59   D    
C3    N3    A    
N21   N26   A    
C54   C60   D    
C68   C75   A    
C66   N14   A    
C34   C73   S    
C41   H17   S    
C51   H31   S    
C82   N22   A    
N24   N27   A    
C88   H68   S    
C45   C73   A    
C38   C42   S    
C24   H6    S    
C64   H52   S    
C59   F11   S    
C58   C71   S    
C14   C38   S    
C85   N25   A    
C54   H46   S    
C13   C81   A    
C16   C84   A    
C23   H5    S    
C65   H53   S    
N8    Ni3   S    
N9    Ni5   S    
C27   F7    S    
C64   C71   A    
C81   N21   A    
C28   H16   S    
C32   C52   S    
C52   H32   S    
C62   N10   A    
C6    H70   S    
C48   N8    A    
C26   C34   S    
C49   H29   S    
C20   C24   S    
C45   H37   S    
N20   Ni4   S    
C50   H34   S    
C13   C86   A    
C16   C87   A    
C77   N17   A    
C81   H61   S    
N13   Ni7   S    
N22   Ni1   S    
C8    N32   A    
C15   C88   A    
C9    C55   S    
N27   Ni6   S    
N21   Ni2   S    
N32   Ni8   S    
C10   C56   S    
C2    N2    A    
C5    N29   A    
C13   C37   S    
C11   C53   S    
C17   H73   S    
C80   N20   A    
C30   C50   S    
C67   H55   S    
C50   H30   S    
N14   Ni7   S    
C37   C41   S    
C47   N7    A    
C28   C42   S    
C83   N23   A    
C85   H65   S    
C17   C33   S    
C61   H49   S    
C31   H27   S    
C56   C58   D    
C56   H48   S    
C6    N30   A    
C4    F4    S    
C83   H63   S    
C44   H20   S    
C10   C78   A    
C7    C12   A    
C35   C76   S    
C86   N26   A    
N6    N13   A    
C26   C44   S    
C18   H2    S    
N12   Ni6   S    
C17   H1    S    
C30   H22   S    
C42   H42   S    
N19   Ni3   S    
C14   C85   A    
C19   C23   S    
C15   C83   A    
N31   Ni8   S    
C21   H7    S    
N24   Ni3   S    
C27   C35   S    
N1    N10   A    
C40   C52   S    
C66   C73   A    
C68   N16   A    
N10   Ni5   S    
C1    C69   A    
C65   C74   A    
C46   N6    A    
C62   C69   A    
C78   N18   A    
C32   C34   S    
C80   H60   S    
C3    C71   A    
C30   C36   S    
N2    Ni2   S    
N7    Ni4   S    
C36   C75   S    
N1    Ni1   S    
C48   H40   S    
C37   C49   S    
C27   C41   S    
C24   C38   S    
C21   C39   S    
C1    N1    A    
C22   C40   S    
C31   C33   S    
N19   N32   A    
C61   N9    A    
C26   F6    S    
N18   N29   A    
C43   H19   S    
C29   C49   S    
C25   F5    S    
N17   N30   A    
C18   C34   S    
C15   C39   S    
N23   N28   A    
C82   H62   S    
C11   C79   A    
C16   C40   S    
C66   H54   S    
C58   F10   S    
N8    N15   A    
C60   C69   S    
C32   H28   S    
C62   H50   S    
C42   H18   S    
C57   F9    S    
C5    H69   S    
C55   C57   D    
C87   H67   S    
N7    N16   A    
C20   H4    S    
C28   F8    S    
C14   C82   A    
C7    N31   A    
C8    H72   S    
C84   H64   S    
N5    N14   A    
C4    C72   A    
C1    F1    S    
C87   N27   A    
C30   H26   S    
C29   H21   S    
C88   N28   A    
C29   H25   S    
C19   H75   S    
N2    N9    A    
N3    Ni3   S    
C32   H24   S    
C18   C22   S    
C22   H8    S    
C46   H38   S    
C19   H3    S    
N4    Ni4   S    
N11   Ni6   S    
C31   C51   S    
N16   Ni8   S    
C45   N5    A    
C79   H59   S    
C24   H12   S    
N26   Ni5   S    
C63   N11   A    
C9    C77   A    
C38   C50   S    
C63   H51   S    
C44   H44   S    
N20   N31   A    
C29   C35   S    
N29   Ni7   S    
C53   H45   S    
N23   Ni4   S    
N25   Ni5   S    
N22   N25   A    
C43   H43   S    
C64   N12   A    
C60   F12   S    
C47   C75   A    
C5    C10   A    
C19   C35   S    
C26   H14   S    
C41   H41   S    
C18   H74   S    
C25   H13   S    
C65   N13   A    
C47   H39   S    
C8    C11   A    
C55   H47   S    
N30   Ni7   S    
C12   C80   A    
C27   H15   S    
C3    F3    S    
C23   C37   S    
C79   N19   A    
C68   H56   S    
C31   H23   S    
C49   H33   S    
C57   C72   S    
C86   H66   S    
C17   C21   S    
N15   Ni8   S    
C84   N24   A    
C21   H9    S    
C78   H58   S    
C59   C70   S    
C20   C36   S    
C4    N4    A    
C33   C74   S    
C40   C44   S    
C7    H71   S    
C63   C72   A    
C28   C36   S    
C39   C43   S    
N28   Ni6   S    
C2    F2    S    
N3    N12   A    
C67   N15   A    
C67   C76   A    
C2    C70   A    
N6    Ni1   S    
C12   C54   S    
C25   C33   S    
N5    Ni2   S    
C20   H76   S    
