data_mof_unit_62366.cif
_audit_creation_date              2012-12-10T19:20:44-0500
_audit_creation_method            fapswitch 2.2
_symmetry_space_group_name_H-M    P1
_symmetry_Int_Tables_number       1
_space_group_crystal_system       triclinic
_cell_length_a                    25.815373
_cell_length_b                    34.579093
_cell_length_c                    21.55552
_cell_angle_alpha                 89.974847
_cell_angle_beta                  126.749055
_cell_angle_gamma                 90.035604
_cell_volume                      15417.9232237

loop_
_atom_site_label
_atom_site_type_symbol
_atom_type_description
_atom_site_fract_x
_atom_site_fract_y
_atom_site_fract_z
_atom_type_partial_charge
C1    C     C_R   0.999895 0.021506 0.000161 0.155247
C2    C     C_R   0.999924 0.978785 0.000200 0.138965
C3    C     C_R   0.499905 0.521516 0.000197 0.152438
C4    C     C_R   0.499935 0.478795 0.000207 0.140864
C5    C     C_R   0.907020 0.134964 0.096342 -0.174965
C6    C     C_R   0.085592 0.860413 0.884788 -0.158512
C7    C     C_R   0.093011 0.134906 0.904239 -0.178173
C8    C     C_R   0.916489 0.859535 0.118200 -0.175706
C9    C     C_R   0.406198 0.634543 0.094873 -0.157536
C10   C     C_R   0.584278 0.359899 0.883200 -0.182409
C11   C     C_R   0.593327 0.634712 0.904815 -0.181174
C12   C     C_R   0.416698 0.359462 0.118327 -0.176283
C13   C     C_R   0.877975 0.171203 0.082603 -0.188479
C14   C     C_R   0.118196 0.825062 0.906787 -0.177783
C15   C     C_R   0.122042 0.171153 0.917804 -0.194670
C16   C     C_R   0.883221 0.824379 0.095696 -0.191267
C17   C     C_R   0.377451 0.670853 0.081521 -0.190093
C18   C     C_R   0.617259 0.324667 0.905293 -0.202606
C19   C     C_R   0.622207 0.670999 0.918187 -0.197983
C20   C     C_R   0.383356 0.324333 0.095857 -0.195363
C21   C     C_R   0.812268 0.176374 0.020877 0.128986
C22   C     C_R   0.183633 0.822823 0.971028 0.117706
C23   C     C_R   0.187766 0.176377 0.979432 0.134902
C24   C     C_R   0.817784 0.822567 0.031199 0.124875
C25   C     C_R   0.311758 0.676238 0.019916 0.125238
C26   C     C_R   0.682747 0.322669 0.969583 0.131966
C27   C     C_R   0.687935 0.676320 0.979711 0.133870
C28   C     C_R   0.317909 0.322555 0.031378 0.124608
C29   C     C_R   0.776329 0.144686 0.973230 -0.196058
C30   C     C_R   0.215732 0.856646 0.013003 -0.195155
C31   C     C_R   0.223743 0.144729 0.027170 -0.193122
C32   C     C_R   0.786392 0.856596 0.989639 -0.195739
C33   C     C_R   0.275551 0.644687 0.971972 -0.192544
C34   C     C_R   0.714483 0.356598 0.011369 -0.191939
C35   C     C_R   0.724065 0.644729 0.027546 -0.189843
C36   C     C_R   0.286575 0.356594 0.989818 -0.194556
C37   C     C_R   0.805481 0.108480 0.987306 -0.167838
C38   C     C_R   0.182959 0.892039 0.990713 -0.177733
C39   C     C_R   0.194610 0.108509 0.013261 -0.167438
C40   C     C_R   0.819851 0.891776 0.012454 -0.178960
C41   C     C_R   0.304406 0.608407 0.985668 -0.171436
C42   C     C_R   0.681320 0.391856 0.988952 -0.178172
C43   C     C_R   0.695086 0.608472 0.013829 -0.165431
C44   C     C_R   0.320109 0.391747 0.012596 -0.179973
C45   C     C_R   0.870656 0.103525 0.049149 0.348692
C46   C     C_R   0.118074 0.893986 0.926177 0.333672
C47   C     C_R   0.129415 0.103507 0.951505 0.352135
C48   C     C_R   0.884724 0.893309 0.077121 0.341394
C49   C     C_R   0.369553 0.603241 0.047417 0.341021
C50   C     C_R   0.616393 0.393570 0.924472 0.345516
C51   C     C_R   0.629889 0.603370 0.952171 0.350268
C52   C     C_R   0.384999 0.393244 0.077230 0.341832
C53   C     C_R   0.224754 0.715431 0.005284 -0.234302
C54   C     C_R   0.774660 0.284527 0.993804 -0.225615
C55   C     C_R   0.775015 0.715465 0.994348 -0.234998
C56   C     C_R   0.225587 0.284537 0.006531 -0.231200
C57   C     C_R   0.725015 0.215474 0.005801 -0.235751
C58   C     C_R   0.275113 0.784515 0.994630 -0.228412
C59   C     C_R   0.274987 0.215479 0.994314 -0.230315
C60   C     C_R   0.725499 0.784521 0.006366 -0.231943
C61   C     C_R   0.195052 0.750690 0.997824 -0.041323
C62   C     C_R   0.804863 0.249280 0.002116 -0.037475
C63   C     C_R   0.805099 0.750673 0.002427 -0.036295
C64   C     C_R   0.195190 0.249308 0.997975 -0.041073
C65   C     C_R   0.694988 0.250687 0.997729 -0.040614
C66   C     C_R   0.304939 0.749225 0.002238 -0.046573
C67   C     C_R   0.305119 0.250679 0.002470 -0.038192
C68   C     C_R   0.695164 0.749283 0.997922 -0.038708
C69   C     C_R   0.219172 0.785653 0.990606 0.024979
C70   C     C_R   0.780182 0.214251 0.008259 0.022068
C71   C     C_R   0.781562 0.785584 0.010612 0.024337
C72   C     C_R   0.219832 0.214268 0.991882 0.019296
C73   C     C_R   0.718674 0.285614 0.989716 0.020825
C74   C     C_R   0.279948 0.714176 0.007791 0.021937
C75   C     C_R   0.281642 0.285589 0.010756 0.023540
C76   C     C_R   0.719871 0.714240 0.991941 0.021510
C77   C     C_R   0.802800 0.283772 0.581964 -0.189925
C78   C     C_R   0.163139 0.742126 0.417789 -0.186072
C79   C     C_R   0.163526 0.258322 0.417893 -0.190379
C80   C     C_R   0.836038 0.760525 0.583245 -0.181609
C81   C     C_R   0.302794 0.783776 0.581968 -0.189089
C82   C     C_R   0.663140 0.242136 0.417789 -0.189136
C83   C     C_R   0.691400 0.716794 0.416143 -0.184182
C84   C     C_R   0.302876 0.216365 0.581946 -0.191405
C85   C     C_R   0.139848 0.249839 0.999569 0.785353
C86   C     C_R   0.860220 0.750161 0.000499 0.785570
C87   C     C_R   0.860171 0.249814 0.000462 0.791732
C88   C     C_R   0.139814 0.750168 0.999555 0.791377
C89   C     C_R   0.639833 0.749823 0.999537 0.780274
C90   C     C_R   0.360225 0.250163 0.000510 0.792539
C91   C     C_R   0.360206 0.749782 0.000521 0.796567
C92   C     C_R   0.639808 0.250162 0.999553 0.786416
C93   C     C_R   0.842302 0.284533 0.662533 0.234571
C94   C     C_R   0.121909 0.742861 0.337210 0.229760
C95   C     C_R   0.122204 0.257531 0.337324 0.229906
C96   C     C_R   0.876703 0.760562 0.664003 0.245752
C97   C     C_R   0.342298 0.784536 0.662536 0.235351
C98   C     C_R   0.621908 0.242873 0.337210 0.230257
C99   C     C_R   0.651237 0.716754 0.335345 0.243429
C100  C     C_R   0.342283 0.215553 0.662507 0.233259
C101  C     C_R   0.851971 0.250291 0.704369 -0.083441
C102  C     C_R   0.147259 0.750256 0.295505 -0.081883
C103  C     C_R   0.147370 0.249826 0.295522 -0.081166
C104  C     C_R   0.852315 0.749799 0.705048 -0.100403
C105  C     C_R   0.351968 0.750292 0.704370 -0.083237
C106  C     C_R   0.647261 0.250254 0.295505 -0.079923
C107  C     C_R   0.647268 0.749942 0.294811 -0.098629
C108  C     C_R   0.352097 0.249785 0.704394 -0.084684
C109  C     C_R   0.820254 0.215831 0.663466 0.061778
C110  C     C_R   0.214119 0.757696 0.336400 0.061931
C111  C     C_R   0.214160 0.242175 0.336354 0.058420
C112  C     C_R   0.786865 0.738608 0.664070 0.049241
C113  C     C_R   0.320249 0.715834 0.663466 0.062697
C114  C     C_R   0.714126 0.257678 0.336397 0.058894
C115  C     C_R   0.684355 0.783000 0.336147 0.049642
C116  C     C_R   0.320673 0.284300 0.663553 0.060243
C117  C     C_R   0.779597 0.216016 0.582613 -0.218895
C118  C     C_R   0.254281 0.757742 0.417241 -0.220409
C119  C     C_R   0.254400 0.242192 0.417196 -0.218752
C120  C     C_R   0.747106 0.738114 0.583239 -0.131740
C121  C     C_R   0.279591 0.716020 0.582612 -0.217914
C122  C     C_R   0.754290 0.257723 0.417238 -0.217674
C123  C     C_R   0.725086 0.782335 0.416938 -0.129551
C124  C     C_R   0.280106 0.284172 0.582698 -0.219158
C125  C     C_R   0.771324 0.249763 0.542116 0.054639
C126  C     C_R   0.228972 0.749677 0.457691 0.055265
C127  C     C_R   0.229263 0.250536 0.457720 0.056204
C128  C     C_R   0.771260 0.749243 0.542500 0.023096
C129  C     C_R   0.271318 0.749767 0.542118 0.054892
C130  C     C_R   0.728977 0.249672 0.457690 0.055909
C131  C     C_R   0.728657 0.749425 0.457282 0.023260
C132  C     C_R   0.271648 0.250423 0.542148 0.055679
C133  C     C_R   0.048305 0.042104 0.066561 -0.086989
C134  C     C_R   0.941353 0.958185 0.958666 -0.100281
C135  C     C_R   0.951493 0.042070 0.933703 -0.089449
C136  C     C_R   0.058526 0.958245 0.041731 -0.097897
C137  C     C_R   0.548039 0.542112 0.066793 -0.087134
C138  C     C_R   0.441361 0.458197 0.958320 -0.101508
C139  C     C_R   0.451762 0.542080 0.933567 -0.088369
C140  C     C_R   0.558538 0.458256 0.042053 -0.096828
C141  C     C_R   0.048719 0.082345 0.066155 -0.145748
C142  C     C_R   0.941395 0.917945 0.958225 -0.149215
C143  C     C_R   0.951135 0.082315 0.933981 -0.148139
C144  C     C_R   0.058547 0.918002 0.042067 -0.150414
C145  C     C_R   0.548438 0.582357 0.066413 -0.130075
C146  C     C_R   0.441401 0.417955 0.957868 -0.152892
C147  C     C_R   0.451392 0.582325 0.933848 -0.150785
C148  C     C_R   0.558554 0.418011 0.042370 -0.148107
C149  C     C_R   0.999948 0.102643 0.000036 0.003267
C150  C     C_R   0.999987 0.897564 0.000100 -0.003889
C151  C     C_R   0.499939 0.602650 0.000093 -0.005807
C152  C     C_R   0.499992 0.397571 0.000078 -0.001326
C153  C     C_R   0.104878 0.249812 0.210397 0.848967
C154  C     C_R   0.894870 0.749965 0.789828 0.834640
C155  C     C_R   0.894558 0.250223 0.789554 0.850808
C156  C     C_R   0.104861 0.750202 0.210400 0.851261
C157  C     C_R   0.605048 0.750012 0.210121 0.834650
C158  C     C_R   0.394585 0.249791 0.789572 0.850916
C159  C     C_R   0.394557 0.750223 0.789554 0.851491
C160  C     C_R   0.604861 0.250201 0.210400 0.851121
C161  C     C_R   0.999987 0.144900 0.999992 0.784633
C162  C     C_R   0.000004 0.855172 0.000021 0.799791
C163  C     C_R   0.499983 0.644903 0.000020 0.795855
C164  C     C_R   0.500006 0.355174 0.000012 0.795082
C165  C     C_R   0.999959 0.355162 0.999949 0.791520
C166  C     C_R   0.999984 0.644839 0.999997 0.777253
C167  C     C_R   0.499981 0.855159 0.999967 0.792917
C168  C     C_R   0.499962 0.144837 0.999974 0.791330
C169  C     C_R   0.988831 0.458145 0.936623 -0.166891
C170  C     C_R   0.972609 0.541840 0.030183 -0.166760
C171  C     C_R   0.010441 0.458158 0.062676 -0.168016
C172  C     C_R   0.026727 0.541860 0.969170 -0.167519
C173  C     C_R   0.488309 0.958126 0.936334 -0.163160
C174  C     C_R   0.473088 0.041825 0.030745 -0.164075
C175  C     C_R   0.511045 0.958153 0.062988 -0.166985
C176  C     C_R   0.526150 0.041857 0.968455 -0.164268
C177  C     C_R   0.989406 0.417890 0.936980 -0.159392
C178  C     C_R   0.973185 0.582093 0.030850 -0.177141
C179  C     C_R   0.010076 0.417909 0.062501 -0.178075
C180  C     C_R   0.026424 0.582112 0.968800 -0.176605
C181  C     C_R   0.488905 0.917872 0.936710 -0.158795
C182  C     C_R   0.473643 0.082078 0.031392 -0.174437
C183  C     C_R   0.510695 0.917902 0.062838 -0.181912
C184  C     C_R   0.525827 0.082109 0.968075 -0.157032
C185  C     C_R   0.999825 0.397520 0.999809 -0.012334
C186  C     C_R   0.999883 0.602480 0.999910 -0.001682
C187  C     C_R   0.499873 0.897512 0.999842 -0.010245
C188  C     C_R   0.499826 0.102475 0.999839 -0.003553
C189  C     C_R   0.999599 0.478668 0.999616 0.106697
C190  C     C_R   0.999612 0.521333 0.999616 0.110116
C191  C     C_R   0.499621 0.978657 0.999610 0.107012
C192  C     C_R   0.499588 0.021323 0.999565 0.108432
H1    H     H_    0.979166 0.473170 0.886609 0.143012
H2    H     H_    0.950313 0.526804 0.052737 0.137872
H3    H     H_    0.020049 0.473191 0.112638 0.137381
H4    H     H_    0.048942 0.526839 0.946531 0.137245
H5    H     H_    0.478195 0.973144 0.886087 0.146553
H6    H     H_    0.451207 0.026784 0.053810 0.137490
H7    H     H_    0.521089 0.973191 0.113165 0.135833
H8    H     H_    0.547960 0.026842 0.945309 0.138000
H9    H     H_    0.755276 0.189615 0.551351 0.153319
H10   H     H_    0.305504 0.763471 0.448528 0.152678
H11   H     H_    0.305555 0.236282 0.448425 0.154773
H12   H     H_    0.696953 0.729535 0.552109 0.161448
H13   H     H_    0.255269 0.689619 0.551350 0.153177
H14   H     H_    0.805516 0.263440 0.448523 0.154920
H15   H     H_    0.753469 0.807764 0.448360 0.163596
H16   H     H_    0.255984 0.310613 0.551480 0.153048
H17   H     H_    0.085424 0.027212 0.119254 0.132001
H18   H     H_    0.895382 0.973074 0.927683 0.141575
H19   H     H_    0.914363 0.027150 0.881051 0.130028
H20   H     H_    0.104478 0.973182 0.072744 0.142172
H21   H     H_    0.584940 0.527213 0.119604 0.136923
H22   H     H_    0.395382 0.473090 0.927062 0.140926
H23   H     H_    0.414853 0.527158 0.880787 0.129168
H24   H     H_    0.604497 0.473199 0.073350 0.142912
H25   H     H_    0.086474 0.097595 0.117995 0.154577
H26   H     H_    0.895526 0.902829 0.926067 0.162012
H27   H     H_    0.913407 0.097542 0.882092 0.152971
H28   H     H_    0.104435 0.902933 0.074191 0.161446
H29   H     H_    0.585954 0.597615 0.118407 0.173903
H30   H     H_    0.395526 0.402842 0.925427 0.161327
H31   H     H_    0.413877 0.597556 0.881822 0.152953
H32   H     H_    0.604446 0.402942 0.074757 0.162320
H33   H     H_    0.980810 0.402716 0.887642 0.186301
H34   H     H_    0.951922 0.597252 0.054555 0.162426
H35   H     H_    0.018728 0.402756 0.111899 0.165926
H36   H     H_    0.047779 0.597286 0.945190 0.160692
H37   H     H_    0.479872 0.902689 0.887150 0.186742
H38   H     H_    0.452789 0.097230 0.055599 0.162795
H39   H     H_    0.519808 0.902745 0.112478 0.158262
H40   H     H_    0.546750 0.097282 0.943939 0.165269
H41   H     H_    0.957479 0.131211 0.144367 0.163319
H42   H     H_    0.035441 0.861796 0.834676 0.187251
H43   H     H_    0.042531 0.131114 0.856289 0.156061
H44   H     H_    0.966626 0.860608 0.168415 0.171405
H45   H     H_    0.456632 0.630618 0.142817 0.194202
H46   H     H_    0.534091 0.361112 0.833138 0.160475
H47   H     H_    0.542844 0.630844 0.856940 0.155535
H48   H     H_    0.466848 0.360507 0.168517 0.171042
H49   H     H_    0.906402 0.195007 0.120930 0.155003
H50   H     H_    0.092828 0.799577 0.872593 0.178830
H51   H     H_    0.093585 0.194926 0.879422 0.130798
H52   H     H_    0.908150 0.798736 0.129679 0.165940
H53   H     H_    0.406098 0.694538 0.120079 0.145578
H54   H     H_    0.592063 0.299111 0.871140 0.136779
H55   H     H_    0.593631 0.694723 0.879729 0.130077
H56   H     H_    0.408243 0.298681 0.129834 0.165220
H57   H     H_    0.725649 0.147984 0.925441 0.152797
H58   H     H_    0.266189 0.855659 0.062480 0.149943
H59   H     H_    0.274438 0.148067 0.074898 0.155694
H60   H     H_    0.735976 0.855924 0.939995 0.152950
H61   H     H_    0.224883 0.648142 0.924265 0.154336
H62   H     H_    0.764943 0.355788 0.060870 0.155678
H63   H     H_    0.774765 0.648139 0.075197 0.157964
H64   H     H_    0.236154 0.355947 0.940186 0.152958
H65   H     H_    0.777191 0.084197 0.950674 0.164208
H66   H     H_    0.208260 0.917999 0.022915 0.167545
H67   H     H_    0.222928 0.084255 0.049953 0.164346
H68   H     H_    0.795108 0.917890 0.980498 0.168069
H69   H     H_    0.275900 0.584229 0.948828 0.164100
H70   H     H_    0.706333 0.417892 0.021061 0.168519
H71   H     H_    0.723527 0.584265 0.050590 0.165841
H72   H     H_    0.295417 0.417868 0.980627 0.167631
H73   H     H_    0.205802 0.688885 0.011473 0.150110
H74   H     H_    0.793031 0.311012 0.986509 0.153033
H75   H     H_    0.793673 0.688940 0.987689 0.149506
H76   H     H_    0.207335 0.311018 0.013951 0.152525
H77   H     H_    0.706325 0.188948 0.012477 0.151666
H78   H     H_    0.293733 0.811020 0.987788 0.155210
H79   H     H_    0.293598 0.188954 0.987582 0.152269
H80   H     H_    0.707205 0.811004 0.013716 0.152514
H81   H     H_    0.795335 0.310035 0.550112 0.179594
H82   H     H_    0.143597 0.736580 0.449585 0.180595
H83   H     H_    0.144111 0.264085 0.449750 0.177859
H84   H     H_    0.855151 0.769011 0.552160 0.179248
H85   H     H_    0.295330 0.810040 0.550117 0.179512
H86   H     H_    0.643596 0.236601 0.449587 0.177851
H87   H     H_    0.694079 0.691185 0.446916 0.177509
H88   H     H_    0.295268 0.190100 0.550058 0.178916
O1    O     O_3   0.000000 0.250000 0.000000 -0.498566
O2    O     O_3   1.000000 0.750000 0.000000 -0.493421
O3    O     O_3   0.500000 0.750000 0.000000 -0.495065
O4    O     O_3   0.500000 0.250000 0.000000 -0.498269
O5    O     O_R   0.093070 0.272740 0.954520 -0.641207
O6    O     O_R   0.906930 0.727260 0.045480 -0.624574
O7    O     O_R   0.906930 0.272740 0.045480 -0.621826
O8    O     O_R   0.093070 0.727260 0.954520 -0.630311
O9    O     O_R   0.593070 0.772740 0.954520 -0.642241
O10   O     O_R   0.406930 0.227260 0.045480 -0.625563
O11   O     O_R   0.406930 0.772740 0.045480 -0.641152
O12   O     O_R   0.593070 0.227260 0.954520 -0.644690
O13   O     O_R   0.117100 0.227270 0.173460 -0.624909
O14   O     O_R   0.882900 0.772730 0.826540 -0.647196
O15   O     O_R   0.882900 0.227270 0.826540 -0.624305
O16   O     O_R   0.117100 0.772730 0.173460 -0.624300
O17   O     O_R   0.617100 0.727270 0.173460 -0.606192
O18   O     O_R   0.382900 0.272730 0.826540 -0.623290
O19   O     O_R   0.382900 0.727270 0.826540 -0.623434
O20   O     O_R   0.617100 0.272730 0.173460 -0.623636
O21   O     O_R   0.053120 0.163270 0.045480 -0.640339
O22   O     O_R   0.946880 0.836730 0.954520 -0.638507
O23   O     O_R   0.946880 0.163270 0.954520 -0.638487
O24   O     O_R   0.053120 0.836730 0.045480 -0.643032
O25   O     O_R   0.553120 0.663270 0.045480 -0.626025
O26   O     O_R   0.446880 0.336730 0.954520 -0.641408
O27   O     O_R   0.446880 0.663270 0.954520 -0.640656
O28   O     O_R   0.553120 0.336730 0.045480 -0.642768
O29   O     O_R   0.007620 0.336730 0.954520 -0.627392
O30   O     O_R   0.992380 0.663270 0.045480 -0.641483
O31   O     O_R   0.992380 0.336730 0.045480 -0.643381
O32   O     O_R   0.007620 0.663270 0.954520 -0.646703
O33   O     O_R   0.507620 0.836730 0.954520 -0.625963
O34   O     O_R   0.492380 0.163270 0.045480 -0.644942
O35   O     O_R   0.492380 0.836730 0.045480 -0.651613
O36   O     O_R   0.507620 0.163270 0.954520 -0.624738
O37   O     O_R   0.056370 0.272740 0.173460 -0.606022
O38   O     O_R   0.943630 0.727260 0.826540 -0.606809
O39   O     O_R   0.943630 0.272740 0.826540 -0.604864
O40   O     O_R   0.056370 0.727260 0.173460 -0.604351
O41   O     O_R   0.556370 0.772740 0.173460 -0.650140
O42   O     O_R   0.443630 0.227260 0.826540 -0.604523
O43   O     O_R   0.443630 0.772740 0.826540 -0.605540
O44   O     O_R   0.556370 0.227260 0.173460 -0.605165
O45   O     O_R   0.138550 0.227260 0.045470 -0.625044
O46   O     O_R   0.861450 0.772740 0.954530 -0.638644
O47   O     O_R   0.861450 0.227260 0.954530 -0.631732
O48   O     O_R   0.138550 0.772740 0.045470 -0.630382
O49   O     O_R   0.638550 0.727260 0.045470 -0.627756
O50   O     O_R   0.361450 0.272740 0.954530 -0.632271
O51   O     O_R   0.361450 0.727260 0.954530 -0.624675
O52   O     O_R   0.638550 0.272740 0.045470 -0.626037
Zn1   Zn    Zn3+2 0.989110 0.282490 0.064980 1.008410
Zn2   Zn    Zn3+2 0.010890 0.717510 0.935020 0.995293
Zn3   Zn    Zn3+2 0.010890 0.282490 0.935020 1.005629
Zn4   Zn    Zn3+2 0.989110 0.717510 0.064980 1.002525
Zn5   Zn    Zn3+2 0.489110 0.782490 0.064980 0.973169
Zn6   Zn    Zn3+2 0.510890 0.217510 0.935020 1.006083
Zn7   Zn    Zn3+2 0.510890 0.782490 0.935020 1.003831
Zn8   Zn    Zn3+2 0.489110 0.217510 0.064980 1.007414
Zn9   Zn    Zn3+2 0.075880 0.217510 0.064980 0.988226
Zn10  Zn    Zn3+2 0.924120 0.782490 0.935020 0.981220
Zn11  Zn    Zn3+2 0.924120 0.217510 0.935020 0.989953
Zn12  Zn    Zn3+2 0.075880 0.782490 0.064980 0.993475
Zn13  Zn    Zn3+2 0.575880 0.717510 0.064980 1.008453
Zn14  Zn    Zn3+2 0.424120 0.282490 0.935020 0.991271
Zn15  Zn    Zn3+2 0.424120 0.717510 0.935020 0.998190
Zn16  Zn    Zn3+2 0.575880 0.282490 0.064980 0.990347
Br1   Br    Br    0.877648 0.334033 0.710522 -0.497984
Br2   Br    Br    0.031190 0.736182 0.288783 -0.496196
Br3   Br    Br    0.031605 0.264593 0.289121 -0.503515
Br4   Br    Br    0.964645 0.776842 0.715670 -0.534041
Br5   Br    Br    0.377645 0.834036 0.710528 -0.493447
Br6   Br    Br    0.531185 0.236215 0.288784 -0.508632
Br7   Br    Br    0.601091 0.671161 0.282669 -0.533189
Br8   Br    Br    0.377295 0.166008 0.710408 -0.479883
N1    N     N_3   0.830322 0.180349 0.703697 -0.429273
H89   H     H_    0.848748 0.159947 0.685788 0.183036
H90   H     H_    0.785417 0.170388 0.687069 0.198093
N2    N     N_3   0.241740 0.764350 0.296142 -0.425247
H91   H     H_    0.264365 0.791395 0.312903 0.198396
H92   H     H_    0.277280 0.743395 0.313941 0.184350
N3    N     N_3   0.241646 0.235234 0.296039 -0.421583
H93   H     H_    0.264016 0.208127 0.312870 0.201191
H94   H     H_    0.277373 0.256061 0.313713 0.189416
N4    N     N_3   0.760013 0.726894 0.703178 -0.449926
H95   H     H_    0.787723 0.704094 0.740574 0.176454
H96   H     H_    0.763015 0.750132 0.736173 0.211250
N5    N     N_3   0.330316 0.680351 0.703695 -0.429686
H97   H     H_    0.348739 0.659949 0.685782 0.181363
H98   H     H_    0.285411 0.670392 0.687068 0.200108
N6    N     N_3   0.741748 0.264317 0.296136 -0.421948
H99   H     H_    0.764391 0.291357 0.312898 0.202226
H100  H     H_    0.777274 0.243353 0.313930 0.189370
N7    N     N_3   0.682442 0.817275 0.297419 -0.448809
H101  H     H_    0.635288 0.828110 0.264013 0.204463
H102  H     H_    0.694393 0.809821 0.260400 0.179381
N8    N     N_3   0.330959 0.319777 0.703853 -0.425633
H103  H     H_    0.286101 0.329853 0.687140 0.198439
H104  H     H_    0.349615 0.340115 0.686079 0.185778
Br9   Br    Br    0.909147 0.053532 0.070823 -0.493236
Br10  Br    Br    0.074427 0.942592 0.892307 -0.465871
Br11  Br    Br    0.090937 0.053506 0.930029 -0.494686
Br12  Br    Br    0.929361 0.941630 0.111471 -0.470181
Br13  Br    Br    0.407614 0.553139 0.068641 -0.483119
Br14  Br    Br    0.572155 0.441998 0.890586 -0.480745
Br15  Br    Br    0.591640 0.553306 0.930957 -0.498996
Br16  Br    Br    0.429759 0.441527 0.111499 -0.469055

loop_
_geom_bond_atom_site_label_1
_geom_bond_atom_site_label_2
_ccdc_geom_bond_type
N1    H89   S    
C134  H18   S    
O4    Zn8   S    
O40   Zn4   S    
C122  H14   S    
O17   Zn13  S    
C34   C42   A    
C110  C118  A    
C181  C187  A    
O39   Zn3   S    
C91   O11   A    
C2    C134  A    
O10   Zn8   S    
C170  C178  A    
C81   H85   S    
O13   Zn9   S    
C37   H65   S    
C115  N7    S    
C88   O8    A    
O31   Zn1   S    
C145  H29   S    
C101  C155  S    
O1    Zn11  S    
N6    H99   S    
C30   C38   A    
C176  C184  A    
C25   C74   S    
O27   Zn15  S    
O48   Zn12  S    
C143  C149  A    
C114  N6    S    
C47   Br11  S    
C85   O5    A    
C161  O21   A    
C22   C69   S    
C5    C13   A    
C97   C105  A    
C7    C15   A    
C8    C16   A    
C124  H16   S    
C159  O43   A    
C86   O6    A    
O33   Zn7   S    
C41   C49   A    
C107  C157  S    
C154  O38   A    
C115  C123  A    
C191  C192  S    
C84   C100  A    
C77   H81   S    
C171  H3    S    
C93   C101  A    
C112  C120  A    
C169  H1    S    
C20   C28   A    
C126  C129  S    
C27   C35   A    
C21   C29   A    
C173  C191  A    
C23   C31   A    
C163  O25   A    
C24   C32   A    
C83   C131  A    
C81   C129  A    
C164  O28   A    
C57   H77   S    
C165  O29   A    
C12   C20   A    
C31   H59   S    
C116  N8    S    
C63   C71   A    
C96   C104  A    
C36   C44   A    
C168  O34   A    
C37   C45   A    
C64   C85   S    
C32   C40   A    
C77   C125  A    
C39   C47   A    
C40   C48   A    
C79   C127  A    
C154  O14   A    
C50   Br14  S    
C166  C186  S    
C23   C72   S    
C91   O51   A    
O35   Zn5   S    
C87   O7    A    
N7    H101  S    
C58   H78   S    
C83   H87   S    
C98   C106  A    
C60   C68   A    
C17   C25   A    
O3    Zn7   S    
C167  O35   A    
C108  C116  A    
C10   C18   A    
C157  O41   A    
C161  O23   A    
C2    C136  A    
C162  O24   A    
O8    Zn2   S    
C178  C186  A    
C184  C188  A    
C12   H48   S    
C94   C102  A    
O2    Zn12  S    
O4    Zn14  S    
C157  O17   A    
N8    H103  S    
C28   C75   S    
O22   Zn10  S    
C48   Br12  S    
C133  H17   S    
O21   Zn9   S    
C80   H84   S    
C43   C51   A    
C174  C182  A    
C40   H68   S    
C67   C75   A    
C177  C185  A    
C105  C159  S    
C62   C70   A    
O1    Zn1   S    
C105  C113  A    
O29   Zn3   S    
C78   C94   A    
C144  H28   S    
C53   H73   S    
O42   Zn6   S    
C165  O31   A    
C166  O32   A    
C124  C132  A    
C111  C119  A    
C142  H26   S    
C144  C150  A    
C59   C67   A    
C136  H20   S    
C53   C61   A    
C182  H38   S    
O12   Zn6   S    
C55   C63   A    
C97   Br5   S    
C56   C64   A    
C168  O36   A    
C35   C43   A    
C87   O47   A    
C44   C52   A    
C135  C143  A    
C6    H42   S    
C56   C75   A    
C35   H63   S    
C171  C179  A    
C118  H10   S    
C159  O19   A    
C86   O46   A    
O4    Zn6   S    
C1    C133  A    
C38   H66   S    
C169  C177  A    
N2    H91   S    
C95   C103  A    
O7    Zn1   S    
C15   H51   S    
C100  C108  A    
C173  H5    S    
O3    Zn5   S    
C9    C49   A    
C104  C112  A    
C103  C153  S    
C80   C128  A    
C84   C132  A    
C67   C90   S    
O19   Zn15  S    
C45   Br9   S    
C29   H57   S    
C147  C151  A    
C162  O22   A    
O34   Zn8   S    
C6    C14   A    
C172  C190  A    
C17   H53   S    
O2    Zn10  S    
C57   C65   A    
C92   O12   A    
O4    Zn16  S    
C182  C188  A    
C175  H7    S    
C180  C186  A    
O52   Zn16  S    
C16   H52   S    
C89   O9    A    
C42   C50   A    
C9    H45   S    
C120  H12   S    
O47   Zn11  S    
C3    C139  A    
C78   H82   S    
C3    C4    S    
O46   Zn10  S    
C128  C131  S    
C183  H39   S    
C9    C17   A    
C79   H83   S    
C22   C30   A    
O1    Zn3   S    
C148  C152  A    
C98   Br6   S    
C68   C76   A    
C166  O30   A    
C34   H62   S    
C14   C22   A    
O6    Zn4   S    
C43   H71   S    
C110  N2    S    
C138  C146  A    
C84   H88   S    
N6    H100  S    
C179  H35   S    
C56   H76   S    
C38   C46   A    
C177  H33   S    
C52   Br16  S    
C113  C121  A    
C51   Br15  S    
C1    C135  A    
C117  C125  A    
C25   C33   A    
N5    H98   S    
C119  C127  A    
C135  H19   S    
C168  C188  S    
C102  C156  S    
C82   C98   A    
C53   C74   A    
C18   C26   A    
C121  H13   S    
C88   O48   A    
C109  C117  A    
C11   C19   A    
C36   H64   S    
O14   Zn10  S    
C137  C145  A    
C146  H30   S    
C101  C109  A    
C59   H79   S    
C26   C73   S    
O32   Zn2   S    
C103  C111  A    
N4    H95   S    
C158  O18   A    
C93   Br1   S    
C141  H25   S    
O26   Zn14  S    
C95   Br3   S    
C139  H23   S    
C89   O49   A    
N3    H93   S    
C3    C137  A    
O15   Zn11  S    
C57   C70   A    
O20   Zn16  S    
C59   C72   A    
C172  C180  A    
C173  C181  A    
N1    H90   S    
C83   C99   A    
C176  H8    S    
C12   C52   A    
O11   Zn5   S    
C150  C162  S    
C7    H43   S    
C141  C149  A    
C119  H11   S    
C170  H2    S    
C54   C62   A    
C60   C71   A    
C5    C45   A    
C180  H36   S    
O2    Zn4   S    
C155  O15   A    
C96   Br4   S    
C7    C47   A    
C8    C48   A    
C79   C95   A    
C183  C187  A    
C134  C142  A    
C54   C73   A    
C68   C89   S    
C54   H74   S    
O9    Zn7   S    
C39   H67   S    
C8    H44   S    
C63   C86   S    
C102  C110  A    
C149  C161  S    
N8    H104  S    
C27   C76   S    
C10   C50   A    
C147  H31   S    
C100  Br8   S    
C94   Br2   S    
C32   H60   S    
C138  H22   S    
C116  C124  A    
C123  C131  A    
O38   Zn2   S    
C121  C129  A    
C90   O50   A    
C44   H72   S    
C120  C128  A    
C58   C69   A    
C179  C185  A    
C99   C107  A    
C62   C87   S    
C133  C141  A    
C33   C41   A    
C142  C150  A    
C41   H69   S    
C136  C144  A    
C153  O37   A    
O50   Zn14  S    
C158  O42   A    
C109  N1    S    
C90   O10   A    
C106  C160  S    
C77   C93   A    
C81   C97   A    
C113  N5    S    
C11   C51   A    
C160  O20   A    
C189  C190  S    
C4    C138  A    
C82   H86   S    
C28   C36   A    
C46   Br10  S    
C29   C37   A    
C104  C154  S    
O23   Zn11  S    
C66   C74   A    
C65   C92   S    
C111  N3    S    
O43   Zn7   S    
C42   H70   S    
C140  C148  A    
N2    H92   S    
C19   H55   S    
C139  C147  A    
O2    Zn2   S    
C155  O39   A    
C106  C114  A    
C175  C191  A    
C176  C192  A    
C108  C158  S    
C11   H47   S    
C156  O40   A    
C65   C73   A    
C171  C189  A    
C1    C2    S    
C127  C132  S    
C125  C130  S    
C58   C66   A    
C13   H49   S    
O37   Zn1   S    
C92   O52   A    
O24   Zn12  S    
O3    Zn15  S    
C80   C96   A    
C19   C27   A    
O51   Zn15  S    
C15   C23   A    
C16   C24   A    
C14   H50   S    
N3    H94   S    
O36   Zn6   S    
C117  H9    S    
C85   O45   A    
C26   C34   A    
O30   Zn4   S    
N7    H102  S    
C174  H6    S    
C156  O16   A    
C13   C21   A    
C167  O33   A    
C55   H75   S    
C184  H40   S    
C181  H37   S    
C153  O13   A    
C143  H27   S    
C165  C185  S    
C30   H58   S    
O18   Zn14  S    
C61   C88   S    
C4    C140  A    
C18   H54   S    
O41   Zn5   S    
O5    Zn3   S    
C172  H4    S    
C160  O44   A    
C167  C187  S    
O1    Zn9   S    
C123  H15   S    
C60   H80   S    
C107  C115  A    
C145  C151  A    
C146  C152  A    
C55   C76   A    
O25   Zn13  S    
C10   H46   S    
C151  C163  S    
C82   C130  A    
O45   Zn9   S    
N5    H97   S    
C61   C69   A    
C6    C46   A    
C137  H21   S    
C175  C183  A    
O16   Zn12  S    
C99   Br7   S    
C152  C164  S    
C66   C91   S    
C170  C190  A    
C21   C70   S    
C33   H61   S    
C148  H32   S    
O49   Zn13  S    
C49   Br13  S    
C31   C39   A    
O3    Zn13  S    
O44   Zn8   S    
C112  N4    S    
C64   C72   A    
C163  O27   A    
C169  C189  A    
N4    H96   S    
C178  H34   S    
O28   Zn16  S    
C140  H24   S    
C114  C122  A    
C20   H56   S    
C164  O26   A    
C174  C192  A    
C5    H41   S    
C118  C126  A    
C122  C130  A    
C24   C71   S    
C78   C126  A    
