data_mof_unit_67391.cif
_audit_creation_date              2013-03-05T16:11:02-0500
_audit_creation_method            fapswitch 2.2
_symmetry_space_group_name_H-M    P1
_symmetry_Int_Tables_number       1
_space_group_crystal_system       triclinic
_cell_length_a                    17.479343
_cell_length_b                    28.452989
_cell_length_c                    8.879036
_cell_angle_alpha                 90.222726
_cell_angle_beta                  103.619033
_cell_angle_gamma                 90.443803
_cell_volume                      4291.53048615

loop_
_atom_site_label
_atom_site_type_symbol
_atom_site_description
_atom_site_fract_x
_atom_site_fract_y
_atom_site_fract_z
_atom_type_partial_charge
P1    P     P_3+3 0.171820 0.553000 0.158080 0.613003
P2    P     P_3+3 0.171820 0.447000 0.658080 0.588246
P3    P     P_3+3 0.671820 0.053000 0.158080 0.599046
P4    P     P_3+3 0.671820 0.947000 0.658080 0.608652
O1    O     O_2   0.163830 0.569270 0.980510 -0.263236
O2    O     O_2   0.163830 0.430730 0.480510 -0.305900
O3    O     O_2   0.663830 0.069270 0.980510 -0.281345
O4    O     O_2   0.663830 0.930730 0.480510 -0.276601
O5    O     O_3   0.095420 0.524330 0.188510 -0.302217
O6    O     O_3   0.095420 0.475670 0.688510 -0.286340
O7    O     O_3   0.595420 0.024330 0.188510 -0.294252
O8    O     O_3   0.595420 0.975670 0.688510 -0.299182
O9    O     O_3   0.028940 0.612400 0.656050 -0.357237
O10   O     O_3   0.028940 0.387600 0.156050 -0.353469
O11   O     O_3   0.528940 0.112400 0.656050 -0.345733
O12   O     O_3   0.528940 0.887600 0.156050 -0.349821
O13   O     O_2   0.162081 0.646763 0.839651 -0.267233
O14   O     O_2   0.164492 0.353363 0.328436 -0.268558
O15   O     O_2   0.663005 0.148127 0.830654 -0.261876
O16   O     O_2   0.658585 0.847967 0.324651 -0.232976
O17   O     O_3   0.248535 0.512350 0.175520 -0.587201
O18   O     O_3   0.249765 0.488098 0.680127 -0.593769
O19   O     O_3   0.746402 0.010518 0.175155 -0.600482
O20   O     O_3   0.749883 0.987891 0.679859 -0.592222
O21   O     O_3   0.067327 0.708441 0.682925 -0.529200
O22   O     O_3   0.066416 0.290973 0.168702 -0.463257
O23   O     O_3   0.566137 0.211052 0.674048 -0.525949
O24   O     O_3   0.555568 0.789721 0.145243 -0.455841
H1    H     H_    0.961873 0.680560 0.709609 0.139172
H2    H     H_    0.975066 0.314874 0.259257 0.119021
H3    H     H_    0.472003 0.186234 0.755340 0.124972
H4    H     H_    0.473308 0.811840 0.262896 0.123449
C1    C     C_3   0.942019 0.751333 0.630870 0.393971
C2    C     C_3   0.948357 0.244089 0.170590 0.318198
C3    C     C_3   0.445412 0.257851 0.669436 0.299254
C4    C     C_3   0.435987 0.743384 0.153833 0.316800
H5    H     H_    0.941145 0.758512 0.749244 0.099269
H6    H     H_    0.959149 0.236553 0.291181 -0.002178
H7    H     H_    0.443226 0.264694 0.788990 0.100191
H8    H     H_    0.434662 0.735132 0.272231 0.034651
P5    P     P_3+3 0.829210 0.554130 0.532500 0.612513
P6    P     P_3+3 0.829210 0.445870 0.032500 0.586352
P7    P     P_3+3 0.329210 0.054130 0.532500 0.563962
P8    P     P_3+3 0.329210 0.945870 0.032500 0.601859
P9    P     P_3+3 0.903532 0.658746 0.023415 0.668108
P10   P     P_3+3 0.901401 0.341805 0.530667 0.645004
P11   P     P_3+3 0.409111 0.160524 0.034126 0.666333
P12   P     P_3+3 0.403998 0.841049 0.530994 0.619150
O25   O     O_2   0.837400 0.570350 0.710350 -0.256832
O26   O     O_2   0.837400 0.429650 0.210350 -0.259542
O27   O     O_2   0.337400 0.070350 0.710350 -0.268849
O28   O     O_2   0.337400 0.929650 0.210350 -0.313964
O29   O     O_3   0.972820 0.612580 0.035550 -0.275112
O30   O     O_3   0.972820 0.387420 0.535550 -0.292561
O31   O     O_3   0.472820 0.112580 0.035550 -0.284884
O32   O     O_3   0.472820 0.887420 0.535550 -0.315863
O33   O     O_2   0.844831 0.645176 0.870616 -0.231056
O34   O     O_2   0.842831 0.351730 0.374648 -0.234442
O35   O     O_2   0.351136 0.150209 0.876867 -0.234625
O36   O     O_2   0.345644 0.853024 0.376759 -0.262589
O37   O     O_3   0.743118 0.520129 0.527926 -0.577879
O38   O     O_3   0.742222 0.475997 0.033983 -0.597944
O39   O     O_3   0.245766 0.017828 0.525645 -0.594652
O40   O     O_3   0.240042 0.975641 0.013038 -0.573045
O41   O     O_3   0.938340 0.713781 0.963661 -0.618165
O42   O     O_3   0.930954 0.284079 0.490518 -0.663002
O43   O     O_3   0.448545 0.216565 0.993743 -0.623200
O44   O     O_3   0.435370 0.782633 0.489832 -0.616462
C5    C     C_3   0.999071 0.738640 0.070043 0.995223
C6    C     C_3   0.994746 0.260195 0.592710 0.979694
C7    C     C_3   0.514089 0.236451 0.103638 0.871543
C8    C     C_3   0.505053 0.762985 0.588688 0.842911
C9    C     C_3   0.042914 0.776099 0.989488 -0.057229
C10   C     C_3   0.982027 0.205706 0.553298 -0.041763
C11   C     C_3   0.531169 0.289196 0.070831 0.068044
C12   C     C_3   0.516920 0.709405 0.555830 0.106012
H9    H     H_    0.064332 0.760111 0.894426 0.107144
H10   H     H_    0.923446 0.201541 0.474355 0.058908
H11   H     H_    0.550216 0.291809 0.961911 0.094525
H12   H     H_    0.517493 0.703305 0.434736 0.125524
C13   C     C_3   0.713214 0.505968 0.910933 0.714930
C14   C     C_3   0.713548 0.495140 0.390132 0.622214
C15   C     C_3   0.226948 0.008359 0.894633 0.715917
C16   C     C_3   0.215579 0.995695 0.382046 0.690228
H13   H     H_    0.734219 0.497689 0.805830 -0.008687
H14   H     H_    0.741088 0.505654 0.296151 0.086589
H15   H     H_    0.254419 0.998672 0.798494 0.058665
H16   H     H_    0.261755 0.992663 0.316236 0.067448
C17   C     C_3   0.621798 0.505661 0.881001 -0.137731
C18   C     C_3   0.622503 0.496373 0.338847 -0.129055
C19   C     C_3   0.137621 0.016049 0.833198 -0.127715
C20   C     C_3   0.143527 0.021543 0.283256 -0.077068
H17   H     H_    0.602583 0.486361 0.974245 0.180736
H18   H     H_    0.597022 0.480294 0.429728 0.227928
H19   H     H_    0.110909 0.027832 0.928047 0.130596
H20   H     H_    0.129494 0.004788 0.167315 0.126295
H21   H     H_    0.598598 0.541733 0.885361 0.188421
H22   H     H_    0.602235 0.473914 0.234219 0.144152
H23   H     H_    0.128762 0.045029 0.748635 0.207086
H24   H     H_    0.157050 0.058846 0.270030 0.119606
Ba1   Ba    Ba6+2 0.000400 0.534870 0.845190 1.904075
Ba2   Ba    Ba6+2 0.000400 0.465130 0.345190 1.907771
Ba3   Ba    Ba6+2 0.500400 0.034870 0.845190 1.899892
Ba4   Ba    Ba6+2 0.500400 0.965130 0.345190 1.900407
C21   C     C_3   0.278205 0.498691 0.330420 0.818375
C22   C     C_3   0.290889 0.492601 0.836893 0.828672
C23   C     C_3   0.783221 0.001549 0.331705 0.952255
C24   C     C_3   0.781803 0.998811 0.837390 0.845597
H25   H     H_    0.230012 0.494112 0.390062 0.074057
H26   H     H_    0.250344 0.489269 0.915206 0.048155
H27   H     H_    0.740228 0.003287 0.405354 0.026416
H28   H     H_    0.734696 0.000812 0.901026 0.068564
C25   C     C_3   0.338331 0.534148 0.420042 -0.881776
C26   C     C_3   0.356632 0.456022 0.879060 -0.823721
C27   C     C_3   0.851512 0.036002 0.392404 -0.956502
C28   C     C_3   0.843679 0.962882 0.914337 -0.922097
H29   H     H_    0.373244 0.549906 0.343441 0.306987
H30   H     H_    0.409509 0.470246 0.961940 0.271209
H31   H     H_    0.871162 0.052852 0.295489 0.292843
H32   H     H_    0.872658 0.946880 0.828186 0.289817
H33   H     H_    0.379034 0.516669 0.518037 0.300929
H34   H     H_    0.336792 0.425758 0.937924 0.228472
H35   H     H_    0.903325 0.018440 0.466333 0.319250
H36   H     H_    0.889849 0.979435 0.007122 0.317853
H37   H     H_    0.309072 0.562009 0.472209 0.200784
H38   H     H_    0.375187 0.443871 0.774317 0.300190
H39   H     H_    0.833439 0.063148 0.466172 0.194493
H40   H     H_    0.816468 0.935225 0.972150 0.220236
O45   O     O_3   0.904940 0.476110 0.001150 -0.327253
O46   O     O_3   0.904940 0.523890 0.501150 -0.333893
O47   O     O_3   0.404940 0.976110 0.001150 -0.333055
O48   O     O_3   0.404940 0.023890 0.501150 -0.356740
P13   P     P_3+3 0.106160 0.347423 0.168939 0.662791
P14   P     P_3+3 0.108026 0.652832 0.676526 0.624732
P15   P     P_3+3 0.601573 0.845292 0.163122 0.684858
P16   P     P_3+3 0.605749 0.154354 0.670949 0.639162
C29   C     C_3   0.984926 0.704019 0.630383 0.127320
C30   C     C_3   0.985280 0.293654 0.160996 0.328898
C31   C     C_3   0.484082 0.208441 0.661541 0.211461
C32   C     C_3   0.476238 0.793274 0.154930 0.281922
H41   H     H_    0.969445 0.687610 0.513995 0.138338
H42   H     H_    0.955059 0.312818 0.056697 0.069115
H43   H     H_    0.454710 0.190394 0.552812 0.156861
H44   H     H_    0.444006 0.816225 0.061562 0.064379
H45   H     H_    0.096462 0.786871 0.073389 0.210025
H46   H     H_    0.023175 0.193267 0.485575 0.177546
H47   H     H_    0.582559 0.300406 0.162126 0.214125
H48   H     H_    0.578005 0.700474 0.616239 0.191866
C33   C     C_2   0.856581 0.383446 0.783128 -0.326776
C34   C     C_2   0.864846 0.623861 0.296389 -0.343642
C35   C     C_2   0.359055 0.883750 0.782224 -0.314360
C36   C     C_2   0.365803 0.122360 0.297953 -0.251561
C37   C     C_R   0.156213 0.609413 0.427735 0.071802
C38   C     C_R   0.146580 0.387874 0.910378 0.093494
C39   C     C_R   0.652626 0.111233 0.421062 0.071222
C40   C     C_R   0.647449 0.888388 0.914029 0.061144
C41   C     C_2   0.746005 0.361139 0.894972 0.211248
C42   C     C_2   0.744301 0.639591 0.384226 0.301859
C43   C     C_2   0.245493 0.863372 0.888594 0.259039
C44   C     C_2   0.241586 0.136934 0.376090 0.199283
C45   C     C_2   0.811884 0.390921 0.905441 -0.048707
C46   C     C_2   0.813329 0.611519 0.407022 0.039253
C47   C     C_2   0.313194 0.891705 0.902846 0.030292
C48   C     C_2   0.313348 0.111070 0.407183 0.055083
C49   C     C_2   0.842192 0.345908 0.683965 0.333925
C50   C     C_2   0.844125 0.656497 0.178756 0.302907
C51   C     C_2   0.344275 0.846110 0.683536 0.283993
C52   C     C_2   0.349208 0.157356 0.188948 0.319863
C53   C     C_3   0.787387 0.309482 0.711778 -0.372803
C54   C     C_3   0.769702 0.681880 0.159570 -0.194726
C55   C     C_3   0.286019 0.811106 0.707510 -0.333960
C56   C     C_3   0.286958 0.190296 0.200990 -0.180595
C57   C     C_3   0.722242 0.328426 0.768145 0.369380
C58   C     C_3   0.739139 0.683115 0.298426 0.235859
C59   C     C_3   0.220316 0.831831 0.758611 0.300840
C60   C     C_3   0.220389 0.166383 0.239844 0.225472
C61   C     C_2   0.762035 0.269571 0.592643 0.361589
C62   C     C_2   0.758907 0.728240 0.063185 0.337899
C63   C     C_2   0.261051 0.771718 0.587246 0.384609
C64   C     C_2   0.263025 0.229708 0.079122 0.365525
C65   C     C_2   0.248912 0.726387 0.627526 -0.093926
C66   C     C_2   0.243428 0.273876 0.118356 -0.040306
C67   C     C_2   0.757168 0.223715 0.637575 -0.165588
C68   C     C_2   0.740047 0.771587 0.114731 -0.062617
C69   C     C_R   0.272715 0.675499 0.396837 0.387589
C70   C     C_R   0.267112 0.325051 0.888962 0.456011
C71   C     C_R   0.785022 0.169087 0.421379 0.245317
C72   C     C_R   0.773776 0.829538 0.908318 0.493491
C73   C     C_R   0.227659 0.685223 0.515848 -0.028181
C74   C     C_R   0.222009 0.314750 0.006267 -0.070653
C75   C     C_R   0.735792 0.181735 0.529989 0.021368
C76   C     C_R   0.726271 0.816903 0.019127 -0.244080
C77   C     C_R   0.251289 0.635896 0.284914 -0.242301
C78   C     C_R   0.245421 0.363358 0.775300 -0.290341
C79   C     C_R   0.760291 0.131614 0.302115 -0.201214
C80   C     C_R   0.751093 0.866355 0.789314 -0.254541
C81   C     C_R   0.193670 0.605455 0.293484 0.058742
C82   C     C_R   0.188412 0.393418 0.784016 0.028729
C83   C     C_R   0.696387 0.104649 0.297417 0.055646
C84   C     C_R   0.690503 0.894450 0.789548 0.017937
C85   C     C_R   0.169201 0.648197 0.531247 0.205648
C86   C     C_R   0.161807 0.350555 0.016926 0.204581
C87   C     C_R   0.667842 0.149075 0.528160 0.247712
C88   C     C_R   0.662222 0.850926 0.020964 0.228439
H49   H     H_    0.284143 0.631005 0.197278 0.241248
H50   H     H_    0.279450 0.368505 0.689783 0.250778
H51   H     H_    0.796250 0.125356 0.220887 0.218893
H52   H     H_    0.786257 0.871492 0.705518 0.251808
H53   H     H_    0.895824 0.410921 0.764773 0.217034
H54   H     H_    0.916124 0.602911 0.300930 0.207030
H55   H     H_    0.396717 0.911581 0.760127 0.200358
H56   H     H_    0.410020 0.097380 0.289566 0.208951
H57   H     H_    0.254864 0.718923 0.749407 0.202785
H58   H     H_    0.242253 0.280218 0.238330 0.196012
H59   H     H_    0.769123 0.216452 0.760794 0.218470
H60   H     H_    0.731173 0.773907 0.230879 0.206726
N1    N     N_R   0.582637 0.484679 0.732714 0.242392
O49   O     O_R   0.532265 0.509801 0.635675 -0.332838
O50   O     O_R   0.578288 0.439248 0.717834 -0.258930
N2    N     N_R   0.589843 0.543180 0.304746 0.275284
O51   O     O_R   0.582978 0.560328 0.166914 -0.309163
O52   O     O_R   0.543942 0.559532 0.387955 -0.240824
N3    N     N_R   0.094315 0.974657 0.759788 0.309368
O53   O     O_R   0.018064 0.976045 0.714317 -0.292897
O54   O     O_R   0.130241 0.936939 0.733490 -0.294808
N4    N     N_R   0.073466 0.020085 0.344624 0.315923
O55   O     O_R   0.005874 0.011023 0.250637 -0.296299
O56   O     O_R   0.074853 0.038852 0.478387 -0.297491
S1    S     S_3+6 0.326761 0.443467 0.328724 0.035369
O57   O     O_2   0.329302 0.418093 0.477650 -0.226774
O58   O     O_2   0.282905 0.413825 0.196058 -0.346994
O59   O     O_3   0.419641 0.451741 0.310877 -0.441363
H61   H     H_    0.415917 0.475762 0.229274 0.351065
S2    S     S_3+6 0.334972 0.550124 0.866371 0.057533
O60   O     O_2   0.281072 0.585748 0.773324 -0.276305
O61   O     O_2   0.350916 0.563488 0.034663 -0.242285
O62   O     O_3   0.421021 0.550195 0.812991 -0.467761
H62   H     H_    0.412804 0.571112 0.722248 0.411839
S3    S     S_3+6 0.822022 0.943104 0.346124 0.031806
O63   O     O_2   0.840505 0.927882 0.512463 -0.256397
O64   O     O_2   0.762816 0.910096 0.251046 -0.316327
O65   O     O_3   0.904657 0.941095 0.281196 -0.476371
H63   H     H_    0.925279 0.909008 0.305643 0.405691
S4    S     S_3+6 0.828393 0.055526 0.849051 0.073031
O66   O     O_2   0.783727 0.086754 0.723885 -0.311012
O67   O     O_2   0.830320 0.077653 0.003397 -0.235095
O68   O     O_3   0.921490 0.050694 0.830971 -0.420835
H64   H     H_    0.916315 0.039350 0.723857 0.377094
N5    N     N_R   0.981671 0.791225 0.575230 0.298354
O69   O     O_R   0.058183 0.793876 0.612392 -0.317513
O70   O     O_R   0.943622 0.829946 0.532921 -0.261588
N6    N     N_R   0.985471 0.205542 0.103601 0.299626
O71   O     O_R   0.061264 0.200524 0.145853 -0.281226
O72   O     O_R   0.943927 0.168654 0.047446 -0.208960
N7    N     N_R   0.490973 0.297431 0.626382 0.277101
O73   O     O_R   0.565066 0.301734 0.693366 -0.360934
O74   O     O_R   0.455807 0.334757 0.560332 -0.241592
N8    N     N_R   0.479292 0.705600 0.096728 0.302246
O75   O     O_R   0.553529 0.699524 0.158957 -0.270430
O76   O     O_R   0.442563 0.673456 0.001437 -0.154282
N9    N     N_R   0.858948 0.746533 0.550858 0.230732
O77   O     O_R   0.817411 0.783332 0.499377 -0.283511
O78   O     O_R   0.821701 0.709713 0.583120 -0.393936
N10   N     N_R   0.862596 0.243842 0.111623 0.232921
O79   O     O_R   0.825059 0.282830 0.074191 -0.402616
O80   O     O_R   0.822008 0.205697 0.116739 -0.280178
N11   N     N_R   0.362829 0.257912 0.580251 0.232695
O81   O     O_R   0.323448 0.296868 0.559619 -0.351996
O82   O     O_R   0.323624 0.218631 0.549669 -0.401590
N12   N     N_R   0.352686 0.742570 0.072613 0.227065
O83   O     O_R   0.314627 0.781451 0.041048 -0.450767
O84   O     O_R   0.312414 0.703595 0.061143 -0.356940
N13   N     N_R   0.697979 0.364951 0.003086 0.274637
O85   O     O_R   0.699882 0.331481 0.102157 -0.243431
O86   O     O_R   0.639209 0.393759 0.977024 -0.304756
N14   N     N_R   0.679200 0.628008 0.449819 0.268263
O87   O     O_R   0.610887 0.646093 0.392157 -0.300354
O88   O     O_R   0.687579 0.602616 0.572801 -0.289566
N15   N     N_R   0.200394 0.865697 0.002490 0.276466
O89   O     O_R   0.208732 0.833474 0.107111 -0.253557
O90   O     O_R   0.155110 0.901172 0.009347 -0.262333
N16   N     N_R   0.182635 0.128990 0.461447 0.261302
O91   O     O_R   0.108796 0.135513 0.395859 -0.334547
O92   O     O_R   0.202389 0.119762 0.608041 -0.238194
N17   N     N_R   0.111687 0.570952 0.461963 0.220923
O93   O     O_R   0.135733 0.551456 0.595757 -0.334978
O94   O     O_R   0.038139 0.566964 0.390614 -0.372072
N18   N     N_R   0.100364 0.425591 0.941133 0.230968
O95   O     O_R   0.126702 0.450531 0.064588 -0.351327
O96   O     O_R   0.026646 0.427638 0.870799 -0.375052
N19   N     N_R   0.606859 0.073118 0.453342 0.222001
O97   O     O_R   0.631656 0.051055 0.582351 -0.347678
O98   O     O_R   0.533661 0.069243 0.380543 -0.375440
N20   N     N_R   0.599451 0.925499 0.941652 0.234960
O99   O     O_R   0.623330 0.950431 0.065821 -0.339313
O100  O     O_R   0.526322 0.926860 0.867545 -0.382077
N21   N     N_R   0.733391 0.282445 0.434671 0.279741
O101  O     O_R   0.688902 0.319147 0.402601 -0.239430
O102  O     O_R   0.766436 0.265459 0.330195 -0.248854
N22   N     N_R   0.755354 0.722460 0.902447 0.268287
O103  O     O_R   0.805326 0.743908 0.839376 -0.291202
O104  O     O_R   0.703946 0.693994 0.819123 -0.286563
N23   N     N_R   0.240790 0.784945 0.429564 0.280144
O105  O     O_R   0.188016 0.817060 0.386013 -0.234140
O106  O     O_R   0.283520 0.771007 0.336671 -0.319078
N24   N     N_R   0.255487 0.218728 0.919976 0.258731
O107  O     O_R   0.305030 0.236148 0.846636 -0.366810
O108  O     O_R   0.196656 0.193431 0.845347 -0.226963
S5    S     S_3+6 0.072403 0.698545 0.161229 -0.062193
O109  O     O_2   0.045470 0.673818 0.288390 -0.363589
O110  O     O_2   0.088196 0.663783 0.045951 -0.293411
O111  O     O_3   0.155083 0.727569 0.231356 -0.549767
H65   H     H_    0.183248 0.726697 0.146686 0.396459
S6    S     S_3+6 0.085304 0.278910 0.549891 -0.001537
O112  O     O_2   0.104105 0.251124 0.419899 -0.299744
O113  O     O_2   0.081635 0.330134 0.513547 -0.265116
O114  O     O_3   0.160117 0.270942 0.698469 -0.496117
H66   H     H_    0.205267 0.270116 0.649483 0.430275
S7    S     S_3+6 0.604078 0.207797 0.093269 0.010970
O115  O     O_2   0.650181 0.204966 0.254671 -0.281419
O116  O     O_2   0.589618 0.159078 0.031582 -0.248636
O117  O     O_3   0.663648 0.236862 0.001054 -0.430436
H67   H     H_    0.632267 0.244765 0.898125 0.355742
S8    S     S_3+6 0.592157 0.788798 0.548755 -0.012303
O118  O     O_2   0.610362 0.765843 0.410057 -0.268114
O119  O     O_2   0.586747 0.840704 0.530769 -0.252705
O120  O     O_3   0.669929 0.777372 0.686489 -0.454003
H68   H     H_    0.651742 0.785595 0.778317 0.343579
S9    S     S_3+6 0.963432 0.769086 0.214322 0.028436
O121  O     O_2   0.925855 0.735390 0.302779 -0.419239
O122  O     O_2   0.033759 0.792197 0.317674 -0.179004
O123  O     O_3   0.898114 0.810703 0.145362 -0.516811
H69   H     H_    0.886094 0.825687 0.237754 0.396595
S10   S     S_3+6 0.001177 0.271210 0.791726 -0.020024
O124  O     O_2   0.073577 0.249967 0.891347 -0.186787
O125  O     O_2   0.003880 0.322895 0.825939 -0.423427
O126  O     O_3   0.921755 0.245403 0.827874 -0.553941
H70   H     H_    0.895755 0.270252 0.871592 0.335978
S11   S     S_3+6 0.502713 0.231476 0.296764 -0.035475
O127  O     O_2   0.515271 0.181139 0.344518 -0.378731
O128  O     O_2   0.562813 0.261541 0.403835 -0.247040
O129  O     O_3   0.412555 0.247297 0.305445 -0.587650
H71   H     H_    0.419372 0.277930 0.357268 0.406565
S12   S     S_3+6 0.505334 0.769002 0.786533 -0.049101
O130  O     O_2   0.568161 0.739481 0.885865 -0.249277
O131  O     O_2   0.517316 0.819731 0.832201 -0.429788
O132  O     O_3   0.418537 0.750439 0.807151 -0.503788
H72   H     H_    0.401304 0.776079 0.862948 0.338861
S13   S     S_3+6 0.000876 0.833246 0.934056 0.083981
O133  O     O_2   0.042683 0.855735 0.823511 -0.163607
O134  O     O_2   0.915875 0.829673 0.854672 -0.281628
O135  O     O_3   0.012323 0.868383 0.090804 -0.404696
H73   H     H_    0.990670 0.899098 0.050028 0.390589
S14   S     S_3+6 0.982375 0.159058 0.689974 0.130181
O136  O     O_2   0.048895 0.162509 0.830842 -0.104380
O137  O     O_2   0.905394 0.157136 0.736709 -0.169331
O138  O     O_3   0.992264 0.108299 0.599795 -0.442245
H74   H     H_    0.959241 0.111749 0.493403 0.345454
S15   S     S_3+6 0.462972 0.336485 0.058498 0.046689
O139  O     O_2   0.509217 0.379389 0.127304 -0.179809
O140  O     O_2   0.427346 0.346444 0.890965 -0.260168
O141  O     O_3   0.391442 0.327622 0.151026 -0.547363
H75   H     H_    0.399411 0.351941 0.233377 0.429321
S16   S     S_3+6 0.462396 0.661511 0.610666 0.065338
O142  O     O_2   0.392137 0.674994 0.668324 -0.206680
O143  O     O_2   0.435823 0.629807 0.472274 -0.293982
O144  O     O_3   0.523623 0.631671 0.751433 -0.425392
H76   H     H_    0.549673 0.608759 0.696184 0.391905
S17   S     S_3+6 0.748354 0.561522 0.982838 -0.025670
O145  O     O_2   0.726357 0.569967 0.132999 -0.418394
O146  O     O_2   0.836135 0.561461 0.010652 -0.259902
O147  O     O_3   0.707865 0.603618 0.861161 -0.444667
H77   H     H_    0.666142 0.616781 0.906885 0.393675
S18   S     S_3+6 0.737157 0.436428 0.435803 0.013171
O148  O     O_2   0.711212 0.406870 0.293218 -0.157011
O149  O     O_2   0.824517 0.435249 0.496520 -0.319562
O150  O     O_3   0.691952 0.416117 0.569009 -0.495965
H78   H     H_    0.716439 0.433886 0.663639 0.309991
S19   S     S_3+6 0.267305 0.060034 0.986841 -0.066649
O151  O     O_2   0.257711 0.058560 0.147728 -0.510719
O152  O     O_2   0.353295 0.060933 0.995380 -0.228444
O153  O     O_3   0.221166 0.107215 0.901238 -0.458406
H79   H     H_    0.174870 0.110772 0.946528 0.368811
S20   S     S_3+6 0.189249 0.936903 0.419065 0.060302
O154  O     O_2   0.211412 0.905111 0.303409 -0.173088
O155  O     O_2   0.236090 0.923892 0.576040 -0.356621
O156  O     O_3   0.092908 0.929082 0.411189 -0.425474
H80   H     H_    0.086779 0.895091 0.429614 0.425954

loop_
_geom_bond_atom_site_label_1
_geom_bond_atom_site_label_2
_geom_bond_distance
_ccdc_geom_bond_type
C8    S8    1.795014 S    
N7    O74   1.301882 A    
O138  H74   0.989943 S    
H2    C30   1.108397 S    
S9    O122  1.495733 D    
N19   O97   1.292309 A    
P5    O37   1.774944 S    
O126  H70   0.971101 S    
P6    C45   1.904445 S    
P7    O39   1.769829 S    
N23   O106  1.299065 A    
C40   C84   1.486236 S    
P8    O40   1.752536 S    
P9    O33   1.541669 D    
N16   O91   1.299986 A    
Ba1   Ba2   4.869837 S    
C54   C62   1.563495 S    
C44   N16   1.432747 S    
O23   P16   1.763116 S    
O37   C14   1.399753 S    
O10   Ba2   2.884130 S    
S4    O66   1.497990 D    
O14   P13   1.545701 D    
C3    C31   1.573055 S    
O12   Ba4   2.884130 S    
N3    O53   1.299418 A    
C1    C29   1.546577 S    
S8    O118  1.491970 D    
P2    O18   1.763476 S    
P4    O8    1.645259 S    
Ba3   O48   3.130072 S    
S17   O147  1.663081 S    
Ba1   O46   3.130072 S    
P5    C46   1.964748 S    
C75   C87   1.499394 S    
P5    O25   1.616790 D    
C64   C66   1.370187 D    
C37   C85   1.415633 A    
C49   C53   1.466578 A    
O1    Ba1   2.982157 S    
C27   H35   1.109233 S    
Ba2   O46   2.934340 S    
O129  H71   0.977272 S    
C51   C55   1.470430 A    
S6    O112  1.496929 D    
S2    O62   1.680055 S    
C70   C74   1.475726 S    
S1    O57   1.500663 D    
C6    S10   1.770593 S    
N23   O105  1.297405 A    
O44   C8    1.441327 S    
O19   C23   1.412611 S    
O135  H73   0.990544 S    
N24   O107  1.296568 A    
C76   C88   1.488634 S    
O4    Ba4   2.999696 S    
O38   C13   1.389614 S    
C37   N17   1.412956 S    
N12   O84   1.299592 A    
O156  H80   0.990722 S    
P1    Ba1   3.606515 S    
N22   O103  1.293744 A    
C54   C58   1.454940 A    
P3    Ba3   3.606515 S    
C16   H16   1.105948 S    
S20   O155  1.490415 D    
H4    C32   1.104668 S    
C2    N10   1.466798 S    
C15   C19   1.545461 S    
S4    O68   1.678998 S    
O39   C16   1.404444 S    
N17   O94   1.296360 A    
O25   Ba1   3.002936 S    
S10   O126  1.662915 S    
P5    O46   1.661118 S    
S8    O120  1.635941 S    
C35   C51   1.365047 D    
P4    Ba4   3.616229 S    
N15   O90   1.297558 A    
P3    O7    1.636020 S    
P11   O35   1.545504 D    
N21   O101  1.298818 A    
C12   H48   1.108092 S    
S15   O139  1.504379 D    
C4    N12   1.464769 S    
C66   C74   1.524301 S    
O11   Ba3   2.888205 S    
O27   Ba3   3.002936 S    
N6    O71   1.298289 A    
S7    O116  1.486245 D    
S13   O133  1.497424 D    
P10   C49   1.897740 S    
O24   P15   1.757855 S    
C43   N15   1.422751 S    
O42   C6    1.438239 S    
O147  H77   0.989669 S    
N5    O69   1.301373 A    
C34   H54   1.073196 S    
C21   C25   1.529401 S    
N19   O98   1.294112 A    
S1    O59   1.682782 S    
N9    O77   1.300595 A    
C38   C82   1.484682 S    
O141  H75   0.989661 S    
P2    Ba2   3.616229 S    
C34   C50   1.385261 D    
C20   H20   1.105732 S    
O111  H65   0.991214 S    
S18   O148  1.493723 D    
C7    S7    1.798552 S    
C31   H43   1.103595 S    
P5    Ba1   3.617633 S    
N10   O79   1.297306 A    
Ba4   O47   3.135019 S    
C38   N18   1.412038 S    
P8    C47   1.899088 S    
C4    N8    1.474764 S    
P9    C50   1.912829 S    
P6    O38   1.753979 S    
C18   N2    1.457658 S    
P7    C48   1.953312 S    
P8    O28   1.620920 D    
O2    Ba2   2.999696 S    
P9    O29   1.779938 S    
O3    Ba3   2.982157 S    
O62   H62   0.987200 S    
P10   O34   1.544842 D    
C3    N7    1.476967 S    
N21   O102  1.296502 A    
C55   C63   1.533070 S    
C39   C87   1.415212 A    
C53   C61   1.538511 S    
N2    O51   1.298679 A    
C42   C58   1.448713 A    
C79   C83   1.342607 D    
S5    O110  1.493853 D    
C64   N24   1.421251 S    
C77   H49   1.079555 S    
C33   C49   1.365109 D    
O123  H69   0.989293 S    
C10   S14   1.800998 S    
C13   S17   1.753817 S    
S10   O124  1.496039 D    
C74   C86   1.488941 S    
S19   O153  1.663233 S    
O11   P16   1.770680 S    
C15   S19   1.741345 S    
N1    O49   1.298383 A    
C2    C30   1.557352 S    
O23   C31   1.413610 S    
C28   H32   1.110108 S    
C9    H45   1.091062 S    
S18   O150  1.671995 S    
N18   O96   1.294687 A    
C80   H52   1.080542 S    
O21   C29   1.410066 S    
C6    C10   1.590379 S    
S3    O64   1.494362 D    
C26   H30   1.109575 S    
P6    O26   1.620920 D    
C25   H29   1.108883 S    
C50   C54   1.467659 A    
S13   O135  1.682698 S    
C27   H31   1.108218 S    
P9    O41   1.802073 S    
O13   P14   1.542850 D    
C39   C83   1.490484 S    
P14   C85   1.864175 S    
C21   H25   1.102689 S    
C9    H9    1.099083 S    
C22   S2    1.795343 S    
C23   H27   1.107492 S    
C70   C78   1.478183 S    
P1    C81   1.892036 S    
C12   H12   1.090841 S    
C5    S5    1.772318 S    
C39   N19   1.412516 S    
N11   O81   1.299995 A    
N3    O54   1.295418 A    
C69   C73   1.485392 S    
O10   P13   1.758938 S    
N16   O92   1.294129 A    
S16   O144  1.679519 S    
C72   C76   1.472962 S    
C3    N11   1.473939 S    
N8    O75   1.298281 A    
C11   S15   1.791060 S    
P11   C52   1.916126 S    
C78   C82   1.333982 D    
P12   C51   1.900440 S    
C11   H11   1.097024 S    
N13   O86   1.297403 A    
S4    O67   1.498943 D    
S15   O141  1.668010 S    
C17   H17   1.109712 S    
C19   H19   1.106825 S    
P4    C84   1.883217 S    
S11   O129  1.661305 S    
C25   H33   1.108126 S    
N14   O87   1.294749 A    
S8    O119  1.487461 D    
N4    O55   1.299241 A    
C53   C57   1.453762 A    
C65   H57   1.084508 S    
C16   C20   1.547751 S    
C19   H23   1.104412 S    
H3    C31   1.105564 S    
P16   C87   1.859285 S    
C13   H13   1.105520 S    
N4    O56   1.295238 A    
C56   C60   1.454121 A    
S17   O146  1.495598 D    
Ba1   O45   2.925733 S    
C15   H15   1.108363 S    
O153  H79   0.990452 S    
S3    O63   1.501908 D    
S19   O151  1.477747 D    
S2    O61   1.500980 D    
P1    O1    1.619450 D    
C44   C48   1.429674 A    
C33   H53   1.074023 S    
P10   O42   1.785224 S    
P3    O3    1.619450 D    
C41   N13   1.420578 S    
N20   O99   1.290575 A    
P4    O20   1.761337 S    
C68   H60   1.080231 S    
S6    O113  1.492591 D    
C1    N9    1.463602 S    
O9    P14   1.767149 S    
C36   C52   1.375551 D    
C65   C73   1.517834 S    
O29   Ba1   2.889511 S    
O5    Ba2   2.931577 S    
N24   O108  1.295586 A    
N15   O89   1.292150 A    
C68   C76   1.535632 S    
C5    C9    1.576795 S    
O7    Ba4   2.931577 S    
O20   C24   1.410908 S    
C80   C84   1.332208 D    
C13   C17   1.556826 S    
C56   C64   1.551440 S    
S6    O114  1.642043 S    
O117  H67   0.976788 S    
C36   H56   1.069249 S    
C20   N4    1.453267 S    
C10   H46   1.100050 S    
C61   N21   1.424211 S    
C38   C86   1.409585 A    
N22   O104  1.296849 A    
C18   H18   1.108051 S    
C34   C46   1.521010 S    
P1    O5    1.636020 S    
O32   Ba4   2.893849 S    
O8    Ba3   2.940135 S    
C30   H42   1.100904 S    
O132  H72   0.969177 S    
C11   H47   1.102888 S    
C14   H14   1.098367 S    
C23   S3    1.794434 S    
C1    H5    1.073591 S    
C24   H28   1.104556 S    
C21   S1    1.793322 S    
C16   S20   1.783756 S    
C3    H7    1.088036 S    
O40   C15   1.386320 S    
N17   O93   1.291985 A    
S11   O127  1.498341 D    
S12   O132  1.653303 S    
C9    S13   1.811214 S    
P10   O30   1.787104 S    
O65   H63   0.990125 S    
P12   O44   1.816774 S    
C1    N5    1.471806 S    
O21   P14   1.746033 S    
O26   Ba2   2.984917 S    
C33   C45   1.495128 S    
S2    O60   1.500781 D    
C6    S6    1.790422 S    
C19   N3    1.460391 S    
C41   C45   1.409469 A    
N6    O72   1.300418 A    
P13   C86   1.842195 S    
C29   H41   1.105332 S    
O28   Ba4   2.984917 S    
C28   H36   1.108979 S    
O30   Ba2   2.893849 S    
O6    Ba1   2.940135 S    
C32   H44   1.105025 S    
O22   C30   1.406352 S    
C42   N14   1.431947 S    
P15   C88   1.836258 S    
H1    C29   1.111627 S    
C14   C18   1.549479 S    
C40   N20   1.409826 S    
C24   C28   1.534993 S    
O15   P16   1.542777 D    
O120  H68   0.970731 S    
S1    O58   1.497846 D    
C61   C67   1.373706 D    
N11   O82   1.300247 A    
P7    O27   1.616790 D    
O41   C5    1.424880 S    
O59   H61   0.989271 S    
S16   O143  1.501832 D    
O43   C7    1.429703 S    
P7    Ba3   3.617633 S    
S7    O115  1.472312 D    
C52   C56   1.464088 A    
C79   H51   1.077560 S    
N10   O80   1.298834 A    
C10   H10   1.101511 S    
Ba3   Ba4   4.869837 S    
N12   O83   1.292666 A    
C62   N22   1.422690 S    
O17   C21   1.408191 S    
C41   C57   1.439642 A    
C7    C11   1.569586 S    
P1    O17   1.757115 S    
S9    O121  1.485428 D    
P3    O19   1.765296 S    
O144  H76   0.990090 S    
O24   C32   1.413732 S    
Ba2   O45   3.135019 S    
P4    O4    1.615323 D    
S20   O154  1.486066 D    
N2    O52   1.299353 A    
P8    Ba4   3.607328 S    
S5    O109  1.497580 D    
S16   O142  1.489733 D    
P8    O47   1.651590 S    
C35   H55   1.073721 S    
C22   C26   1.537154 S    
P7    O48   1.661118 S    
S10   O125  1.498612 D    
S19   O152  1.487038 D    
C25   H37   1.104299 S    
C14   S18   1.750033 S    
Ba4   O48   2.934340 S    
O31   Ba3   2.889511 S    
C27   H39   1.105749 S    
C8    S12   1.763179 S    
P3    C83   1.897517 S    
P6    O45   1.651590 S    
C71   C75   1.480826 S    
S7    O117  1.682824 S    
S13   O134  1.489492 D    
C43   C59   1.441426 A    
C44   C60   1.450672 A    
P2    O2    1.615323 D    
P6    Ba2   3.607328 S    
P11   O43   1.802795 S    
P12   O36   1.543725 D    
C78   H50   1.078892 S    
N5    O70   1.301593 A    
C4    H8    1.083568 S    
N9    O78   1.297322 A    
C2    H6    1.065517 S    
C73   C85   1.490921 S    
O18   C22   1.413012 S    
C55   C59   1.458213 A    
C17   H21   1.110344 S    
N8    O76   1.301373 A    
C24   S4    1.793494 S    
C67   H59   1.085408 S    
N13   O85   1.294244 A    
C8    C12   1.575507 S    
S15   O140  1.500207 D    
S12   O130  1.501092 D    
C63   N23   1.414171 S    
C4    C32   1.578398 S    
C23   C27   1.533342 S    
O150  H78   0.984260 S    
C36   C48   1.516946 S    
C35   C47   1.498705 S    
S11   O128  1.499529 D    
N14   O88   1.291611 A    
S14   O136  1.496129 D    
S14   O137  1.499249 D    
C28   H40   1.105114 S    
S9    O123  1.666726 S    
C43   C47   1.407179 A    
O9    Ba1   2.888205 S    
N7    O73   1.296247 A    
P2    O6    1.645259 S    
S20   O156  1.681909 S    
C20   H24   1.098332 S    
P11   O31   1.765833 S    
S17   O145  1.491167 D    
C22   H26   1.107384 S    
S5    O111  1.646817 S    
P12   O32   1.772450 S    
C71   C79   1.487809 S    
P2    C82   1.877796 S    
C69   C77   1.485621 S    
C67   C75   1.514925 S    
O68   H64   0.986676 S    
C5    S9    1.776272 S    
N1    O50   1.298700 A    
S14   O138  1.678361 S    
N18   O95   1.291633 A    
C12   S16   1.790511 S    
O22   P13   1.744827 S    
N20   O100  1.293550 A    
Ba3   O47   2.925733 S    
C77   C81   1.339181 D    
S18   O149  1.495572 D    
S3    O65   1.677815 S    
C7    S11   1.778218 S    
O16   P15   1.542975 D    
O114  H66   0.987123 S    
C42   C46   1.426858 A    
C17   N1    1.456588 S    
C26   H34   1.104154 S    
C72   C80   1.479472 S    
S12   O131  1.497498 D    
C66   H58   1.084722 S    
C26   H38   1.109471 S    
C2    N6    1.471488 S    
O12   P15   1.746887 S    
C18   H22   1.110746 S    
C40   C88   1.414562 A    
C62   C68   1.382851 D    
C37   C81   1.493279 S    
C63   C65   1.368095 D    
