data_mof_unit_14364.cif
_audit_creation_date              2012-12-10T17:59:18-0500
_audit_creation_method            fapswitch 2.2
_symmetry_space_group_name_H-M    P1
_symmetry_Int_Tables_number       1
_space_group_crystal_system       triclinic
_cell_length_a                    10.835538
_cell_length_b                    9.5142
_cell_length_c                    10.760624
_cell_angle_alpha                 89.777721
_cell_angle_beta                  90.969028
_cell_angle_gamma                 89.864609
_cell_volume                      1109.15833553

loop_
_atom_site_label
_atom_site_type_symbol
_atom_type_description
_atom_site_fract_x
_atom_site_fract_y
_atom_site_fract_z
_atom_type_partial_charge
C1    C     C_R   0.262248 0.500282 0.500535 0.894554
C2    C     C_3   0.617782 0.431866 0.931789 -0.390584
C3    C     C_R   0.066106 0.402418 0.575797 0.062143
C4    C     C_R   0.062494 0.601808 0.430970 0.081459
C5    C     C_R   0.936767 0.402339 0.576091 0.069655
C6    C     C_R   0.933406 0.599852 0.429347 0.061477
C7    C     C_R   0.871403 0.500127 0.501796 -0.084776
C8    C     C_R   0.128213 0.501216 0.502127 -0.076991
C9    C     C_R   0.421480 0.074992 0.423486 -0.018829
C10   C     C_R   0.421326 0.926157 0.423744 -0.024290
C11   C     C_R   0.578435 0.925011 0.576763 -0.021763
C12   C     C_R   0.578332 0.073896 0.576868 -0.023806
C13   C     C_R   0.497634 0.500531 0.259755 0.768443
C14   C     C_R   0.737614 0.499879 0.500934 0.881347
C15   C     C_R   0.500361 0.499974 0.740146 0.769485
C16   C     C_3   0.483723 0.656035 0.068409 -0.147718
C17   C     C_3   0.389486 0.406076 0.067574 -0.157589
C18   C     C_3   0.491435 0.654122 0.925946 -0.404573
C19   C     C_3   0.384337 0.419213 0.924138 -0.407694
C20   C     C_3   0.618973 0.440769 0.075204 -0.431551
C21   C     C_3   0.494671 0.502136 0.121440 0.069005
C22   C     C_3   0.498681 0.500757 0.877724 0.126486
Cu1   Cu    Cu3+1 0.500020 0.640660 0.500000 0.958803
Cu2   Cu    Cu3+1 0.500020 0.359340 0.500000 0.958150
H1    H     H_    0.562818 0.718991 0.104946 0.135019
H2    H     H_    0.412375 0.294907 0.091399 0.139079
H3    H     H_    0.641186 0.868416 0.638246 0.115442
H4    H     H_    0.640897 0.129610 0.638517 0.131392
H5    H     H_    0.410735 0.708778 0.881538 0.177012
H6    H     H_    0.298984 0.474734 0.891536 0.163448
H7    H     H_    0.575138 0.713103 0.897486 0.157695
H8    H     H_    0.381469 0.311930 0.883265 0.172184
H9    H     H_    0.697113 0.508163 0.107061 0.169733
H10   H     H_    0.635551 0.333982 0.114824 0.180365
H11   H     H_    0.700749 0.485608 0.894977 0.158085
H12   H     H_    0.622628 0.319758 0.903021 0.176992
H13   H     H_    0.358546 0.131556 0.362155 0.126779
H14   H     H_    0.357988 0.870488 0.363184 0.158735
N1    N     N_R   0.500030 0.852070 0.500030 -0.160367
N2    N     N_R   0.500030 0.147930 0.500030 -0.159049
O1    O     O_R   0.319660 0.618740 0.499990 -0.569387
O2    O     O_R   0.319660 0.381260 0.499990 -0.565647
O3    O     O_R   0.499990 0.618790 0.317690 -0.580032
O4    O     O_R   0.499990 0.381210 0.317690 -0.597870
O5    O     O_R   0.680370 0.618830 0.500010 -0.568833
O6    O     O_R   0.680370 0.381170 0.500010 -0.566946
O7    O     O_R   0.500030 0.618780 0.682310 -0.601799
O8    O     O_R   0.500030 0.381220 0.682310 -0.583667
C23   C     C_1   0.370506 0.730766 0.105130 0.261668
N3    N     N_1   0.282086 0.790904 0.132038 -0.323509
C24   C     C_1   0.267147 0.432718 0.120945 0.224269
N4    N     N_1   0.170848 0.452138 0.162468 -0.304212
N5    N     N_3   0.135313 0.306219 0.653244 -0.583404
H15   H     H_    0.112750 0.323258 0.746025 0.208859
H16   H     H_    0.111377 0.203441 0.629010 0.224073
N6    N     N_3   0.127506 0.704151 0.359027 -0.562869
H17   H     H_    0.098308 0.696688 0.266375 0.252242
H18   H     H_    0.105208 0.804276 0.391496 0.210198
N7    N     N_3   0.870917 0.306397 0.654089 -0.602479
H19   H     H_    0.894399 0.203557 0.630055 0.216657
H20   H     H_    0.896884 0.323795 0.746700 0.207536
N8    N     N_3   0.864297 0.695817 0.351489 -0.581130
H21   H     H_    0.887830 0.798780 0.375418 0.221024
H22   H     H_    0.886753 0.678265 0.258761 0.211870

loop_
_geom_bond_atom_site_label_1
_geom_bond_atom_site_label_2
_ccdc_geom_bond_type
C2    H11   S    
C2    C22   S    
Cu1   Cu2   S    
C4    C8    A    
C16   C21   S    
C12   N2    A    
C6    C7    A    
Cu1   O5    S    
C11   H3    S    
C7    C14   S    
C1    C8    S    
Cu2   O2    S    
C9    C10   A    
Cu1   O1    S    
C15   O7    A    
C10   H14   S    
C20   H10   S    
C20   C21   S    
C6    N8    S    
C9    H13   S    
C13   C21   S    
N7    H19   S    
C14   O6    A    
C18   H5    S    
N5    H15   S    
C4    N6    S    
C11   N1    A    
C3    N5    S    
C17   C24   S    
N8    H21   S    
C15   O8    A    
C12   H4    S    
Cu1   N1    S    
C17   H2    S    
C16   C18   S    
Cu2   N2    S    
N6    H18   S    
C3    C8    A    
C14   O5    A    
N5    H16   S    
Cu2   O4    S    
N7    H20   S    
Cu1   O7    S    
N6    H17   S    
C20   H9    S    
C2    C20   S    
C24   N4    T    
Cu2   O8    S    
C1    O2    A    
C13   O3    A    
C19   C22   S    
Cu1   O3    S    
C16   C23   S    
C4    C6    A    
C23   N3    T    
C15   C22   S    
C2    H12   S    
C16   H1    S    
C5    C7    A    
C5    N7    S    
C10   N1    A    
N8    H22   S    
C18   H7    S    
C17   C19   S    
C13   O4    A    
C18   C22   S    
C19   H6    S    
C19   H8    S    
C9    N2    A    
C17   C21   S    
C1    O1    A    
C11   C12   A    
Cu2   O6    S    
C3    C5    A    
