data_mof_unit_49033.cif
_audit_creation_date              2012-10-26T21:33:03-0400
_audit_creation_method            fapswitch 2.2
_symmetry_space_group_name_H-M    P1
_symmetry_Int_Tables_number       1
_space_group_crystal_system       triclinic
_cell_length_a                    28.190588
_cell_length_b                    18.405532
_cell_length_c                    17.048851
_cell_angle_alpha                 89.821381
_cell_angle_beta                  61.054719
_cell_angle_gamma                 90.019871
_cell_volume                      7740.9354253

loop_
_atom_site_label
_atom_site_type_symbol
_atom_type_description
_atom_site_fract_x
_atom_site_fract_y
_atom_site_fract_z
_atom_type_partial_charge
C1    C     C_R   0.701550 0.268039 0.676058 0.854900
C2    C     C_R   0.963749 0.628751 0.468221 -0.216858
C3    C     C_R   0.072613 0.898441 0.935230 0.888681
C4    C     C_R   0.572465 0.601744 0.935290 0.885619
C5    C     C_R   0.427554 0.398229 0.064698 0.888911
C6    C     C_R   0.427376 0.601547 0.064778 0.886032
C7    C     C_R   0.573123 0.399046 0.934912 0.885995
C8    C     C_R   0.556758 0.003994 0.479456 0.026781
C9    C     C_R   0.468150 0.002262 0.445593 0.025416
C10   C     C_R   0.032134 0.501853 0.553206 0.026699
C11   C     C_R   0.943542 0.503816 0.519359 0.025892
C12   C     C_R   0.526875 0.068026 0.489947 0.044486
C13   C     C_R   0.917635 0.382844 0.581124 -0.219955
C14   C     C_R   0.497080 0.937557 0.437067 0.044655
C15   C     C_R   0.486765 0.068550 0.462809 0.044959
C16   C     C_R   0.544944 0.940442 0.445307 0.046238
C17   C     C_R   0.013700 0.568223 0.535587 0.044201
C18   C     C_R   0.955284 0.440102 0.553630 0.046803
C19   C     C_R   0.973579 0.567845 0.508488 0.044319
C20   C     C_R   0.003178 0.437110 0.561692 0.045374
C21   C     C_R   0.631671 0.941834 0.486004 0.046673
C22   C     C_R   0.395708 0.067192 0.434526 0.049735
C23   C     C_R   0.397377 0.934839 0.430780 0.055136
C24   C     C_R   0.034082 0.632986 0.550369 -0.222348
C25   C     C_R   0.610902 0.066293 0.536931 0.061396
C26   C     C_R   0.102471 0.434347 0.569151 0.031741
C27   C     C_R   0.889280 0.566453 0.462200 0.062919
C28   C     C_R   0.868380 0.441796 0.513535 0.043911
C29   C     C_R   0.104313 0.566732 0.565122 0.068397
C30   C     C_R   0.667700 0.938769 0.523062 -0.154810
C31   C     C_R   0.344989 0.065845 0.434748 -0.208308
C32   C     C_R   0.345551 0.934991 0.433989 -0.214185
C33   C     C_R   0.656206 0.065436 0.552882 -0.220694
C34   C     C_R   0.153699 0.434563 0.567936 -0.135001
C35   C     C_R   0.582427 0.883193 0.418342 -0.218905
C36   C     C_R   0.843860 0.565696 0.446601 -0.222374
C37   C     C_R   0.832311 0.438862 0.476614 -0.167703
C38   C     C_R   0.154470 0.565413 0.566797 -0.237219
C39   C     C_R   0.676081 0.999946 0.563170 -0.092629
C40   C     C_R   0.324865 0.000332 0.421544 -0.083577
C41   C     C_R   0.172632 0.499843 0.585087 -0.087054
C42   C     C_R   0.823900 0.500245 0.436482 -0.096023
C43   C     C_R   0.599258 0.003759 0.501856 0.071747
C44   C     C_R   0.420458 0.001322 0.436548 0.077998
C45   C     C_R   0.079577 0.500870 0.562947 0.074144
C46   C     C_R   0.466448 0.133374 0.447832 -0.217832
C47   C     C_R   0.900928 0.503744 0.497285 0.072570
C48   C     C_R   0.071604 0.370678 0.581663 -0.167969
C49   C     C_R   0.923213 0.627458 0.443839 -0.158432
C50   C     C_R   0.873727 0.385281 0.565117 -0.160385
C51   C     C_R   0.076027 0.631663 0.570790 -0.158951
C52   C     C_R   0.626237 0.885482 0.434648 -0.148796
C53   C     C_R   0.424246 0.132135 0.427997 -0.163582
C54   C     C_R   0.428440 0.871320 0.417441 -0.172477
C55   C     C_R   0.577055 0.127227 0.554975 -0.158122
C56   C     C_2   0.701256 0.996644 0.622244 0.443411
C57   C     C_R   0.476988 0.872576 0.420675 -0.214571
C58   C     C_2   0.288350 0.000192 0.381356 0.456743
C59   C     C_2   0.203405 0.500139 0.636123 0.429329
C60   C     C_2   0.798584 0.497276 0.377617 0.447476
C61   C     C_2   0.586625 0.301303 0.790312 0.418745
C62   C     C_2   0.413884 0.696584 0.212420 0.420360
C63   C     C_2   0.414216 0.302296 0.212165 0.418597
C64   C     C_2   0.585802 0.697429 0.787815 0.431779
C65   C     C_2   0.086115 0.803493 0.787519 0.419405
C66   C     C_2   0.853607 0.093586 0.256818 0.504784
C67   C     C_2   0.914055 0.802594 0.212225 0.419059
C68   C     C_R   0.536705 0.128721 0.530174 -0.215491
C69   C     C_2   0.085789 0.197747 0.787845 0.421955
C70   C     C_R   0.728572 0.279297 0.945426 0.117430
C71   C     C_R   0.278279 0.732600 0.047683 0.118433
C72   C     C_R   0.278506 0.267026 0.047443 0.118689
C73   C     C_R   0.298970 0.733011 0.323701 0.872270
C74   C     C_R   0.721394 0.733186 0.952648 0.117576
C75   C     C_R   0.221610 0.767218 0.952428 0.118037
C76   C     C_R   0.786859 0.246065 0.038683 0.119124
C77   C     C_R   0.778161 0.767571 0.047811 0.116527
C78   C     C_R   0.221590 0.232895 0.952428 0.116694
C79   C     C_R   0.753895 0.211595 0.934990 -0.185893
C80   C     C_R   0.255721 0.801936 0.054443 -0.181341
C81   C     C_R   0.255441 0.197866 0.054957 -0.181052
C82   C     C_R   0.744418 0.802383 0.945085 -0.180929
C83   C     C_R   0.244163 0.697878 0.945673 -0.179302
C84   C     C_R   0.299051 0.266843 0.323728 0.863525
C85   C     C_R   0.762042 0.314227 0.048649 -0.180804
C86   C     C_R   0.755123 0.698383 0.055392 -0.183032
C87   C     C_R   0.244663 0.302052 0.944905 -0.176495
C88   C     C_R   0.782433 0.195240 0.980860 -0.168075
C89   C     C_R   0.227907 0.819071 0.007366 -0.172741
C90   C     C_R   0.227520 0.180973 0.008013 -0.173588
C91   C     C_R   0.772275 0.819399 0.992099 -0.170726
C92   C     C_R   0.271980 0.680743 0.992750 -0.171515
C93   C     C_R   0.733431 0.330717 0.002405 -0.171320
C94   C     C_R   0.727276 0.681364 0.008372 -0.173267
C95   C     C_R   0.700945 0.733166 0.676266 0.885261
C96   C     C_R   0.272588 0.318942 0.991843 -0.173678
C97   C     C_R   0.647934 0.334780 0.941262 -0.214962
C98   C     C_R   0.355943 0.672107 0.055461 -0.219325
C99   C     C_R   0.356378 0.327318 0.055033 -0.219105
C100  C     C_R   0.643602 0.672728 0.945000 -0.218656
C101  C     C_R   0.143983 0.827768 0.944601 -0.219181
C102  C     C_R   0.860311 0.179320 0.052027 -0.231387
C103  C     C_R   0.856091 0.827799 0.055281 -0.215136
C104  C     C_R   0.143720 0.172563 0.944850 -0.217267
C105  C     C_R   0.615820 0.345614 0.899226 -0.129925
C106  C     C_R   0.201020 0.766970 0.676303 0.873232
C107  C     C_R   0.386136 0.657163 0.099771 -0.130370
C108  C     C_R   0.386491 0.342247 0.099489 -0.131376
C109  C     C_R   0.613524 0.657722 0.900510 -0.129903
C110  C     C_R   0.113828 0.842788 0.900250 -0.129888
C111  C     C_R   0.878603 0.144500 0.106124 -0.088053
C112  C     C_R   0.886291 0.842551 0.099636 -0.123949
C113  C     C_R   0.113564 0.157693 0.900447 -0.133335
C114  C     C_R   0.628057 0.310714 0.819654 -0.063933
C115  C     C_R   0.373422 0.690651 0.180496 -0.060230
C116  C     C_R   0.373748 0.308540 0.180261 -0.062392
C117  C     C_R   0.796597 0.228299 0.325230 0.879674
C118  C     C_R   0.626279 0.691359 0.819711 -0.070700
C119  C     C_R   0.126555 0.809336 0.819498 -0.059331
C120  C     C_R   0.851116 0.151844 0.197892 -0.113618
C121  C     C_R   0.873558 0.808848 0.180377 -0.049535
C122  C     C_R   0.126269 0.191464 0.819723 -0.067143
C123  C     C_R   0.679237 0.280729 0.771439 -0.109902
C124  C     C_R   0.322863 0.722899 0.227346 -0.124093
C125  C     C_R   0.323067 0.276534 0.227288 -0.119913
C126  C     C_R   0.676943 0.723419 0.772692 -0.124191
C127  C     C_R   0.177101 0.777044 0.772672 -0.122086
C128  C     C_R   0.798982 0.766987 0.323769 0.859880
C129  C     C_R   0.816187 0.209894 0.232586 -0.109135
C130  C     C_R   0.822858 0.776929 0.227446 -0.108895
C131  C     C_R   0.176935 0.223502 0.772700 -0.109414
C132  C     C_R   0.712168 0.269784 0.812378 -0.222785
C133  C     C_R   0.292026 0.738406 0.183694 -0.214982
C134  C     C_R   0.292210 0.260997 0.183659 -0.214769
C135  C     C_R   0.707778 0.739018 0.816343 -0.211341
C136  C     C_R   0.207900 0.761460 0.816370 -0.212398
C137  C     C_R   0.795921 0.244986 0.180389 -0.197216
C138  C     C_R   0.791879 0.761622 0.183977 -0.219976
C139  C     C_R   0.200942 0.233185 0.676269 0.903808
C140  C     C_R   0.207810 0.239027 0.816299 -0.191093
C141  C     C_R   0.695665 0.294285 0.899544 0.073939
C142  C     C_R   0.309521 0.715298 0.095654 0.074184
C143  C     C_R   0.309825 0.284105 0.095379 0.073027
C144  C     C_R   0.690137 0.715973 0.904653 0.073218
C145  C     C_R   0.190389 0.784544 0.904428 0.075202
C146  C     C_R   0.815215 0.225114 0.090472 0.078286
C147  C     C_R   0.809478 0.784713 0.095715 0.075776
C148  C     C_R   0.190248 0.215830 0.904526 0.068139
C149  C     C_R   0.690789 0.129620 0.536002 0.899466
C150  C     C_R   0.023221 0.371970 0.577955 -0.213780
C151  C     C_R   0.309496 0.870390 0.461848 0.885905
C152  C     C_R   0.309246 0.129844 0.462136 0.883930
C153  C     C_R   0.695320 0.872327 0.521838 0.883562
C154  C     C_R   0.190669 0.629603 0.538173 0.863982
C155  C     C_R   0.804713 0.372343 0.477993 0.893916
C156  C     C_R   0.809237 0.629753 0.463833 0.886814
C157  C     C_R   0.190454 0.370424 0.538170 0.924089
C158  C     C_R   0.072468 0.101748 0.935277 0.904817
C159  C     C_R   0.927473 0.898333 0.064765 0.905994
C160  C     C_R   0.924319 0.097022 0.067420 0.901245
H1    H     H_    0.082375 0.319380 0.599495 0.181144
H2    H     H_    0.988717 0.676994 0.451476 0.149336
H3    H     H_    0.920178 0.336775 0.618290 0.142657
H4    H     H_    0.015800 0.684939 0.551686 0.150160
H5    H     H_    0.579828 0.837216 0.381400 0.143279
H6    H     H_    0.484858 0.185325 0.446189 0.149905
H7    H     H_    0.497252 0.821219 0.412902 0.148398
H8    H     H_    0.511822 0.176910 0.546666 0.149604
H9    H     H_    0.715321 0.383969 0.011088 0.131035
H10   H     H_    0.287900 0.626351 0.987025 0.133174
H11   H     H_    0.288876 0.373223 0.985497 0.133534
H12   H     H_    0.919990 0.674052 0.407894 0.171192
H13   H     H_    0.711024 0.627057 0.014753 0.132294
H14   H     H_    0.211991 0.873466 0.013086 0.132207
H15   H     H_    0.799721 0.141484 0.972960 0.138757
H16   H     H_    0.788553 0.873692 0.985698 0.135493
H17   H     H_    0.211237 0.126690 0.014355 0.131797
H18   H     H_    0.750288 0.170115 0.893270 0.134609
H19   H     H_    0.260490 0.843524 0.094898 0.131161
H20   H     H_    0.259884 0.156212 0.095921 0.131078
H21   H     H_    0.739999 0.843966 0.904021 0.134022
H22   H     H_    0.239395 0.656292 0.905215 0.133900
H23   H     H_    0.844195 0.342309 0.594869 0.178068
H24   H     H_    0.764936 0.354983 0.091782 0.130135
H25   H     H_    0.759550 0.656792 0.096442 0.133740
H26   H     H_    0.240219 0.343711 0.903947 0.142269
H27   H     H_    0.635771 0.358202 0.006424 0.158604
H28   H     H_    0.368553 0.649735 0.989629 0.159169
H29   H     H_    0.369100 0.349831 0.989047 0.159143
H30   H     H_    0.630856 0.650265 0.011016 0.157927
H31   H     H_    0.131359 0.850115 0.010451 0.158506
H32   H     H_    0.879860 0.168618 0.980694 0.153579
H33   H     H_    0.868809 0.850309 0.989296 0.157566
H34   H     H_    0.084264 0.682271 0.593664 0.180509
H35   H     H_    0.131038 0.149985 0.010790 0.157310
H36   H     H_    0.751533 0.244331 0.775500 0.160457
H37   H     H_    0.253420 0.766004 0.219099 0.164197
H38   H     H_    0.253477 0.233491 0.219279 0.164754
H39   H     H_    0.746498 0.766555 0.780735 0.165270
H40   H     H_    0.246494 0.733830 0.780985 0.163449
H41   H     H_    0.763432 0.284191 0.210951 0.156753
H42   H     H_    0.753099 0.734238 0.219673 0.161341
H43   H     H_    0.246524 0.266577 0.780680 0.167006
H44   H     H_    0.675452 0.996924 0.694401 0.009528
H45   H     H_    0.655630 0.842518 0.405264 0.179809
H46   H     H_    0.305871 0.999634 0.308993 0.004332
H47   H     H_    0.220320 0.549725 0.646209 0.081941
H48   H     H_    0.824290 0.498262 0.305439 0.012637
H49   H     H_    0.561183 0.253174 0.810869 0.010545
H50   H     H_    0.439909 0.744068 0.194516 0.010823
H51   H     H_    0.440041 0.254752 0.194494 0.012294
H52   H     H_    0.559632 0.744643 0.806050 0.016801
H53   H     H_    0.060040 0.756061 0.805433 0.012963
H54   H     H_    0.876360 0.101686 0.292342 0.084898
H55   H     H_    0.940008 0.755168 0.194272 0.007823
H56   H     H_    0.415789 0.182868 0.405435 0.181187
H57   H     H_    0.060046 0.245369 0.805391 0.022849
H58   H     H_    0.417548 0.820134 0.399771 0.179811
H59   H     H_    0.580163 0.173605 0.591040 0.172365
H60   H     H_    0.002995 0.320560 0.585394 0.146797
O1    O     O_R   0.746490 0.236330 0.638080 -0.654967
O2    O     O_R   0.325830 0.813840 0.483730 -0.640153
O3    O     O_R   0.325830 0.186160 0.483730 -0.648496
O4    O     O_R   0.674170 0.813840 0.516270 -0.655355
O5    O     O_R   0.174170 0.686160 0.516270 -0.629900
O6    O     O_R   0.825830 0.313840 0.483730 -0.651535
O7    O     O_R   0.825830 0.686160 0.483730 -0.644716
O8    O     O_R   0.174170 0.313840 0.516270 -0.656269
O9    O     O_R   0.739960 0.127620 0.525000 -0.565883
O10   O     O_R   0.260040 0.872380 0.475000 -0.561028
O11   O     O_R   0.260040 0.127620 0.475000 -0.563824
O12   O     O_R   0.253510 0.763670 0.361920 -0.640249
O13   O     O_R   0.739960 0.872380 0.525000 -0.563250
O14   O     O_R   0.239960 0.627620 0.525000 -0.630772
O15   O     O_R   0.760040 0.372380 0.475000 -0.563088
O16   O     O_R   0.760040 0.627620 0.475000 -0.562236
O17   O     O_R   0.239960 0.372380 0.525000 -0.568872
O18   O     O_R   0.680700 0.294870 0.629350 -0.577179
O19   O     O_R   0.319300 0.705130 0.370650 -0.576791
O20   O     O_R   0.319300 0.294870 0.370650 -0.583365
O21   O     O_R   0.680700 0.705130 0.629350 -0.567231
O22   O     O_R   0.180700 0.794870 0.629350 -0.571930
O23   O     O_R   0.253510 0.236330 0.361920 -0.642539
O24   O     O_R   0.819300 0.205130 0.370650 -0.650496
O25   O     O_R   0.819300 0.794870 0.370650 -0.574478
O26   O     O_R   0.180700 0.205130 0.629350 -0.581552
O27   O     O_R   0.062020 0.072840 0.007170 -0.638102
O28   O     O_R   0.937980 0.927160 0.992830 -0.638298
O29   O     O_R   0.937980 0.072840 0.992830 -0.628331
O30   O     O_R   0.062020 0.927160 0.007170 -0.635570
O31   O     O_R   0.562020 0.572840 0.007170 -0.636413
O32   O     O_R   0.437980 0.427160 0.992830 -0.635073
O33   O     O_R   0.437980 0.572840 0.992830 -0.635294
O34   O     O_R   0.746490 0.763670 0.638080 -0.637836
O35   O     O_R   0.562020 0.427160 0.007170 -0.636664
O36   O     O_R   0.947860 0.073950 0.109290 -0.633951
O37   O     O_R   0.052140 0.926050 0.890710 -0.562283
O38   O     O_R   0.052140 0.073950 0.890710 -0.559006
O39   O     O_R   0.947860 0.926050 0.109290 -0.559646
O40   O     O_R   0.447860 0.573950 0.109290 -0.563701
O41   O     O_R   0.552140 0.426050 0.890710 -0.562349
O42   O     O_R   0.552140 0.573950 0.890710 -0.563774
O43   O     O_R   0.447860 0.426050 0.109290 -0.562434
O44   O     O_2   0.750446 0.996293 0.590936 -0.517334
O45   O     O_R   0.246490 0.736330 0.638080 -0.646707
O46   O     O_2   0.239108 0.000427 0.428227 -0.510705
O47   O     O_2   0.206117 0.445784 0.675032 -0.586301
O48   O     O_2   0.749382 0.496517 0.409120 -0.516721
O49   O     O_2   0.581093 0.346689 0.742959 -0.513102
O50   O     O_2   0.417813 0.649232 0.259291 -0.517355
O51   O     O_2   0.418378 0.349440 0.258745 -0.517883
O52   O     O_2   0.581885 0.650384 0.740889 -0.508276
O53   O     O_2   0.082251 0.850869 0.740613 -0.510988
O54   O     O_2   0.831256 0.035327 0.263329 -0.543711
O55   O     O_2   0.918150 0.849662 0.258956 -0.510885
O56   O     O_R   0.753510 0.263670 0.361920 -0.622992
O57   O     O_2   0.081561 0.150579 0.741357 -0.515107
O58   O     O_R   0.753510 0.736330 0.361920 -0.657046
O59   O     O_R   0.246490 0.263670 0.638080 -0.621753
O60   O     O_R   0.674170 0.186160 0.516270 -0.643592
Zn1   Zn    Zn3+2 0.792340 0.208750 0.507670 0.986246
Zn2   Zn    Zn3+2 0.494040 0.500000 0.919480 1.041213
Zn3   Zn    Zn3+2 0.005960 0.000000 0.080520 0.991322
Zn4   Zn    Zn3+2 0.994040 0.000000 0.919480 1.044365
Zn5   Zn    Zn3+2 0.207660 0.791250 0.492330 1.043021
Zn6   Zn    Zn3+2 0.207660 0.208750 0.492330 1.042642
Zn7   Zn    Zn3+2 0.792340 0.791250 0.507670 1.045988
Zn8   Zn    Zn3+2 0.292340 0.708750 0.507670 0.996003
Zn9   Zn    Zn3+2 0.707660 0.291250 0.492330 1.049697
Zn10  Zn    Zn3+2 0.707660 0.708750 0.492330 1.039576
Zn11  Zn    Zn3+2 0.292340 0.291250 0.507670 1.035643
Zn12  Zn    Zn3+2 0.505960 0.500000 0.080520 1.036781

loop_
_geom_bond_atom_site_label_1
_geom_bond_atom_site_label_2
_ccdc_geom_bond_type
C155  O6    A    
C36   C42   A    
C3    O30   A    
O12   Zn5   S    
C28   C47   A    
C82   H21   S    
C88   H15   S    
C13   C18   A    
C139  O59   A    
C73   O19   A    
C16   C35   A    
C135  H39   S    
C151  O10   A    
C64   C118  S    
C1    O1    A    
C149  O60   A    
C37   C42   A    
C74   C94   A    
O2    Zn8   S    
C131  C140  A    
O45   Zn8   S    
C134  C143  A    
C113  C122  A    
C92   H10   S    
O37   Zn4   S    
C159  O39   A    
C77   C147  S    
C78   C148  S    
C152  O11   A    
C97   C105  A    
C24   C51   A    
C70   C79   A    
C90   H17   S    
C76   C146  S    
C100  C109  A    
C8    C16   A    
C102  C111  A    
C24   H4    S    
C89   H14   S    
O18   Zn9   S    
C109  C118  A    
C13   H3    S    
C87   H26   S    
C40   C58   S    
C154  O5    A    
C137  C146  A    
C70   C93   A    
C127  C136  A    
C100  C144  A    
C101  C110  A    
C106  C127  S    
C82   C91   A    
C120  C129  A    
C29   C45   A    
C103  C112  A    
C111  C160  S    
O22   Zn5   S    
C65   H53   S    
O7    Zn7   S    
C39   C56   S    
O9    Zn1   S    
C11   C19   A    
C154  O14   A    
C38   C41   A    
C81   C90   A    
C124  C133  A    
C85   H24   S    
C130  C138  A    
O28   Zn4   S    
C99   C143  A    
C97   H27   S    
C14   C57   A    
C77   C91   A    
C106  O45   A    
C133  H37   S    
C2    C19   A    
C100  H30   S    
C25   C55   A    
C81   H20   S    
C101  H31   S    
O60   Zn9   S    
C151  O2    A    
C59   O47   D    
C9    C15   A    
C33   C149  S    
C138  H42   S    
C160  O36   A    
C46   C53   A    
C104  H35   S    
O4    Zn10  S    
C136  H40   S    
O23   Zn6   S    
C72   C96   A    
C129  C137  A    
C86   H25   S    
C4    O42   A    
C152  O3    A    
C5    O43   A    
C64   H52   S    
C76   C85   A    
C78   C87   A    
C4    C109  S    
O40   Zn12  S    
C11   C18   A    
O29   Zn4   S    
C123  C132  A    
O25   Zn7   S    
O30   Zn3   S    
C121  C130  A    
C25   C43   A    
C103  C147  A    
O42   Zn2   S    
C99   C108  A    
C12   C68   A    
C101  C145  A    
C133  C142  A    
C128  O25   A    
C3    C110  S    
C63   O51   D    
C64   O52   D    
C157  O8    A    
C85   C93   A    
C71   C92   A    
C29   C38   A    
C98   H28   S    
C62   O50   D    
O11   Zn6   S    
C117  C129  S    
C98   C142  A    
C5    O32   A    
C67   C121  S    
C128  O58   A    
C65   O53   D    
C52   H45   S    
C80   H19   S    
C153  O4    A    
O17   Zn11  S    
C10   C20   A    
C55   H59   S    
C3    O37   A    
C6    O33   A    
C8    C12   A    
C10   C45   A    
C62   H50   S    
O56   Zn9   S    
C68   H8    S    
C116  C125  A    
O26   Zn6   S    
C158  O27   A    
C114  C123  A    
C122  C131  A    
C29   C51   A    
C59   H47   S    
C132  C141  A    
C70   C141  S    
O36   Zn3   S    
C160  O29   A    
O15   Zn9   S    
C63   H51   S    
C110  C119  A    
C49   H12   S    
C149  O9    A    
O1    Zn1   S    
C62   C115  S    
C95   C126  S    
C137  H41   S    
C69   C122  S    
C156  O16   A    
O10   Zn5   S    
C20   C150  A    
C30   C39   A    
C7    O41   A    
C159  O28   A    
C131  C139  S    
C75   C89   A    
C94   H13   S    
C13   C50   A    
C34   C157  S    
C61   C114  S    
O38   Zn4   S    
C15   C46   A    
C27   C49   A    
C25   C33   A    
C54   C57   A    
C119  C127  A    
C125  C134  A    
C48   C150  A    
C104  C148  A    
C11   C47   A    
C8    C43   A    
C55   C68   A    
O34   Zn7   S    
C78   C90   A    
C93   H9    S    
O24   Zn1   S    
C69   H57   S    
C106  O22   A    
C58   H46   S    
C27   C47   A    
C31   C40   A    
C6    O40   A    
C80   C89   A    
O27   Zn3   S    
C96   H11   S    
C102  H32   S    
C6    C107  S    
C7    C105  S    
C54   H58   S    
C72   C81   A    
C26   C48   A    
O31   Zn12  S    
C2    H2    S    
C34   C41   A    
C74   C82   A    
C61   O49   D    
C79   C88   A    
O58   Zn10  S    
C60   H48   S    
C48   H1    S    
C158  O38   A    
C23   C44   A    
C66   H54   S    
C9    C14   A    
C1    C123  S    
O32   Zn2   S    
C12   C15   A    
C65   C119  S    
C153  O13   A    
C61   H49   S    
C95   O34   A    
C97   C141  A    
C63   C116  S    
C156  O7    A    
C157  O17   A    
C126  C135  A    
C66   O54   D    
O33   Zn2   S    
C36   C156  S    
C84   C125  S    
O20   Zn11  S    
C74   C144  S    
C115  C124  A    
C46   H6    S    
C7    O35   A    
C4    O31   A    
C128  C130  S    
C57   H7    S    
C27   C36   A    
C21   C30   A    
C23   C32   A    
C108  C116  A    
O6    Zn1   S    
C75   C83   A    
O13   Zn7   S    
O14   Zn8   S    
C84   O23   A    
C67   O55   D    
C98   C107  A    
C117  O24   A    
C112  C121  A    
C35   C52   A    
C150  H60   S    
C103  H33   S    
C139  O26   A    
O16   Zn10  S    
C5    C108  S    
C72   C143  S    
O19   Zn8   S    
C112  C159  S    
O3    Zn11  S    
O43   Zn12  S    
C37   C155  S    
C67   H55   S    
C50   H23   S    
C140  C148  A    
C75   C145  S    
C83   C92   A    
C33   C39   A    
C28   C37   A    
C56   O44   D    
C10   C17   A    
C86   C94   A    
C35   H5    S    
O21   Zn10  S    
C21   C43   A    
C28   C50   A    
C26   C34   A    
C30   C153  S    
C22   C44   A    
C91   H16   S    
C113  C158  S    
C76   C88   A    
C136  C145  A    
C26   C45   A    
C66   C120  S    
C84   O20   A    
C117  O56   A    
C71   C80   A    
C22   C53   A    
C17   C24   A    
C22   C31   A    
C105  C114  A    
C41   C59   S    
C140  H43   S    
C42   C60   S    
C99   H29   S    
C104  C113  A    
C83   H22   S    
C111  C120  A    
O5    Zn5   S    
O35   Zn12  S    
C2    C49   A    
C155  O15   A    
C138  C147  A    
C73   C124  S    
C69   O57   D    
C87   C96   A    
C58   O46   D    
C79   H18   S    
C107  C115  A    
C71   C142  S    
C135  C144  A    
C95   O21   A    
C77   C86   A    
O59   Zn11  S    
C14   C16   A    
C38   C154  S    
C23   C54   A    
C134  H38   S    
C9    C44   A    
C51   H34   S    
C56   H44   S    
C1    O18   A    
C53   H56   S    
C73   O12   A    
O39   Zn3   S    
C60   O48   D    
C102  C146  A    
C31   C152  S    
C32   C151  S    
C17   C19   A    
C18   C20   A    
C32   C40   A    
O41   Zn2   S    
O8    Zn6   S    
C132  H36   S    
C118  C126  A    
C21   C52   A    
