data_mof_unit_19085.cif
_audit_creation_date              2012-12-10T19:02:20-0500
_audit_creation_method            fapswitch 2.2
_symmetry_space_group_name_H-M    P1
_symmetry_Int_Tables_number       1
_space_group_crystal_system       triclinic
_cell_length_a                    14.332567
_cell_length_b                    10.78087
_cell_length_c                    9.611051
_cell_angle_alpha                 90.281171
_cell_angle_beta                  89.712115
_cell_angle_gamma                 90.360638
_cell_volume                      1485.01015608

loop_
_atom_site_label
_atom_site_type_symbol
_atom_type_description
_atom_site_fract_x
_atom_site_fract_y
_atom_site_fract_z
_atom_type_partial_charge
C1    C     C_R   0.500952 0.262829 0.499621 0.820082
C2    C     C_1   0.771138 0.500143 0.499379 -0.198940
C3    C     C_R   0.426610 0.065553 0.560467 0.041088
C4    C     C_R   0.499522 0.129800 0.497111 -0.056302
C5    C     C_R   0.566938 0.064188 0.421311 -0.224078
C6    C     C_R   0.566931 0.934763 0.425154 -0.167096
C7    C     C_R   0.497374 0.870998 0.499698 -0.102176
C8    C     C_R   0.423453 0.937615 0.558999 0.047520
C9    C     C_3   0.382648 0.934951 0.703497 0.291512
C10   C     C_3   0.389185 0.075673 0.704673 -0.392986
C11   C     C_R   0.563661 0.568831 0.072564 0.043418
C12   C     C_R   0.331244 0.498443 0.500206 0.810944
C13   C     C_R   0.441866 0.423355 0.073492 0.252336
C14   C     C_R   0.438475 0.428321 0.924849 0.518822
C15   C     C_R   0.566997 0.563355 0.925952 -0.013851
C16   C     C_3   0.587352 0.699489 0.916714 0.270394
C17   C     C_3   0.579072 0.706889 0.075187 0.238576
C18   C     C_R   0.498305 0.737424 0.500445 0.785249
C19   C     C_R   0.668772 0.500206 0.499721 0.795851
C20   C     C_1   0.228871 0.498211 0.500487 -0.199389
C21   C     C_1   0.143429 0.498484 0.500597 -0.005503
C22   C     C_1   0.042747 0.499025 0.500457 0.012778
C23   C     C_1   0.957288 0.499489 0.500135 0.007014
C24   C     C_1   0.856594 0.499930 0.499649 -0.013954
Cu1   Cu    Cu3+1 0.500000 0.499980 0.640670 0.968033
Cu2   Cu    Cu3+1 0.500000 0.500020 0.359330 1.012749
H1    H     H_    0.621884 0.112740 0.365640 0.146064
H2    H     H_    0.530735 0.748577 0.862511 0.129000
H3    H     H_    0.643450 0.733568 0.132713 0.090908
H4    H     H_    0.622462 0.884449 0.373395 0.143788
H5    H     H_    0.427571 0.891247 0.782783 0.075372
H6    H     H_    0.320580 0.123256 0.707906 0.238748
H7    H     H_    0.441730 0.112095 0.779479 0.186512
N1    N     N_R   0.500540 0.500930 0.147930 -0.190864
N2    N     N_R   0.500540 0.500890 0.852020 -0.243584
O1    O     O_R   0.500000 0.319640 0.618810 -0.545540
O2    O     O_R   0.500010 0.319680 0.381230 -0.538941
O3    O     O_R   0.376050 0.499980 0.618820 -0.559398
O4    O     O_R   0.376060 0.500020 0.381230 -0.508835
O5    O     O_R   0.499990 0.680320 0.618770 -0.601332
O6    O     O_R   0.500000 0.680360 0.381190 -0.515111
O7    O     O_R   0.623940 0.499980 0.618770 -0.549693
O8    O     O_R   0.623950 0.500020 0.381180 -0.571633
O9    O     O_3   0.497745 0.770163 0.118668 -0.560111
C25   C     C_3   0.510582 0.899391 0.102448 -0.248849
H8    H     H_    0.457288 0.948155 0.166046 0.222495
H9    H     H_    0.500107 0.926859 0.992814 0.141986
H10   H     H_    0.580532 0.932246 0.136820 0.146016
O10   O     O_3   0.288104 0.897039 0.706250 -0.546043
C26   C     C_3   0.282798 0.766811 0.703249 -0.223281
H11   H     H_    0.324489 0.724360 0.787825 0.148983
H12   H     H_    0.305367 0.731894 0.599918 0.145144
H13   H     H_    0.209012 0.738240 0.718751 0.177518
Br1   Br    Br    0.364098 0.301922 0.164559 -0.496841
O11   O     O_3   0.375769 0.354769 0.852410 -0.552615
C27   C     C_3   0.285590 0.407141 0.861380 -0.237490
H14   H     H_    0.243418 0.370835 0.773562 0.178173
H15   H     H_    0.286147 0.510230 0.854037 0.129391
H16   H     H_    0.249039 0.378797 0.957922 0.193002
O12   O     O_3   0.676413 0.736407 0.863429 -0.577052
C28   C     C_3   0.748847 0.651002 0.889019 -0.277183
H17   H     H_    0.739110 0.564920 0.826763 0.187503
H18   H     H_    0.755262 0.628827 0.001246 0.131273
H19   H     H_    0.815871 0.693549 0.855449 0.190432

loop_
_geom_bond_atom_site_label_1
_geom_bond_atom_site_label_2
_ccdc_geom_bond_type
Cu1   O7    S    
C16   H2    S    
C28   H19   S    
C26   H12   S    
C23   C24   S    
C27   H16   S    
Cu2   O2    S    
C6    C7    A    
C13   C14   A    
Cu1   O3    S    
C17   H3    S    
C9    C10   S    
C11   N1    A    
C19   O7    A    
C1    O2    A    
O11   C27   S    
C7    C18   S    
C21   C22   S    
C12   C20   S    
C12   O4    A    
C28   H18   S    
C26   H11   S    
Cu1   Cu2   S    
C17   O9    S    
C13   N1    A    
C3    C10   S    
C25   H8    S    
O9    C25   S    
C2    C24   T    
C5    C6    A    
Cu1   N2    S    
C15   N2    A    
C6    H4    S    
C19   O8    A    
Cu2   O8    S    
C14   O11   S    
C10   H7    S    
C25   H9    S    
Cu1   O5    S    
C12   O3    A    
C28   H17   S    
Cu2   O4    S    
C3    C8    A    
C1    C4    S    
C15   C16   S    
C9    H5    S    
Cu1   O1    S    
C3    C4    A    
C26   H13   S    
C10   H6    S    
C7    C8    A    
C9    O10   S    
C27   H14   S    
Cu2   O6    S    
C8    C9    S    
C20   C21   T    
C13   Br1   S    
C16   O12   S    
C25   H10   S    
C14   N2    A    
O10   C26   S    
C18   O5    A    
C22   C23   T    
C4    C5    A    
C2    C19   S    
C5    H1    S    
C11   C15   A    
Cu2   N1    S    
O12   C28   S    
C11   C17   S    
C18   O6    A    
C1    O1    A    
C27   H15   S    
C16   C17   S    
