data_mof_unit_13917.cif
_audit_creation_date              2012-12-10T19:09:04-0500
_audit_creation_method            fapswitch 2.2
_symmetry_space_group_name_H-M    P1
_symmetry_Int_Tables_number       1
_space_group_crystal_system       triclinic
_cell_length_a                    17.70438
_cell_length_b                    10.854945
_cell_length_c                    9.544787
_cell_angle_alpha                 90.071338
_cell_angle_beta                  90.032308
_cell_angle_gamma                 90.830938
_cell_volume                      1834.12321402

loop_
_atom_site_label
_atom_site_type_symbol
_atom_type_description
_atom_site_fract_x
_atom_site_fract_y
_atom_site_fract_z
_atom_type_partial_charge
C1    C     C_R   0.498086 0.262368 0.499752 0.803759
C2    C     C_R   0.885128 0.485181 0.498704 0.123406
C3    C     C_1   0.965798 0.485691 0.499936 -0.044060
C4    C     C_1   0.033528 0.487626 0.500941 0.021184
C5    C     C_R   0.153479 0.488325 0.630403 0.480881
C6    C     C_R   0.232935 0.489441 0.628276 -0.307754
C7    C     C_R   0.272417 0.498390 0.500852 -0.082334
C8    C     C_R   0.231959 0.504366 0.374623 -0.190783
C9    C     C_R   0.153344 0.500427 0.375660 -0.242894
C10   C     C_R   0.114319 0.491289 0.502564 0.058789
C11   C     C_R   0.465479 0.062986 0.613677 0.054663
C12   C     C_R   0.355501 0.499695 0.500110 0.807222
C13   C     C_R   0.490750 0.129274 0.496872 -0.125199
C14   C     C_R   0.506102 0.064676 0.372505 -0.209386
C15   C     C_R   0.506473 0.936327 0.372233 -0.172619
C16   C     C_R   0.492677 0.870938 0.496854 -0.110926
C17   C     C_R   0.467346 0.935855 0.613469 -0.095023
C18   C     C_3   0.492578 0.932748 0.763772 0.211435
C19   C     C_3   0.486692 0.073136 0.765137 0.241565
C20   C     C_R   0.562936 0.536085 0.074367 0.211999
C21   C     C_R   0.439364 0.457624 0.074128 -0.103145
C22   C     C_R   0.439406 0.457294 0.925527 -0.079318
C23   C     C_R   0.499134 0.737786 0.499747 0.807878
C24   C     C_R   0.563480 0.535073 0.926483 0.234088
C25   C     C_3   0.599993 0.659991 0.923871 0.039108
C26   C     C_3   0.599008 0.660275 0.082200 -0.501652
C27   C     C_R   0.644402 0.497971 0.499858 0.806769
C28   C     C_R   0.844927 0.444666 0.616349 -0.120351
C29   C     C_R   0.766202 0.447642 0.616358 -0.133886
C30   C     C_R   0.727253 0.492369 0.499136 -0.029188
C31   C     C_R   0.768164 0.530462 0.380421 -0.178598
C32   C     C_R   0.846817 0.527281 0.380467 -0.148589
Cu1   Cu    Cu3+1 0.500000 0.499980 0.640670 0.967537
Cu2   Cu    Cu3+1 0.500000 0.500020 0.359330 0.940134
H1    H     H_    0.874390 0.411353 0.708025 0.148443
H2    H     H_    0.521922 0.889390 0.276725 0.156560
H3    H     H_    0.552464 0.905165 0.772804 0.079917
H4    H     H_    0.541144 0.124181 0.781617 0.041482
H5    H     H_    0.389824 0.424723 0.129318 0.143884
H6    H     H_    0.390047 0.423246 0.870325 0.156739
H7    H     H_    0.562574 0.728910 0.877496 0.183172
H8    H     H_    0.655736 0.658044 0.131392 0.214138
H9    H     H_    0.735820 0.414926 0.707796 0.169520
H10   H     H_    0.560731 0.730525 0.126105 0.195959
H11   H     H_    0.739529 0.564152 0.288380 0.152492
H12   H     H_    0.877732 0.558461 0.288861 0.142054
H13   H     H_    0.263811 0.481188 0.725560 0.147357
H14   H     H_    0.260958 0.511294 0.274984 0.155300
H15   H     H_    0.122886 0.504187 0.277306 0.152965
H16   H     H_    0.522281 0.112833 0.277647 0.153723
N1    N     N_R   0.500470 0.500930 0.147930 -0.178453
N2    N     N_R   0.500480 0.500890 0.852020 -0.199862
O1    O     O_R   0.500000 0.319640 0.618810 -0.570020
O2    O     O_R   0.500010 0.319680 0.381230 -0.587946
O3    O     O_R   0.391250 0.499990 0.618840 -0.592604
O4    O     O_R   0.391260 0.500020 0.381250 -0.589823
O5    O     O_R   0.499990 0.680320 0.618770 -0.576169
O6    O     O_R   0.500000 0.680360 0.381190 -0.580402
O7    O     O_R   0.608740 0.499980 0.618750 -0.552588
O8    O     O_R   0.608750 0.500010 0.381160 -0.586584
O9    O     O_3   0.445630 0.872131 0.865052 -0.572036
C33   C     C_3   0.373262 0.836576 0.815252 0.170696
H17   H     H_    0.377757 0.768081 0.729156 0.149891
H18   H     H_    0.341442 0.918022 0.778431 0.176751
C34   C     C_3   0.329099 0.776190 0.933925 -0.826661
H19   H     H_    0.322747 0.841967 0.022130 0.252517
H20   H     H_    0.272181 0.747614 0.896167 0.181278
H21   H     H_    0.359165 0.693603 0.971854 0.249862
O10   O     O_3   0.425004 0.116004 0.844256 -0.546366
C35   C     C_3   0.447559 0.134425 0.984695 0.117960
H22   H     H_    0.484913 0.217258 0.992690 0.133224
H23   H     H_    0.478364 0.053929 0.027372 0.161048
C36   C     C_3   0.377585 0.153177 0.074258 -0.777465
H24   H     H_    0.343321 0.066796 0.077627 0.249676
H25   H     H_    0.394236 0.178932 0.182629 0.208734
H26   H     H_    0.342569 0.227480 0.029506 0.234841
Br1   Br    Br    0.701838 0.661534 0.849508 -0.559413
O11   O     O_3   0.112868 0.473932 0.753995 -0.577878
C37   C     C_3   0.135199 0.563451 0.854062 0.052411
H27   H     H_    0.143542 0.656239 0.805804 0.135867
H28   H     H_    0.188033 0.535224 0.907368 0.139859
C38   C     C_3   0.073831 0.573651 0.964748 -0.767781
H29   H     H_    0.064734 0.483245 0.016931 0.246501
H30   H     H_    0.090953 0.642950 0.044816 0.195134
H31   H     H_    0.020122 0.602718 0.915429 0.257381

loop_
_geom_bond_atom_site_label_1
_geom_bond_atom_site_label_2
_ccdc_geom_bond_type
C24   N2    A    
C23   O6    A    
Cu1   O3    S    
C36   H24   S    
C26   H10   S    
C7    C8    A    
Cu1   N2    S    
Cu2   O4    S    
C11   C19   S    
Cu2   N1    S    
C29   C30   A    
C25   Br1   S    
C28   C29   A    
C18   H3    S    
C20   N1    A    
C27   O8    A    
C5    C6    A    
C15   C16   A    
C2    C32   A    
C18   C19   S    
C1    O1    A    
C33   H18   S    
C20   C24   A    
C28   H1    S    
C8    C9    A    
C34   H20   S    
C35   H22   S    
C9    C10   A    
Cu1   O7    S    
C21   C22   A    
C29   H9    S    
C27   C30   S    
Cu2   O8    S    
C36   H25   S    
O9    C33   S    
Cu1   Cu2   S    
Cu1   O1    S    
C7    C12   S    
C6    H13   S    
C9    H15   S    
C24   C25   S    
C25   H7    S    
C37   H28   S    
O11   C37   S    
C16   C17   A    
C25   C26   S    
C1    O2    A    
C8    H14   S    
C33   H17   S    
C19   H4    S    
C31   C32   A    
C21   H5    S    
C30   C31   A    
C34   H21   S    
C22   H6    S    
C35   C36   S    
C17   C18   S    
C12   O4    A    
Cu2   O2    S    
C16   C23   S    
C38   H30   S    
C36   H26   S    
C19   O10   S    
C1    C13   S    
C4    C10   S    
C3    C4    T    
C15   H2    S    
C21   N1    A    
C26   H8    S    
C22   N2    A    
C23   O5    A    
C11   C17   A    
Cu1   O5    S    
C33   C34   S    
C32   H12   S    
C37   C38   S    
C35   H23   S    
C18   O9    S    
C6    C7    A    
C38   H31   S    
C2    C3    S    
C5    C10   A    
C27   O7    A    
C11   C13   A    
C14   H16   S    
C20   C26   S    
C34   H19   S    
O10   C35   S    
C12   O3    A    
C37   H27   S    
C38   H29   S    
C31   H11   S    
Cu2   O6    S    
C14   C15   A    
C2    C28   A    
C5    O11   S    
C13   C14   A    
