data_mof_unit_47254.cif
_audit_creation_date              2012-12-10T17:36:17-0500
_audit_creation_method            fapswitch 2.2
_symmetry_space_group_name_H-M    P1
_symmetry_Int_Tables_number       1
_space_group_crystal_system       triclinic
_cell_length_a                    12.325293
_cell_length_b                    13.15595
_cell_length_c                    15.86215
_cell_angle_alpha                 77.963714
_cell_angle_beta                  101.116908
_cell_angle_gamma                 116.570626
_cell_volume                      2235.22451063

loop_
_atom_site_label
_atom_site_type_symbol
_atom_type_description
_atom_site_fract_x
_atom_site_fract_y
_atom_site_fract_z
_atom_type_partial_charge
C1    C     C_R   0.854865 0.286616 0.505788 0.785530
C2    C     C_3   0.049534 0.414835 0.070632 -0.374227
C3    C     C_3   0.000130 0.499762 0.082846 0.328372
C4    C     C_3   0.081644 0.621325 0.039999 -0.380504
C5    C     C_3   0.080960 0.621374 0.942196 -0.369352
C6    C     C_1   0.000721 0.499757 0.175153 -0.117092
C7    C     C_1   0.998572 0.499872 0.824779 -0.106333
C8    C     C_1   0.998743 0.499874 0.749187 -0.164694
C9    C     C_R   0.271828 0.025024 0.391591 -0.195336
C10   C     C_R   0.228112 0.834946 0.469691 -0.048931
C11   C     C_R   0.817395 0.082471 0.547112 -0.219107
C12   C     C_R   0.999538 0.499823 0.659584 0.829472
C13   C     C_R   0.739842 0.966164 0.556888 0.207391
C14   C     C_R   0.615481 0.929801 0.530456 -0.218116
C15   C     C_R   0.566846 0.009373 0.489316 0.040967
C16   C     C_R   0.648943 0.125618 0.468109 0.082612
C17   C     C_R   0.439502 0.976860 0.466861 0.086579
C18   C     C_R   0.397331 0.056447 0.414516 0.168206
C19   C     C_R   0.480947 0.165592 0.384097 -0.247074
C20   C     C_R   0.604887 0.199295 0.409475 -0.189338
C21   C     C_R   0.352524 0.867991 0.496344 -0.253799
C22   C     C_R   0.187506 0.914369 0.418498 -0.185013
C23   C     C_R   0.145154 0.713539 0.487441 0.799897
C24   C     C_R   0.772977 0.163677 0.504934 -0.142441
C25   C     C_R   0.345251 0.327080 0.636528 -0.293851
C26   C     C_R   0.760738 0.646821 0.384632 0.095679
C27   C     C_R   0.665272 0.679898 0.360095 -0.245322
C28   C     C_R   0.561489 0.624762 0.403640 -0.182738
C29   C     C_R   0.552085 0.535453 0.472874 0.002880
C30   C     C_R   0.652946 0.505257 0.496226 0.297804
C31   C     C_R   0.447240 0.475498 0.520016 -0.033583
C32   C     C_R   0.445986 0.387413 0.589294 0.175205
C33   C     C_R   0.545402 0.360171 0.611460 -0.273998
C34   C     C_R   0.000397 0.500123 0.340406 0.817054
C35   C     C_R   0.646643 0.418090 0.566322 -0.166885
C36   C     C_R   0.342653 0.498534 0.501775 0.024402
C37   C     C_R   0.245720 0.354033 0.615383 0.079056
C38   C     C_3   0.048858 0.414872 0.972835 -0.380072
C39   C     C_3   0.867844 0.463225 0.938111 -0.372335
C40   C     C_3   0.868510 0.463171 0.035926 -0.377546
C41   C     C_1   0.000874 0.499862 0.250782 -0.179593
C42   C     C_3   0.999000 0.499836 0.917060 0.321394
Cu1   Cu    Cu3+1 0.098280 0.475420 0.519630 0.937350
Cu2   Cu    Cu3+1 0.901720 0.524580 0.480370 0.935214
H1    H     H_    0.992312 0.326648 0.100806 0.161658
H2    H     H_    0.143251 0.439430 0.958966 0.163795
H3    H     H_    0.144245 0.439397 0.103680 0.162134
H4    H     H_    0.091352 0.889975 0.397027 0.154147
H5    H     H_    0.450464 0.225515 0.340705 0.143239
H6    H     H_    0.239158 0.085271 0.351232 0.134142
H7    H     H_    0.379313 0.806753 0.540399 0.155358
H8    H     H_    0.912405 0.109096 0.573321 0.175059
H9    H     H_    0.560205 0.838520 0.540214 0.152877
H10   H     H_    0.991317 0.326697 0.956088 0.161743
H11   H     H_    0.167522 0.307779 0.651500 0.125331
H12   H     H_    0.545299 0.293354 0.664734 0.150168
H13   H     H_    0.343599 0.259575 0.689524 0.138240
H14   H     H_    0.335437 0.563673 0.450205 0.122269
H15   H     H_    0.841035 0.690218 0.350554 0.120156
H16   H     H_    0.490493 0.653995 0.381957 0.132205
H17   H     H_    0.671756 0.748537 0.307162 0.140155
H18   H     H_    0.718306 0.391668 0.589343 0.203541
H19   H     H_    0.829955 0.523144 0.898899 0.174301
H20   H     H_    0.807042 0.375935 0.920709 0.160304
H21   H     H_    0.808018 0.375848 0.065460 0.161688
H22   H     H_    0.830907 0.523049 0.043647 0.164031
H23   H     H_    0.175932 0.649691 0.927760 0.163178
H24   H     H_    0.046869 0.684119 0.903073 0.173043
H25   H     H_    0.176937 0.649595 0.072487 0.161752
N1    N     N_R   0.246300 0.438200 0.549400 -0.181004
N2    N     N_R   0.754300 0.561180 0.451130 -0.205091
O1    O     O_R   0.972520 0.318130 0.524690 -0.580540
O2    O     O_R   0.806530 0.359650 0.491530 -0.610362
O3    O     O_R   0.083030 0.479240 0.637150 -0.577330
O4    O     O_R   0.917040 0.520750 0.603990 -0.579231
O5    O     O_R   0.193470 0.640350 0.508470 -0.589374
O6    O     O_R   0.027480 0.681870 0.475310 -0.577153
O7    O     O_R   0.082960 0.479250 0.396010 -0.577117
O8    O     O_R   0.916970 0.520760 0.362850 -0.592807
H26   H     H_    0.047904 0.684066 0.047803 0.163250
I1    I     I_    0.809713 0.844450 0.614651 -0.422234
H27   H     H_    0.665148 0.282511 0.379781 0.176694

loop_
_geom_bond_atom_site_label_1
_geom_bond_atom_site_label_2
_ccdc_geom_bond_type
C22   H4    S    
C5    C42   S    
Cu1   O1    S    
C12   O3    A    
C19   C20   A    
C23   O5    A    
C5    H23   S    
C3    C6    S    
C30   N2    A    
C7    C8    T    
C10   C22   A    
Cu1   O7    S    
C39   H20   S    
C26   C27   A    
C30   C35   A    
C28   C29   A    
C4    H26   S    
C36   H14   S    
C9    C22   A    
C15   C16   A    
C13   I1    S    
C11   C24   A    
Cu2   N2    S    
C18   C19   A    
C7    C42   S    
C2    C38   S    
C11   H8    S    
C27   H17   S    
C25   C37   A    
C6    C41   T    
C26   H15   S    
C16   C20   A    
C33   H12   S    
C16   C24   A    
C40   H22   S    
C37   N1    A    
C26   N2    A    
C34   C41   S    
C25   H13   S    
C5    H24   S    
C4    H25   S    
C36   N1    A    
C39   C42   S    
C28   H16   S    
C10   C21   A    
C1    O1    A    
C39   C40   S    
C17   C21   A    
Cu2   O4    S    
Cu1   Cu2   S    
C29   C30   A    
C34   O8    A    
C19   H5    S    
C31   C32   A    
C38   H10   S    
C8    C12   S    
C17   C18   A    
C23   O6    A    
C3    C40   S    
Cu1   N1    S    
C40   H21   S    
C10   C23   S    
C3    C4    S    
C21   H7    S    
Cu1   O5    S    
C15   C17   A    
Cu2   O6    S    
C31   C36   A    
Cu2   O8    S    
C9    H6    S    
C4    C5    S    
C38   C42   S    
C2    H3    S    
C39   H19   S    
C1    O2    A    
C32   C33   A    
C2    C3    S    
C29   C31   A    
C34   O7    A    
C11   C13   A    
Cu1   O3    S    
C33   C35   A    
C35   H18   S    
Cu2   O2    S    
C38   H2    S    
C2    H1    S    
C37   H11   S    
C9    C18   A    
C14   H9    S    
C1    C24   S    
C20   H27   S    
C12   O4    A    
C27   C28   A    
C14   C15   A    
C13   C14   A    
C25   C32   A    
