data_mof_unit_52475.cif
_audit_creation_date              2012-12-10T20:48:21-0500
_audit_creation_method            fapswitch 2.2
_symmetry_space_group_name_H-M    P1
_symmetry_Int_Tables_number       1
_space_group_crystal_system       triclinic
_cell_length_a                    10.643405
_cell_length_b                    8.926264
_cell_length_c                    8.108932
_cell_angle_alpha                 89.999978
_cell_angle_beta                  90.0
_cell_angle_gamma                 89.99998
_cell_volume                      770.395919589

loop_
_atom_site_label
_atom_site_type_symbol
_atom_type_description
_atom_site_fract_x
_atom_site_fract_y
_atom_site_fract_z
_atom_type_partial_charge
C1    C     C_R   0.500000 0.218007 0.500000 1.010682
C2    C     C_R   0.257618 0.489851 0.500000 0.960678
C3    C     C_R   0.742382 0.489852 0.500000 0.960679
C4    C     C_R   0.500000 0.781970 0.500000 0.926745
C5    C     C_1   0.500000 0.065216 0.500000 -0.068420
C6    C     C_3   0.072606 0.400198 0.659572 0.239814
C7    C     C_3   0.072606 0.400215 0.340417 0.239813
C8    C     C_3   0.927394 0.400198 0.659572 0.239813
C9    C     C_3   0.927394 0.400215 0.340417 0.239812
C10   C     C_1   0.500000 0.934798 0.500000 -0.122454
C11   C     C_3   0.071890 0.643454 0.500010 -0.539511
C12   C     C_3   0.928110 0.643454 0.500010 -0.539511
C13   C     C_3   0.121605 0.480138 0.499999 -0.165880
C14   C     C_3   0.878394 0.480138 0.499999 -0.165879
H1    H     H_    0.102636 0.468001 0.768047 0.104277
H2    H     H_    0.102635 0.468029 0.231950 0.104272
H3    H     H_    0.897364 0.468001 0.768047 0.104277
H4    H     H_    0.897364 0.468029 0.231950 0.104273
H5    H     H_    0.106561 0.704993 0.610542 0.236018
H6    H     H_    0.106561 0.705005 0.389485 0.236018
H7    H     H_    0.893439 0.704993 0.610542 0.236018
H8    H     H_    0.893439 0.705005 0.389485 0.236018
N1    N     N_1   0.500000 0.500030 0.073640 -0.008517
N2    N     N_1   0.500000 0.500030 0.926360 -0.008518
O1    O     O_R   0.500000 0.285340 0.636850 -0.594382
O2    O     O_R   0.500000 0.285340 0.363150 -0.594379
O3    O     O_R   0.314790 0.499970 0.636880 -0.620374
O4    O     O_R   0.314790 0.499970 0.363120 -0.620369
O5    O     O_R   0.685210 0.499970 0.636880 -0.620374
O6    O     O_R   0.685210 0.499970 0.363120 -0.620369
O7    O     O_R   0.500000 0.714650 0.636900 -0.617324
O8    O     O_R   0.500000 0.714650 0.363100 -0.617325
Zn1   Zn    Zn3+2 0.500000 0.499990 0.682780 1.056940
Zn2   Zn    Zn3+2 0.500000 0.499990 0.317220 1.056944
Cl1   Cl    Cl    0.143228 0.219509 0.695618 -0.442379
Cl2   Cl    Cl    0.143228 0.219529 0.304348 -0.442373
Cl3   Cl    Cl    0.856772 0.219509 0.695618 -0.442379
Cl4   Cl    Cl    0.856772 0.219529 0.304348 -0.442373

loop_
_geom_bond_atom_site_label_1
_geom_bond_atom_site_label_2
_ccdc_geom_bond_type
C3    O6    A    
C8    C14   S    
C9    C14   S    
O7    Zn1   S    
C2    O3    A    
C12   H8    S    
C7    Cl2   S    
C8    H3    S    
N1    N2    T    
N1    Zn2   S    
O4    Zn2   S    
C5    C10   T    
O3    Zn1   S    
C6    C13   S    
C1    O1    A    
C11   C13   S    
C11   H5    S    
C4    O8    A    
C3    C14   S    
C1    C5    S    
C6    C8    S    
C9    Cl4   S    
C12   C14   S    
C1    O2    A    
C11   H6    S    
C4    O7    A    
C8    Cl3   S    
O6    Zn2   S    
C4    C10   S    
O5    Zn1   S    
C9    H4    S    
C7    C13   S    
C6    Cl1   S    
C7    C9    S    
C3    O5    A    
C2    C13   S    
C7    H2    S    
C2    O4    A    
C6    H1    S    
C12   H7    S    
O2    Zn2   S    
N2    Zn1   S    
C11   C12   S    
O1    Zn1   S    
O8    Zn2   S    
