data_mof_unit_25611.cif
_audit_creation_date              2012-12-11T14:50:41-0500
_audit_creation_method            fapswitch 2.2
_symmetry_space_group_name_H-M    P1
_symmetry_Int_Tables_number       1
_space_group_crystal_system       triclinic
_cell_length_a                    10.963862
_cell_length_b                    10.96291
_cell_length_c                    18.829658
_cell_angle_alpha                 89.952101
_cell_angle_beta                  89.93629
_cell_angle_gamma                 60.063347
_cell_volume                      1961.27751584

loop_
_atom_site_label
_atom_site_type_symbol
_atom_type_description
_atom_site_fract_x
_atom_site_fract_y
_atom_site_fract_z
_atom_type_partial_charge
C1    C     C_R   0.238175 0.645669 0.610156 0.653254
C2    C     C_3   0.725758 0.522729 0.798321 0.266818
C3    C     C_3   0.701702 0.673473 0.812275 -0.044809
C4    C     C_3   0.671142 0.644991 0.676770 -0.058284
C5    C     C_3   0.777246 0.698176 0.685257 0.288419
C6    C     C_3   0.721295 0.503231 0.717553 -0.207082
C7    C     C_R   0.791717 0.156144 0.708988 -0.035471
C8    C     C_R   0.797094 0.156741 0.784732 -0.033706
C9    C     C_R   0.681459 0.166587 0.824128 -0.104882
C10   C     C_R   0.558562 0.189980 0.787696 0.035761
C11   C     C_R   0.564053 0.167753 0.715548 0.482965
C12   C     C_R   0.652343 0.619769 0.601773 0.583899
C13   C     C_R   0.670622 0.168063 0.674970 0.052310
C14   C     C_R   0.196066 0.550696 0.722578 0.328541
C15   C     C_R   0.175910 0.560910 0.795776 0.344251
C16   C     C_R   0.171071 0.674106 0.833095 -0.075492
C17   C     C_R   0.181112 0.778359 0.795825 -0.078911
C18   C     C_R   0.178221 0.780358 0.722719 0.461467
C19   C     C_R   0.194038 0.662439 0.684781 0.052755
C20   C     C_R   0.812480 0.607434 0.300093 -0.002159
C21   C     C_R   0.827360 0.603532 0.225798 -0.019874
C22   C     C_R   0.714656 0.705184 0.183137 -0.042249
C23   C     C_R   0.629859 0.225609 0.602518 0.580873
C24   C     C_R   0.589457 0.803790 0.216037 -0.108585
C25   C     C_R   0.566703 0.793205 0.288388 -0.013976
C26   C     C_R   0.676077 0.685301 0.329477 -0.036332
C27   C     C_R   0.526094 0.187568 0.282710 0.407313
C28   C     C_R   0.521683 0.197422 0.209231 -0.042403
C29   C     C_R   0.643811 0.175449 0.172993 -0.081737
C30   C     C_R   0.755424 0.174031 0.210903 0.372677
C31   C     C_R   0.751836 0.179795 0.284119 -0.081797
C32   C     C_R   0.638523 0.185235 0.320639 -0.000300
C33   C     C_R   0.046940 0.753764 0.306539 0.303436
C34   C     C_R   0.222289 0.649224 0.401502 0.641030
C35   C     C_R   0.017421 0.765926 0.234693 -0.100463
C36   C     C_R   0.124406 0.683910 0.186029 -0.080905
C37   C     C_R   0.260676 0.590855 0.207913 -0.109310
C38   C     C_R   0.290550 0.579038 0.279629 0.354054
C39   C     C_R   0.183107 0.658895 0.328691 0.091324
C40   C     C_R   0.699574 0.107033 0.896906 0.489139
C41   C     C_R   0.723495 0.687924 0.888487 0.519692
C42   C     C_R   0.116884 0.706907 0.905401 0.544202
C43   C     C_R   0.673011 0.111361 0.102742 0.530070
C44   C     C_R   0.732793 0.715884 0.105823 0.534891
C45   C     C_R   0.645808 0.628838 0.394831 0.549555
C46   C     C_R   0.091891 0.709871 0.112613 0.523979
C47   C     C_R   0.616001 0.230120 0.394378 0.628821
C48   C     C_3   0.550832 0.784695 0.787802 0.258248
C49   C     C_3   0.529267 0.755054 0.710609 0.311162
C50   C     C_3   0.812915 0.691368 0.766051 -0.085362
Cr1   Cr    Cr6+3 0.392930 0.397900 0.502230 1.210922
Cr2   Cr    Cr6+3 0.398240 0.708600 0.501260 1.156603
Cr3   Cr    Cr6+3 0.708800 0.393470 0.496460 1.107480
Cr4   Cr    Cr6+3 0.937620 0.938540 0.007640 1.102838
Cr5   Cr    Cr6+3 0.625150 0.937450 0.994520 1.074005
Cr6   Cr    Cr6+3 0.937990 0.625080 0.001190 1.112312
H1    H     H_    0.828523 0.425131 0.699262 0.132385
H2    H     H_    0.916065 0.595802 0.775284 0.181894
H3    H     H_    0.182315 0.864027 0.823353 0.216598
H4    H     H_    0.470159 0.781646 0.822497 0.178320
H5    H     H_    0.506899 0.886876 0.184697 0.202859
H6    H     H_    0.836730 0.182522 0.312130 0.206990
H7    H     H_    0.912020 0.840373 0.216638 0.135331
H8    H     H_    0.343652 0.532199 0.169709 0.128125
H9    H     H_    0.478031 0.855196 0.679891 0.277707
H10   H     H_    0.654188 0.457091 0.703728 0.175861
O1    O     O_R   0.507430 0.255570 0.581420 -0.415117
O2    O     O_R   0.524460 0.695920 0.424060 -0.517902
O3    O     O_R   0.736530 0.504260 0.414810 -0.493780
O4    O     O_R   0.691460 0.277160 0.422180 -0.491823
O5    O     O_3   0.499990 0.499990 0.499980 -0.313933
O6    O     O_R   0.089490 0.825610 0.930610 -0.528606
O7    O     O_R   0.818370 0.054540 0.929880 -0.523807
O8    O     O_R   0.605870 0.077310 0.915530 -0.498972
O9    O     O_R   0.646440 0.806700 0.917570 -0.475017
O10   O     O_R   0.837200 0.593290 0.915250 -0.422446
O11   O     O_R   0.065330 0.635370 0.931590 -0.442046
O12   O     O_R   0.280190 0.527390 0.578910 -0.459569
O13   O     O_R   0.068300 0.828790 0.091860 -0.447788
O14   O     O_R   0.798730 0.057480 0.079370 -0.420058
O15   O     O_R   0.584680 0.080480 0.076790 -0.553350
O16   O     O_R   0.626790 0.809640 0.067050 -0.494165
O17   O     O_R   0.816010 0.596460 0.076500 -0.464570
O18   O     O_R   0.045680 0.638310 0.081070 -0.547519
O19   O     O_3   0.833590 0.833690 0.001120 -0.324804
O20   O     O_R   0.260310 0.739740 0.584580 -0.405417
O21   O     O_R   0.532250 0.695150 0.573830 -0.458371
O22   O     O_R   0.744930 0.503430 0.576380 -0.554508
O23   O     O_R   0.699250 0.276390 0.571950 -0.517670
O24   O     O_R   0.499020 0.256400 0.419850 -0.416034
O25   O     O_R   0.272400 0.528160 0.429140 -0.464421
O26   O     O_R   0.251910 0.740570 0.423020 -0.483751
F1    F     F_    0.532067 0.918930 0.792296 -0.577269
C51   C     C_2   0.909513 0.612601 0.641867 0.314557
H11   H     H_    0.975168 0.500780 0.651535 0.148468
O27   O     O_2   0.941456 0.667345 0.594373 -0.419739
C52   C     C_2   0.912651 0.137169 0.664908 0.378119
H12   H     H_    0.971861 0.188668 0.678318 0.181883
O28   O     O_2   0.947770 0.061958 0.612302 -0.391487
C53   C     C_2   0.917321 0.153210 0.823788 0.335238
H13   H     H_    0.902279 0.193553 0.877525 0.175176
O29   O     O_2   0.032574 0.111171 0.796886 -0.428793
C54   C     C_2   0.422595 0.236966 0.825032 0.452518
H14   H     H_    0.399142 0.300245 0.872818 0.112240
O30   O     O_2   0.338726 0.201813 0.804893 -0.243799
F2    F     F_    0.457093 0.158610 0.684128 -0.479608
F3    F     F_    0.215586 0.432713 0.689146 -0.547752
F4    F     F_    0.150189 0.466408 0.829088 -0.562160
F5    F     F_    0.179049 0.890412 0.690244 -0.524615
C55   C     C_2   0.936693 0.533345 0.348743 0.274077
H15   H     H_    0.928121 0.570410 0.402977 0.155641
O31   O     O_2   0.047603 0.431679 0.330223 -0.437298
C56   C     C_2   0.957424 0.487011 0.194416 0.372803
H16   H     H_    0.056069 0.486320 0.197977 0.131907
O32   O     O_2   0.956092 0.385822 0.168275 -0.349380
C57   C     C_2   0.429383 0.898213 0.319418 0.347373
H17   H     H_    0.421551 0.927483 0.374903 0.153086
O33   O     O_2   0.323464 0.955823 0.282802 -0.395669
F6    F     F_    0.414002 0.193418 0.317025 -0.539809
C58   C     C_2   0.387824 0.236425 0.171160 0.307209
H18   H     H_    0.367505 0.287403 0.119647 0.096733
O34   O     O_2   0.299047 0.212935 0.196506 -0.355802
F7    F     F_    0.870281 0.163222 0.177495 -0.535900
F8    F     F_    0.944666 0.834322 0.353904 -0.643458
F9    F     F_    0.442015 0.699209 0.709474 -0.656025
F10   F     F_    0.425727 0.497082 0.301197 -0.645040
C59   C     C_2   0.834617 0.811565 0.788321 0.308757
H19   H     H_    0.819848 0.846478 0.842783 0.132397
O35   O     O_2   0.881189 0.862852 0.746464 -0.485469
F11   F     F_    0.712189 0.836416 0.660592 -0.542766
F12   F     F_    0.859626 0.423927 0.820713 -0.621492
C60   C     C_2   0.622365 0.496256 0.840143 0.226526
H20   H     H_    0.637712 0.477403 0.896874 0.128898
O36   O     O_2   0.521485 0.497218 0.812180 -0.561875

loop_
_geom_bond_atom_site_label_1
_geom_bond_atom_site_label_2
_ccdc_geom_bond_type
C24   H5    S    
Cr6   O10   S    
C35   C36   A    
C31   H6    S    
C18   F5    S    
C44   O17   A    
Cr3   O3    S    
C52   H12   S    
C7    C8    A    
C40   O7    A    
C33   C39   A    
C49   H9    S    
C28   C29   A    
C37   C38   A    
C56   H16   S    
C44   O16   A    
Cr1   O24   S    
C38   C39   A    
Cr6   O18   S    
C15   C16   A    
C3    C48   S    
C57   H17   S    
C13   C23   S    
C18   C19   A    
C23   O1    A    
C34   O25   A    
C26   C45   S    
C52   O28   D    
C55   H15   S    
Cr5   O8    S    
C22   C44   S    
C57   O33   D    
C8    C9    A    
C33   F8    S    
C2    C60   S    
C23   O23   A    
C36   C46   S    
Cr5   O15   S    
C9    C10   A    
Cr2   O2    S    
Cr5   O9    S    
C21   C22   A    
C29   C43   S    
Cr1   O25   S    
C1    O12   A    
C6    H1    S    
C2    C6    S    
Cr1   O5    S    
C45   O2    A    
Cr3   O4    S    
C42   O6    A    
C38   F10   S    
C3    C50   S    
C58   O34   D    
C48   H4    S    
Cr4   O14   S    
C1    C19   S    
C2    F12   S    
C48   F1    S    
C12   O22   A    
C45   O3    A    
C34   C39   S    
C50   H2    S    
C24   C25   A    
C4    C6    S    
C28   C58   S    
C25   C57   S    
C16   C17   A    
C43   O14   A    
C9    C40   S    
Cr6   O11   S    
C15   F4    S    
Cr5   O19   S    
C59   O35   D    
C47   O4    A    
C29   C30   A    
C41   O9    A    
Cr4   O7    S    
C31   C32   A    
C7    C13   A    
C30   C31   A    
C11   F2    S    
C53   O29   D    
C17   C18   A    
C54   O30   D    
Cr1   O1    S    
C20   C21   A    
Cr5   O16   S    
C51   O27   D    
C10   C54   S    
C17   H3    S    
C20   C55   S    
C21   C56   S    
C14   F3    S    
Cr3   O23   S    
C43   O15   A    
C32   C47   S    
C46   O18   A    
C5    C50   S    
Cr2   O26   S    
C4    C12   S    
C59   H19   S    
Cr3   O5    S    
C16   C42   S    
C54   H14   S    
C37   H8    S    
C58   H18   S    
Cr6   O17   S    
Cr4   O13   S    
C1    O20   A    
C36   C37   A    
C7    C52   S    
C12   O21   A    
C27   C32   A    
C14   C19   A    
Cr2   O21   S    
C4    C5    S    
Cr4   O19   S    
C27   F6    S    
C49   F9    S    
C4    C49   S    
C5    C51   S    
Cr2   O20   S    
C2    C3    S    
C25   C26   A    
Cr1   O12   S    
Cr2   O5    S    
C41   O10   A    
C11   C13   A    
Cr6   O19   S    
C46   O13   A    
C20   C26   A    
C48   C49   S    
C53   H13   S    
C33   C35   A    
C40   O8    A    
C60   H20   S    
Cr3   O22   S    
C22   C24   A    
C8    C53   S    
C51   H11   S    
C55   O31   D    
C47   O24   A    
C3    C41   S    
C10   C11   A    
C5    F11   S    
C6    H10   S    
Cr4   O6    S    
C30   F7    S    
C42   O11   A    
C60   O36   D    
C27   C28   A    
C14   C15   A    
C35   H7    S    
C50   C59   S    
C56   O32   D    
C34   O26   A    
