data_mof_unit_7427.cif
_audit_creation_date              2012-12-10T19:46:55-0500
_audit_creation_method            fapswitch 2.2
_symmetry_space_group_name_H-M    P1
_symmetry_Int_Tables_number       1
_space_group_crystal_system       triclinic
_cell_length_a                    10.899537
_cell_length_b                    10.921008
_cell_length_c                    13.10233
_cell_angle_alpha                 91.481958
_cell_angle_beta                  91.011115
_cell_angle_gamma                 90.476812
_cell_volume                      1558.79729028

loop_
_atom_site_label
_atom_site_type_symbol
_atom_type_description
_atom_site_fract_x
_atom_site_fract_y
_atom_site_fract_z
_atom_type_partial_charge
C1    C     C_R   0.500737 0.259396 0.498527 0.835343
C2    C     C_R   0.599508 0.850312 0.750870 0.433743
C3    C     C_R   0.507229 0.109459 0.301407 -0.094564
C4    C     C_R   0.492766 0.890540 0.698592 -0.094565
C5    C     C_R   0.618963 0.104461 0.250058 -0.250503
C6    C     C_R   0.381029 0.895524 0.749935 -0.250501
C7    C     C_R   0.626699 0.135296 0.147498 0.481049
C8    C     C_R   0.373290 0.864689 0.852495 0.481047
C9    C     C_R   0.520361 0.174000 0.094617 0.264226
C10   C     C_R   0.479629 0.826000 0.905382 0.264224
C11   C     C_R   0.502153 0.930559 0.409478 -0.225149
C12   C     C_R   0.499262 0.740604 0.501472 0.835341
C13   C     C_R   0.497844 0.069440 0.590521 -0.225144
C14   C     C_R   0.499613 0.872966 0.503539 -0.111836
C15   C     C_R   0.500384 0.127034 0.496461 -0.111838
C16   C     C_R   0.259447 0.502002 0.498911 0.846709
C17   C     C_R   0.740553 0.497997 0.501089 0.846713
C18   C     C_R   0.497423 0.943058 0.595489 0.027679
C19   C     C_R   0.502574 0.056942 0.404510 0.027683
C20   C     C_1   0.500112 0.499994 0.173528 0.165654
C21   C     C_1   0.499888 0.500007 0.826471 0.165654
C22   C     C_1   0.500072 0.499978 0.050688 -0.034394
C23   C     C_R   0.872965 0.498027 0.502969 -0.091104
C24   C     C_1   0.499928 0.500022 0.949312 -0.034390
C25   C     C_R   0.227935 0.709994 0.213314 -0.139646
C26   C     C_R   0.772064 0.289992 0.786678 -0.139644
C27   C     C_R   0.176323 0.673718 0.304279 -0.181740
C28   C     C_R   0.823678 0.326272 0.695716 -0.181733
C29   C     C_R   0.114658 0.560704 0.309608 -0.086835
C30   C     C_R   0.885341 0.439288 0.690390 -0.086836
C31   C     C_R   0.103705 0.483215 0.220969 0.427233
C32   C     C_R   0.896290 0.516775 0.779030 0.427220
C33   C     C_R   0.153858 0.522181 0.128327 0.381065
C34   C     C_R   0.127035 0.501971 0.497030 -0.091113
C35   C     C_R   0.846135 0.477804 0.871671 0.381070
C36   C     C_R   0.216513 0.635289 0.125863 -0.245883
C37   C     C_R   0.783483 0.364695 0.874132 -0.245881
C38   C     C_R   0.931705 0.527361 0.412697 -0.145317
C39   C     C_R   0.068294 0.472636 0.587302 -0.145334
C40   C     C_R   0.941596 0.471442 0.592040 0.097032
C41   C     C_R   0.058403 0.528554 0.407959 0.097034
C42   C     C_R   0.408757 0.182372 0.146887 -0.252868
C43   C     C_R   0.591237 0.817643 0.853118 -0.252860
C44   C     C_R   0.400489 0.149703 0.249135 0.433752
Cu1   Cu    Cu3+1 0.499990 0.499990 0.592680 1.008907
Cu2   Cu    Cu3+1 0.500010 0.500010 0.407320 1.008910
H1    H     H_    0.256583 0.665499 0.055802 0.194989
H2    H     H_    0.815291 0.266211 0.628770 0.151282
H3    H     H_    0.878666 0.550402 0.345143 0.174259
H4    H     H_    0.121334 0.449595 0.654857 0.174263
H5    H     H_    0.326777 0.212564 0.107339 0.215306
H6    H     H_    0.673219 0.787463 0.892670 0.215308
H7    H     H_    0.730589 0.140629 0.028015 0.367070
H8    H     H_    0.269391 0.859343 0.971972 0.367072
H9    H     H_    0.982670 0.207596 0.338662 0.374534
H10   H     H_    0.017357 0.792367 0.661327 0.374524
H11   H     H_    0.179823 0.490043 0.983396 0.343307
H12   H     H_    0.743412 0.334481 0.944190 0.194991
H13   H     H_    0.820166 0.509938 0.016601 0.343309
H14   H     H_    0.444450 0.224870 0.967156 0.339318
H15   H     H_    0.555538 0.775143 0.032847 0.339319
H16   H     H_    0.292499 0.133067 0.365624 0.328769
H17   H     H_    0.707501 0.866950 0.634384 0.328775
H18   H     H_    0.700419 0.072193 0.289312 0.191242
H19   H     H_    0.299571 0.927780 0.710676 0.191239
H20   H     H_    0.503724 0.876879 0.338638 0.171968
H21   H     H_    0.496273 0.123121 0.661362 0.171970
H22   H     H_    0.276251 0.796830 0.210382 0.183479
H23   H     H_    0.723749 0.203155 0.789608 0.183480
H24   H     H_    0.184712 0.733781 0.371223 0.151276
N1    N     N_1   0.500030 0.500030 0.268070 -0.134382
N2    N     N_1   0.499970 0.499970 0.731930 -0.134384
O1    O     O_R   0.499980 0.319630 0.578260 -0.590623
O2    O     O_3   0.260792 0.876451 0.898422 -0.660197
O3    O     O_2   0.891746 0.359620 0.202121 -0.308973
O4    O     O_2   0.074848 0.251833 0.144517 -0.183167
O5    O     O_3   0.042420 0.276452 0.339153 -0.534009
O6    O     O_2   0.925145 0.748153 0.855489 -0.183145
O7    O     O_2   0.108247 0.640371 0.797879 -0.308987
O8    O     O_3   0.957568 0.723545 0.660852 -0.534001
O9    O     O_3   0.139841 0.449371 0.041061 -0.659124
O10   O     O_3   0.860149 0.550612 0.958938 -0.659123
O11   O     O_3   0.527089 0.201817 0.992619 -0.763134
O12   O     O_R   0.500020 0.680370 0.421740 -0.590623
O13   O     O_3   0.472897 0.798183 0.007379 -0.763136
O14   O     O_3   0.286442 0.155899 0.293211 -0.656384
O15   O     O_3   0.713559 0.844129 0.706799 -0.656372
O16   O     O_R   0.500000 0.319650 0.421740 -0.567158
O17   O     O_R   0.500000 0.680350 0.578260 -0.567160
O18   O     O_R   0.319630 0.500000 0.578260 -0.579595
O19   O     O_R   0.680370 0.500000 0.421740 -0.579592
O20   O     O_R   0.319650 0.500020 0.421740 -0.566144
O21   O     O_R   0.680350 0.499980 0.578260 -0.566147
O22   O     O_3   0.739192 0.123519 0.101564 -0.660209
S1    S     S_3+6 0.025803 0.339371 0.223931 0.058554
S2    S     S_3+6 0.974189 0.660620 0.776072 0.058557

loop_
_geom_bond_atom_site_label_1
_geom_bond_atom_site_label_2
_ccdc_geom_bond_type
C10   O13   S    
C16   O18   A    
C27   C29   A    
C14   C18   A    
C17   O19   A    
H13   O10   S    
Cu1   O21   S    
O3    S1    D    
C38   H3    S    
Cu1   Cu2   S    
C15   C19   A    
H16   O14   S    
C11   C19   A    
C9    C42   A    
C17   C23   S    
C13   C18   A    
C35   C37   A    
O4    S1    D    
H9    O5    S    
C11   C14   A    
C43   H6    S    
Cu2   O20   S    
C23   C40   A    
C33   C36   A    
C12   O12   A    
C36   H1    S    
Cu1   O1    S    
C16   C34   S    
H8    O2    S    
C6    H19   S    
O6    S2    D    
C31   C33   A    
C20   N1    T    
C3    C19   S    
C1    C15   S    
O8    S2    S    
Cu1   O17   S    
C37   H12   S    
C11   H20   S    
C42   H5    S    
C29   C41   S    
C1    O16   A    
C10   C43   A    
Cu1   N2    S    
C34   C41   A    
C42   C44   A    
C44   O14   S    
C35   O10   S    
Cu2   O16   S    
C3    C44   A    
C21   N2    T    
C34   C39   A    
C32   C35   A    
C12   O17   A    
C38   C41   A    
C4    C6    A    
C39   C40   A    
C5    C7    A    
C6    C8    A    
Cu2   O19   S    
O5    S1    S    
C5    H18   S    
C2    C4    A    
C2    C43   A    
C8    O2    S    
C30   C40   S    
C2    O15   S    
Cu1   O18   S    
Cu2   N1    S    
C27   H24   S    
H15   O13   S    
C9    O11   S    
Cu2   O12   S    
C32   S2    S    
C12   C14   S    
C16   O20   A    
C13   C15   A    
H11   O9    S    
C17   O21   A    
C13   H21   S    
C7    C9    A    
C7    O22   S    
C28   H2    S    
H17   O15   S    
H7    O22   S    
C20   C22   S    
C3    C5    A    
C26   C37   A    
C25   H22   S    
C25   C27   A    
C23   C38   A    
C26   C28   A    
H10   O8    S    
C1    O1    A    
C28   C30   A    
C4    C18   S    
O7    S2    D    
C29   C31   A    
C30   C32   A    
C31   S1    S    
H14   O11   S    
C22   C24   T    
C25   C36   A    
C39   H4    S    
C8    C10   A    
C21   C24   S    
C26   H23   S    
C33   O9    S    
