data_mof_unit_30471.cif
_audit_creation_date              2012-12-11T15:08:53-0500
_audit_creation_method            fapswitch 2.2
_symmetry_space_group_name_H-M    P1
_symmetry_Int_Tables_number       1
_space_group_crystal_system       triclinic
_cell_length_a                    19.376016
_cell_length_b                    11.263787
_cell_length_c                    18.708849
_cell_angle_alpha                 89.982647
_cell_angle_beta                  90.18972
_cell_angle_gamma                 90.001258
_cell_volume                      4083.13352827

loop_
_atom_site_label
_atom_site_type_symbol
_atom_type_description
_atom_site_fract_x
_atom_site_fract_y
_atom_site_fract_z
_atom_type_partial_charge
C1    C     C_R   0.272385 0.043798 0.854082 0.531966
C2    C     C_3   0.683061 0.540676 0.953650 -0.235905
C3    C     C_R   0.226930 0.543362 0.354272 0.538504
C4    C     C_R   0.468739 0.823149 0.645331 0.543216
C5    C     C_R   0.531255 0.823131 0.354661 0.543380
C6    C     C_R   0.968739 0.323149 0.645331 0.543225
C7    C     C_R   0.031255 0.323131 0.354661 0.543528
C8    C     C_R   0.260970 0.640170 0.643508 0.540486
C9    C     C_R   0.739036 0.640136 0.356486 0.540949
C10   C     C_R   0.760970 0.140170 0.643508 0.539596
C11   C     C_R   0.239036 0.140135 0.356486 0.540476
C12   C     C_3   0.480882 0.916921 0.035258 -0.108551
C13   C     C_3   0.809663 0.016391 0.041087 -0.232955
C14   C     C_3   0.521162 0.915079 0.963706 -0.108931
C15   C     C_3   0.987697 0.423402 0.033450 -0.113843
C16   C     C_3   0.026317 0.411393 0.961463 -0.109414
C17   C     C_3   0.431660 0.819560 0.006833 -0.158884
C18   C     C_3   0.568900 0.816185 0.992962 -0.160291
C19   C     C_3   0.933500 0.332507 0.008185 -0.164109
C20   C     C_3   0.069761 0.308366 0.992712 -0.158650
C21   C     C_3   0.471860 0.819489 0.936108 0.056550
C22   C     C_3   0.528645 0.819723 0.063740 0.056089
C23   C     C_3   0.972270 0.321351 0.936625 0.058731
C24   C     C_3   0.187764 0.029226 0.956107 -0.236240
C25   C     C_3   0.030620 0.321288 0.063678 0.054294
C26   C     C_3   0.321420 0.552724 0.963453 -0.234852
C27   C     C_3   0.675236 0.560779 0.034959 -0.232274
C28   C     C_3   0.814132 0.024595 0.958798 -0.240846
C29   C     C_3   0.179059 0.051419 0.036791 -0.235221
C30   C     C_3   0.179265 0.522767 0.025173 -0.208480
C31   C     C_3   0.813516 0.514458 0.973569 -0.211322
C32   C     C_3   0.676671 0.031260 0.026271 -0.208015
C33   C     C_R   0.727493 0.042984 0.145349 0.530609
C34   C     C_3   0.320531 0.023136 0.973990 -0.207565
C35   C     C_3   0.240315 0.707377 0.056584 -0.256679
C36   C     C_3   0.764192 0.709085 0.943612 -0.255873
C37   C     C_3   0.747461 0.205023 0.055181 -0.254269
C38   C     C_3   0.260029 0.207981 0.943566 -0.257224
C39   C     C_3   0.240654 0.573920 0.069945 0.065517
C40   C     C_3   0.756630 0.576798 0.928769 0.066011
C41   C     C_3   0.741323 0.072668 0.069160 0.062995
C42   C     C_3   0.259055 0.074797 0.929764 0.065320
C43   C     C_3   0.255184 0.610186 0.932208 0.054700
C44   C     C_R   0.771469 0.545394 0.853283 0.530469
C45   C     C_3   0.743192 0.611785 0.067007 0.054341
C46   C     C_3   0.754782 0.104431 0.930582 0.057787
C47   C     C_3   0.245255 0.109313 0.067887 0.054753
C48   C     C_3   0.194814 0.525138 0.944513 -0.252745
C49   C     C_3   0.799987 0.520735 0.054493 -0.256773
C50   C     C_3   0.685986 0.042756 0.945252 -0.246111
C51   C     C_3   0.305621 0.024239 0.054895 -0.253752
C52   C     C_3   0.238665 0.725889 0.974747 -0.222843
C53   C     C_3   0.763845 0.726019 0.025368 -0.223867
C54   C     C_3   0.758393 0.221320 0.973897 -0.220997
C55   C     C_R   0.227271 0.542956 0.145555 0.532626
C56   C     C_3   0.261687 0.225429 0.025562 -0.222013
C57   C     C_3   0.503643 0.700916 0.460353 -0.227909
C58   C     C_3   0.496358 0.700931 0.539677 -0.227837
C59   C     C_3   0.003643 0.200916 0.460353 -0.227936
C60   C     C_3   0.996357 0.200932 0.539677 -0.227839
C61   C     C_R   0.443918 0.816993 0.862463 0.537934
C62   C     C_R   0.556316 0.817029 0.137532 0.537462
C63   C     C_R   0.944289 0.317321 0.862664 0.539976
C64   C     C_R   0.057414 0.317128 0.137676 0.538915
C65   C     C_3   0.564631 0.905339 0.473635 -0.216283
C66   C     C_3   0.519058 0.721044 0.964785 -0.113578
C67   C     C_3   0.435366 0.905356 0.526316 -0.216366
C68   C     C_3   0.064631 0.405339 0.473634 -0.216330
C69   C     C_3   0.935366 0.405356 0.526316 -0.216404
C70   C     C_3   0.440824 0.887534 0.444361 -0.263732
C71   C     C_3   0.559170 0.887562 0.555600 -0.263750
C72   C     C_3   0.940824 0.387534 0.444361 -0.263722
C73   C     C_3   0.059170 0.387562 0.555599 -0.263739
C74   C     C_3   0.510598 0.829268 0.430908 0.062618
C75   C     C_3   0.489397 0.829297 0.569078 0.062677
C76   C     C_3   0.010598 0.329268 0.430908 0.062620
C77   C     C_3   0.479861 0.722897 0.035856 -0.112860
C78   C     C_3   0.989397 0.329298 0.569077 0.062692
C79   C     C_3   0.179639 0.647209 0.459253 -0.228221
C80   C     C_3   0.820372 0.647224 0.540732 -0.228234
C81   C     C_3   0.679639 0.147208 0.459253 -0.228261
C82   C     C_3   0.320372 0.147224 0.540731 -0.228282
C83   C     C_3   0.184387 0.659669 0.538489 -0.227437
C84   C     C_3   0.815627 0.659654 0.461492 -0.227451
C85   C     C_3   0.684387 0.159669 0.538489 -0.227371
C86   C     C_3   0.315627 0.159653 0.461491 -0.227420
C87   C     C_3   0.252590 0.454484 0.473034 -0.214902
C88   C     C_3   0.015499 0.218590 0.967029 -0.109669
C89   C     C_3   0.747405 0.454507 0.527040 -0.214760
C90   C     C_3   0.752590 0.954484 0.473034 -0.214884
C91   C     C_3   0.247406 0.954506 0.527039 -0.214815
C92   C     C_3   0.304790 0.647945 0.442434 -0.264359
C93   C     C_3   0.695217 0.647987 0.557534 -0.264459
C94   C     C_3   0.804789 0.147945 0.442434 -0.264396
C95   C     C_3   0.195217 0.147986 0.557534 -0.264442
C96   C     C_3   0.240607 0.572508 0.429980 0.065923
C97   C     C_3   0.759396 0.572548 0.570029 0.066204
C98   C     C_3   0.740606 0.072507 0.429981 0.065804
C99   C     C_3   0.977168 0.230522 0.038345 -0.109871
C100  C     C_3   0.259396 0.072548 0.570029 0.066008
C101  C     C_3   0.252852 0.606057 0.567549 0.064702
C102  C     C_3   0.747155 0.606031 0.432452 0.064572
C103  C     C_3   0.752852 0.106057 0.567549 0.064969
C104  C     C_3   0.247155 0.106031 0.432451 0.064733
C105  C     C_3   0.247336 0.472740 0.554783 -0.264635
C106  C     C_3   0.752670 0.472718 0.445282 -0.264720
C107  C     C_3   0.747336 0.972740 0.554784 -0.264677
C108  C     C_3   0.252670 0.972717 0.445281 -0.264721
C109  C     C_R   0.262284 0.642218 0.855149 0.535364
C110  C     C_3   0.311876 0.528136 0.043782 -0.235279
C111  C     C_R   0.737258 0.643173 0.144414 0.535593
C112  C     C_R   0.761352 0.138015 0.853701 0.532507
C113  C     C_R   0.238024 0.141278 0.145085 0.534440
C114  C     C_3   0.317538 0.648502 0.524171 -0.217061
C115  C     C_3   0.682464 0.648488 0.475800 -0.217064
C116  C     C_3   0.817538 0.148502 0.524171 -0.216957
C117  C     C_3   0.182465 0.148488 0.475799 -0.217045
C118  C     C_R   0.273063 0.043401 0.645739 0.538293
C119  C     C_R   0.726930 0.043361 0.354272 0.538740
C120  C     C_R   0.773062 0.543401 0.645739 0.537583
Cr1   Cr    Cr6+3 0.229620 0.836040 0.749110 0.991850
Cr2   Cr    Cr6+3 0.613980 0.676590 0.250790 0.994029
Cr3   Cr    Cr6+3 0.886020 0.176590 0.749210 0.993371
Cr4   Cr    Cr6+3 0.113980 0.176590 0.250790 0.993534
Cr5   Cr    Cr6+3 0.770380 0.836040 0.250890 0.991771
Cr6   Cr    Cr6+3 0.729620 0.336040 0.749110 0.991603
Cr7   Cr    Cr6+3 0.270380 0.336040 0.250890 0.991833
Cr8   Cr    Cr6+3 0.387630 0.990680 0.750730 0.996300
Cr9   Cr    Cr6+3 0.612370 0.990680 0.249270 0.996771
Cr10  Cr    Cr6+3 0.887630 0.490680 0.750730 0.996860
Cr11  Cr    Cr6+3 0.112370 0.490680 0.249270 0.996408
Cr12  Cr    Cr6+3 0.386020 0.676590 0.749210 0.993530
H1    H     H_    0.376851 0.806690 0.018516 0.092763
H2    H     H_    0.722044 0.759700 0.917433 0.103116
H3    H     H_    0.210300 0.925502 0.417100 0.109170
H4    H     H_    0.318245 0.433680 0.054720 0.130618
H5    H     H_    0.669997 0.448179 0.940250 0.127628
H6    H     H_    0.817393 0.926108 0.059690 0.133133
H7    H     H_    0.180872 0.935035 0.944264 0.131224
H8    H     H_    0.353578 0.572497 0.074592 0.109563
H9    H     H_    0.644847 0.595371 0.924222 0.110121
H10   H     H_    0.853963 0.064786 0.064876 0.107570
H11   H     H_    0.145829 0.075172 0.926304 0.111863
H12   H     H_    0.366235 0.612602 0.955603 0.135781
H13   H     H_    0.791741 0.240554 0.086256 0.100442
H14   H     H_    0.631710 0.621792 0.045440 0.135793
H15   H     H_    0.865453 0.061753 0.944277 0.138869
H16   H     H_    0.133733 0.109387 0.046017 0.136912
H17   H     H_    0.333087 0.468300 0.935143 0.117342
H18   H     H_    0.662167 0.475160 0.061325 0.117673
H19   H     H_    0.810670 0.935937 0.934196 0.112630
H20   H     H_    0.168388 0.965954 0.064399 0.116278
H21   H     H_    0.663375 0.941937 0.043048 0.100878
H22   H     H_    0.335749 0.937860 0.952396 0.099713
H23   H     H_    0.163593 0.436526 0.045195 0.098953
H24   H     H_    0.214002 0.247768 0.918227 0.103128
H25   H     H_    0.818115 0.425105 0.953925 0.100704
H26   H     H_    0.684707 0.954413 0.919210 0.105938
H27   H     H_    0.292377 0.935171 0.074478 0.110753
H28   H     H_    0.207840 0.436252 0.924484 0.111601
H29   H     H_    0.783475 0.434081 0.075742 0.109707
H30   H     H_    0.179257 0.736392 0.434052 0.114218
H31   H     H_    0.820758 0.736416 0.565888 0.114100
H32   H     H_    0.679257 0.236392 0.434052 0.114255
H33   H     H_    0.320758 0.236416 0.565888 0.114167
H34   H     H_    0.339150 0.731109 0.543355 0.113236
H35   H     H_    0.273775 0.795622 0.958861 0.109353
H36   H     H_    0.660841 0.731066 0.456553 0.113234
H37   H     H_    0.839149 0.231109 0.543356 0.113272
H38   H     H_    0.160841 0.231066 0.456552 0.113271
H39   H     H_    0.729662 0.798833 0.040257 0.110631
H40   H     H_    0.811147 0.250233 0.964464 0.102399
H41   H     H_    0.226979 0.295467 0.042028 0.109555
H42   H     H_    0.185307 0.752655 0.960403 0.130573
H43   H     H_    0.817786 0.746783 0.041133 0.131920
H44   H     H_    0.721150 0.286538 0.953469 0.138543
H45   H     H_    0.623905 0.802361 0.981603 0.091314
H46   H     H_    0.315193 0.251431 0.039877 0.130650
H47   H     H_    0.630816 0.085519 0.041196 0.139245
H48   H     H_    0.367522 0.078303 0.965108 0.136768
H49   H     H_    0.132353 0.578045 0.034154 0.136111
H50   H     H_    0.864700 0.556111 0.963134 0.139809
H51   H     H_    0.148783 0.556275 0.914522 0.123050
H52   H     H_    0.848284 0.546143 0.082995 0.124876
H53   H     H_    0.642689 0.095882 0.922721 0.130781
H54   H     H_    0.352274 0.053862 0.084626 0.124523
H55   H     H_    0.546661 0.643653 0.446102 0.136073
H56   H     H_    0.881594 0.336750 0.030034 0.098057
H57   H     H_    0.453340 0.643661 0.553949 0.136121
H58   H     H_    0.046661 0.143653 0.446102 0.136080
H59   H     H_    0.953339 0.143661 0.553949 0.136121
H60   H     H_    0.458488 0.656212 0.435742 0.114560
H61   H     H_    0.541512 0.656236 0.564308 0.114529
H62   H     H_    0.958488 0.156211 0.435742 0.114559
H63   H     H_    0.041512 0.156236 0.564308 0.114565
H64   H     H_    0.616696 0.897143 0.453556 0.113313
H65   H     H_    0.383300 0.897163 0.546396 0.113337
H66   H     H_    0.116696 0.397143 0.453556 0.113331
H67   H     H_    0.124496 0.291197 0.983191 0.093502
H68   H     H_    0.883299 0.397163 0.546395 0.113343
H69   H     H_    0.601246 0.830928 0.576059 0.109532
H70   H     H_    0.398750 0.830885 0.423936 0.109629
H71   H     H_    0.101246 0.330928 0.576058 0.109610
H72   H     H_    0.898750 0.330885 0.423935 0.109650
H73   H     H_    0.466587 0.998693 0.064628 0.113199
H74   H     H_    0.536755 0.994969 0.933210 0.114644
H75   H     H_    0.976608 0.508694 0.060797 0.114855
H76   H     H_    0.043298 0.487369 0.928517 0.114485
H77   H     H_    0.437771 0.973821 0.415889 0.109793
H78   H     H_    0.194646 0.750895 0.081202 0.127158
H79   H     H_    0.562216 0.973866 0.584023 0.109665
H80   H     H_    0.937771 0.473821 0.415889 0.109877
H81   H     H_    0.062216 0.473866 0.584023 0.109706
H82   H     H_    0.449780 0.998695 0.536359 0.117838
H83   H     H_    0.550214 0.998668 0.463537 0.117905
H84   H     H_    0.949780 0.498695 0.536359 0.117834
H85   H     H_    0.050214 0.498668 0.463536 0.117913
H86   H     H_    0.129267 0.611027 0.445564 0.135199
H87   H     H_    0.870742 0.611033 0.554444 0.135260
H88   H     H_    0.629266 0.111026 0.445565 0.135168
H89   H     H_    0.813823 0.741991 0.921516 0.129444
H90   H     H_    0.370742 0.111033 0.554443 0.135234
H91   H     H_    0.177804 0.752932 0.552033 0.135043
H92   H     H_    0.822228 0.752916 0.447903 0.135095
H93   H     H_    0.677804 0.252932 0.552033 0.135089
H94   H     H_    0.322228 0.252915 0.447902 0.135128
H95   H     H_    0.139533 0.615602 0.563855 0.115222
H96   H     H_    0.860476 0.615559 0.436155 0.115272
H97   H     H_    0.639533 0.115602 0.563855 0.115187
H98   H     H_    0.360476 0.115558 0.436154 0.115228
H99   H     H_    0.722212 0.880413 0.453727 0.113773
H100  H     H_    0.700248 0.253197 0.072570 0.124984
H101  H     H_    0.277765 0.880430 0.546413 0.113877
H102  H     H_    0.222212 0.380414 0.453727 0.113812
H103  H     H_    0.777765 0.380430 0.546413 0.113932
H104  H     H_    0.698069 0.938446 0.575742 0.109151
H105  H     H_    0.301943 0.938416 0.424353 0.109309
H106  H     H_    0.198069 0.438446 0.575741 0.109274
H107  H     H_    0.801943 0.438416 0.424354 0.109377
H108  H     H_    0.349443 0.609139 0.413717 0.109983
H109  H     H_    0.650564 0.609206 0.586276 0.109845
H110  H     H_    0.849443 0.109139 0.413718 0.109981
H111  H     H_    0.306008 0.251039 0.919230 0.126932
H112  H     H_    0.150565 0.109206 0.586275 0.109943
H113  H     H_    0.296817 0.738702 0.421671 0.108493
H114  H     H_    0.703197 0.738753 0.578237 0.108361
H115  H     H_    0.796817 0.238702 0.421672 0.108535
H116  H     H_    0.203197 0.238753 0.578237 0.108491
H117  H     H_    0.532278 0.638155 0.936058 0.122855
H118  H     H_    0.464272 0.642028 0.065428 0.122708
H119  H     H_    0.026403 0.132620 0.940423 0.120461
H120  H     H_    0.957849 0.154543 0.070071 0.123714
H121  H     H_    0.357703 0.580949 0.534128 0.117858
H122  H     H_    0.286849 0.746217 0.081609 0.103512
H123  H     H_    0.642306 0.580917 0.465883 0.117844
H124  H     H_    0.857703 0.080949 0.534128 0.117866
H125  H     H_    0.142307 0.080917 0.465883 0.117849
H126  H     H_    0.306680 0.429054 0.462474 0.118757
H127  H     H_    0.693302 0.429124 0.537611 0.118806
H128  H     H_    0.806680 0.929054 0.462474 0.118755
H129  H     H_    0.193302 0.929124 0.537610 0.118798
H130  H     H_    0.289709 0.425538 0.582980 0.109184
H131  H     H_    0.710300 0.425502 0.417100 0.109251
H132  H     H_    0.789709 0.925538 0.582981 0.109047
O1    O     O_R   0.214130 0.708570 0.829890 -0.528219
O2    O     O_R   0.542830 0.717300 0.331620 -0.530368
O3    O     O_R   0.957170 0.217300 0.668380 -0.530433
O4    O     O_R   0.042830 0.217300 0.331620 -0.530389
O5    O     O_R   0.320870 0.624890 0.673130 -0.510427
O6    O     O_R   0.679130 0.624890 0.326870 -0.510187
O7    O     O_R   0.820870 0.124890 0.673130 -0.511042
O8    O     O_R   0.179130 0.124890 0.326870 -0.510434
O9    O     O_3   0.334430 0.834430 0.749680 -0.282451
O10   O     O_3   0.665570 0.834430 0.250320 -0.282973
O11   O     O_3   0.834430 0.334430 0.749680 -0.280287
O12   O     O_R   0.785870 0.708570 0.170110 -0.527999
O13   O     O_3   0.165570 0.334430 0.250320 -0.283550
O14   O     O_R   0.236050 0.959150 0.825270 -0.513841
O15   O     O_R   0.763950 0.959150 0.174730 -0.515002
O16   O     O_R   0.736050 0.459150 0.825270 -0.513457
O17   O     O_R   0.263950 0.459150 0.174730 -0.513911
O18   O     O_R   0.332100 0.076650 0.832310 -0.533169
O19   O     O_R   0.667900 0.076650 0.167690 -0.532323
O20   O     O_R   0.832100 0.576650 0.832310 -0.533437
O21   O     O_R   0.167900 0.576650 0.167690 -0.533443
O22   O     O_R   0.446500 0.918620 0.826240 -0.503894
O23   O     O_R   0.714130 0.208570 0.829890 -0.528861
O24   O     O_R   0.553500 0.918620 0.173760 -0.503863
O25   O     O_R   0.946500 0.418620 0.826240 -0.503683
O26   O     O_R   0.053500 0.418620 0.173760 -0.503655
O27   O     O_R   0.457310 0.715830 0.831280 -0.524396
O28   O     O_R   0.542690 0.715830 0.168720 -0.524332
O29   O     O_R   0.957310 0.215830 0.831280 -0.523640
O30   O     O_R   0.042690 0.215830 0.168720 -0.524275
O31   O     O_R   0.321000 0.623520 0.824130 -0.519003
O32   O     O_R   0.679000 0.623520 0.175870 -0.519012
O33   O     O_R   0.821000 0.123520 0.824130 -0.519837
O34   O     O_R   0.285870 0.208570 0.170110 -0.527764
O35   O     O_R   0.179000 0.123520 0.175870 -0.519404
O36   O     O_R   0.213990 0.710040 0.667000 -0.532745
O37   O     O_R   0.786010 0.710040 0.333000 -0.532392
O38   O     O_R   0.713990 0.210040 0.667000 -0.533107
O39   O     O_R   0.286010 0.210040 0.333000 -0.532689
O40   O     O_R   0.235920 0.960520 0.674260 -0.511413
O41   O     O_R   0.764080 0.960520 0.325740 -0.511149
O42   O     O_R   0.735920 0.460520 0.674260 -0.511801
O43   O     O_R   0.264080 0.460520 0.325740 -0.511218
O44   O     O_R   0.331960 0.078120 0.669410 -0.533800
O45   O     O_R   0.446360 0.919990 0.675230 -0.506893
O46   O     O_R   0.668040 0.078120 0.330590 -0.533373
O47   O     O_R   0.831960 0.578120 0.669410 -0.534154
O48   O     O_R   0.168040 0.578120 0.330590 -0.533693
O49   O     O_R   0.553640 0.919990 0.324770 -0.506856
O50   O     O_R   0.946360 0.419990 0.675230 -0.507010
O51   O     O_R   0.053640 0.419990 0.324770 -0.506788
O52   O     O_R   0.457170 0.717300 0.668380 -0.530485

loop_
_geom_bond_atom_site_label_1
_geom_bond_atom_site_label_2
_ccdc_geom_bond_type
C37   H100  S    
C9    O6    A    
C33   O19   A    
C113  O34   A    
C46   C112  S    
C11   O8    A    
C89   H127  S    
C90   H128  S    
C4    O52   A    
C14   C21   S    
C90   C107  S    
Cr2   O10   S    
C54   H44   S    
C5    C74   S    
Cr9   O19   S    
C36   C53   S    
C117  H38   S    
C18   H45   S    
C34   C42   S    
C89   C106  S    
C70   C74   S    
C35   H122  S    
C91   C100  S    
C94   H115  S    
C85   C103  S    
C83   H91   S    
C59   C60   S    
Cr9   O10   S    
C85   H97   S    
C57   H60   S    
Cr1   O1    S    
Cr11  O21   S    
C19   C99   S    
C61   O27   A    
C81   H88   S    
Cr4   O4    S    
C17   C21   S    
C19   C23   S    
C80   H31   S    
C19   H56   S    
C49   H52   S    
Cr11  O51   S    
C16   C20   S    
C85   H93   S    
C13   H10   S    
C31   H25   S    
Cr4   O35   S    
C71   H79   S    
C10   O7    A    
C14   H74   S    
C17   H1    S    
C120  O47   A    
C104  C117  S    
C116  H124  S    
C66   C77   S    
C28   H15   S    
C26   H17   S    
C10   O38   A    
C45   C111  S    
C82   H90   S    
C58   H61   S    
C12   H73   S    
Cr12  O52   S    
C103  C116  S    
C79   C96   S    
Cr7   O34   S    
C62   O24   A    
Cr8   O9    S    
C57   H55   S    
C88   C99   S    
Cr8   O45   S    
C2    C40   S    
C108  H105  S    
C81   C98   S    
C55   O17   A    
C103  C107  S    
C77   H118  S    
C82   H33   S    
C70   H70   S    
Cr8   O44   S    
C21   C66   S    
C84   C102  S    
C3    O48   A    
C110  H4    S    
Cr8   O18   S    
C86   C104  S    
C29   H16   S    
C56   H46   S    
C50   H26   S    
C38   H111  S    
C48   H28   S    
C28   C46   S    
C34   C51   S    
C29   C47   S    
C30   C48   S    
C65   H83   S    
C43   C52   S    
C15   C25   S    
C24   H11   S    
C12   C22   S    
C63   O29   A    
Cr1   O36   S    
C64   O26   A    
C2    H9    S    
C8    O36   A    
C119  O46   A    
C32   C41   S    
C49   H29   S    
C91   H129  S    
C5    O49   A    
C65   H64   S    
Cr5   O37   S    
C45   C53   S    
Cr3   O33   S    
C69   H84   S    
Cr4   O30   S    
Cr3   O11   S    
C60   C78   S    
C92   C96   S    
C54   H40   S    
C108  H3    S    
C109  O1    A    
C53   H39   S    
C105  H130  S    
C109  O31   A    
C111  O12   A    
C62   O28   A    
C65   C74   S    
C25   C64   S    
C69   C72   S    
C87   C105  S    
Cr12  O27   S    
C61   O22   A    
C115  H123  S    
C107  H132  S    
C16   C23   S    
C23   C88   S    
C81   H32   S    
C67   C75   S    
Cr3   O29   S    
C93   C97   S    
C35   C52   S    
Cr2   O2    S    
Cr3   O7    S    
Cr4   O8    S    
C119  O41   A    
C18   C22   S    
C36   H2    S    
C7    C76   S    
Cr9   O49   S    
C27   H18   S    
C91   H101  S    
C67   C70   S    
C13   H6    S    
C89   H103  S    
C68   H85   S    
C51   H54   S    
C93   H109  S    
C57   C58   S    
C44   O16   A    
Cr12  O9    S    
Cr10  O25   S    
C30   C39   S    
C37   C41   S    
C40   C44   S    
C38   C56   S    
C28   H19   S    
C67   H82   S    
C43   C109  S    
C115  H36   S    
C59   C76   S    
C15   H75   S    
C60   H63   S    
C47   C56   S    
C107  H104  S    
Cr10  O50   S    
C52   H42   S    
C24   C42   S    
C34   H48   S    
C80   C84   S    
C80   H87   S    
C13   C41   S    
Cr2   O32   S    
C15   C19   S    
C53   H43   S    
C10   C103  S    
C35   H78   S    
C52   H35   S    
C80   C97   S    
C20   C25   S    
C94   C98   S    
C44   O20   A    
C55   O21   A    
C31   C40   S    
C24   C29   S    
C4    C75   S    
C102  C115  S    
C25   C99   S    
C39   C55   S    
C9    C102  S    
C12   C17   S    
C69   H68   S    
C13   C28   S    
C11   C104  S    
C112  O23   A    
C83   C101  S    
C8    C101  S    
C21   C61   S    
C95   H112  S    
C72   H72   S    
C2    C27   S    
C27   C45   S    
C23   C63   S    
C5    O2    A    
C113  O35   A    
C92   H113  S    
C101  C114  S    
C73   H81   S    
C31   C49   S    
Cr5   O10   S    
C34   H22   S    
C24   H7    S    
Cr1   O40   S    
C86   H98   S    
Cr1   O14   S    
C84   H92   S    
Cr12  O5    S    
C94   C116  S    
C95   C100  S    
C47   C51   S    
C82   C86   S    
C95   C117  S    
C35   C39   S    
C73   H71   S    
C6    O50   A    
Cr6   O38   S    
C45   C49   S    
Cr7   O43   S    
C46   C54   S    
C17   C77   S    
Cr2   O28   S    
Cr7   O13   S    
C88   H119  S    
C30   H23   S    
C31   H50   S    
C30   H49   S    
C18   C66   S    
C79   H30   S    
C104  C108  S    
C47   C113  S    
C114  H121  S    
C2    H5    S    
C91   C108  S    
C22   C77   S    
C99   H120  S    
C67   H65   S    
C48   H51   S    
Cr4   O13   S    
C38   C42   S    
Cr11  O48   S    
Cr12  O31   S    
C56   H41   S    
C33   C41   S    
C1    O14   A    
C79   C83   S    
C27   H14   S    
C20   C88   S    
C7    O51   A    
C106  H131  S    
Cr1   O9    S    
Cr11  O13   S    
C6    C78   S    
C93   H114  S    
Cr2   O6    S    
C32   H21   S    
Cr3   O3    S    
C1    C42   S    
C6    O3    A    
C120  O42   A    
C59   H58   S    
C58   C75   S    
Cr5   O12   S    
Cr6   O11   S    
C14   C18   S    
C38   H24   S    
C72   C76   S    
C98   C119  S    
C83   H95   S    
C92   H108  S    
C87   H102  S    
Cr6   O42   S    
Cr7   O39   S    
C1    O18   A    
C4    O45   A    
C15   C16   S    
C68   H66   S    
C93   C115  S    
Cr10  O20   S    
C39   C110  S    
C118  O44   A    
C73   C78   S    
C32   H47   S    
C3    C96   S    
C43   C48   S    
C26   C110  S    
C66   H117  S    
Cr6   O23   S    
Cr5   O41   S    
C69   C78   S    
C26   H12   S    
C87   H126  S    
C26   C43   S    
C114  H34   S    
Cr10  O47   S    
C59   H62   S    
C101  C105  S    
C36   C40   S    
C79   H86   S    
Cr5   O15   S    
C68   C73   S    
C65   C71   S    
Cr6   O16   S    
C89   C97   S    
C57   C74   S    
C20   H67   S    
C9    O37   A    
C8    O5    A    
C95   H116  S    
C22   C62   S    
C117  H125  S    
C11   O39   A    
C105  H106  S    
C87   C96   S    
C58   H57   S    
C118  O40   A    
C68   C76   S    
C32   C50   S    
C37   C54   S    
C12   C14   S    
C86   H94   S    
C90   H99   S    
C84   H96   S    
C33   O15   A    
C71   H69   S    
C111  O32   A    
Cr11  O26   S    
C82   C100  S    
Cr9   O24   S    
C16   H76   S    
Cr9   O46   S    
C46   C50   S    
C112  O33   A    
C106  H107  S    
Cr7   O17   S    
C97   C120  S    
C110  H8    S    
C94   H110  S    
Cr8   O22   S    
C29   H20   S    
C71   C75   S    
C72   H80   S    
C60   H59   S    
C36   H89   S    
C51   H27   S    
C116  H37   S    
C102  C106  S    
C7    O4    A    
C81   C85   S    
C100  C118  S    
C63   O25   A    
C70   H77   S    
C3    O43   A    
C64   O30   A    
C37   H13   S    
Cr10  O11   S    
C50   H53   S    
C92   C114  S    
C90   C98   S    
