data_mof_unit_6197.cif
_audit_creation_date              2012-12-10T18:47:07-0500
_audit_creation_method            fapswitch 2.2
_symmetry_space_group_name_H-M    P1
_symmetry_Int_Tables_number       1
_space_group_crystal_system       triclinic
_cell_length_a                    10.622166
_cell_length_b                    9.838751
_cell_length_c                    15.004827
_cell_angle_alpha                 90.031517
_cell_angle_beta                  90.071371
_cell_angle_gamma                 90.082947
_cell_volume                      1568.13406083

loop_
_atom_site_label
_atom_site_type_symbol
_atom_type_description
_atom_site_fract_x
_atom_site_fract_y
_atom_site_fract_z
_atom_type_partial_charge
C1    C     C_R   0.260339 0.499925 0.499968 1.044464
C2    C     C_R   0.128016 0.499814 0.499947 -0.359837
C3    C     C_R   0.572496 0.072137 0.559208 -0.022611
C4    C     C_R   0.427504 0.927863 0.440791 -0.022600
C5    C     C_R   0.427501 0.071782 0.440798 -0.036662
C6    C     C_R   0.572499 0.928218 0.559201 -0.036663
C7    C     C_R   0.499752 0.500002 0.326602 0.943818
C8    C     C_R   0.500245 0.499999 0.673399 0.943815
C9    C     C_R   0.527329 0.379482 0.814756 -0.104750
C10   C     C_R   0.472716 0.620536 0.185244 -0.104720
C11   C     C_R   0.500628 0.499845 0.769214 -0.068735
C12   C     C_R   0.739661 0.500074 0.500031 1.044471
C13   C     C_R   0.499396 0.500166 0.230788 -0.068740
C14   C     C_R   0.474060 0.619860 0.814918 -0.164783
C15   C     C_R   0.525967 0.380136 0.185086 -0.164774
C16   C     C_R   0.473566 0.620572 0.906998 0.057948
C17   C     C_R   0.526482 0.379423 0.093005 0.057957
C18   C     C_R   0.500323 0.499463 0.953587 0.020481
C19   C     C_R   0.499730 0.500542 0.046415 0.020436
C20   C     C_R   0.527580 0.377493 0.907286 0.019994
C21   C     C_R   0.472487 0.622516 0.092715 0.020026
C22   C     C_R   0.446445 0.740726 0.952753 -0.175782
C23   C     C_R   0.445787 0.742740 0.045312 0.407260
C24   C     C_R   0.553642 0.259257 0.047250 -0.175737
C25   C     C_R   0.554327 0.257259 0.954691 0.407206
C26   C     C_R   0.065064 0.446878 0.574209 0.315141
C27   C     C_R   0.934935 0.553112 0.425784 0.315139
C28   C     C_R   0.935051 0.446994 0.574241 0.306821
C29   C     C_R   0.064950 0.552989 0.425747 0.306827
C30   C     C_R   0.871984 0.500183 0.500047 -0.359824
Cl1   Cl    Cl    0.411072 0.898245 0.098431 -0.573001
Cl2   Cl    Cl    0.589205 0.101766 0.901575 -0.572833
Cl3   Cl    Cl    0.148678 0.385157 0.668105 -0.494125
Cl4   Cl    Cl    0.851316 0.614874 0.331909 -0.494127
Cl5   Cl    Cl    0.851587 0.384915 0.668032 -0.519571
Cl6   Cl    Cl    0.148420 0.615061 0.331952 -0.519605
H1    H     H_    0.548614 0.288115 0.777535 0.211938
H2    H     H_    0.630473 0.873805 0.606510 0.154310
H3    H     H_    0.451419 0.711906 0.222464 0.211960
H4    H     H_    0.452817 0.712644 0.778888 0.174351
H5    H     H_    0.547201 0.287343 0.221120 0.174362
H6    H     H_    0.425637 0.833284 0.916477 0.216538
H7    H     H_    0.574475 0.166679 0.083525 0.216590
H8    H     H_    0.630462 0.126833 0.606528 0.172593
H9    H     H_    0.369540 0.873167 0.393470 0.172582
H10   H     H_    0.369527 0.126194 0.393489 0.154304
N1    N     N_R   0.500000 0.857200 0.500000 -0.100150
N2    N     N_R   0.500000 0.142800 0.500000 -0.100152
O1    O     O_R   0.316770 0.614620 0.499990 -0.601335
O2    O     O_R   0.683230 0.385380 0.500010 -0.601337
O3    O     O_R   0.683230 0.614620 0.500010 -0.596925
O4    O     O_R   0.316770 0.385380 0.499990 -0.596940
O5    O     O_R   0.499980 0.614680 0.367850 -0.608659
O6    O     O_R   0.500020 0.385320 0.632150 -0.608664
O7    O     O_R   0.500020 0.614680 0.632150 -0.640635
O8    O     O_R   0.499980 0.385320 0.367850 -0.640637
Zn1   Zn    Zn3+2 0.500000 0.653120 0.500000 1.021795
Zn2   Zn    Zn3+2 0.500000 0.346880 0.500000 1.021787

loop_
_geom_bond_atom_site_label_1
_geom_bond_atom_site_label_2
_ccdc_geom_bond_type
C12   O2    A    
C6    H2    S    
N2    Zn2   S    
O3    Zn1   S    
N1    Zn1   S    
C5    H10   S    
C9    C20   A    
C26   C28   A    
C13   C15   A    
C3    C6    A    
C25   Cl2   S    
C9    H1    S    
C1    O4    A    
C2    C26   A    
O7    Zn1   S    
C27   C30   A    
C9    C11   A    
C29   Cl6   S    
C27   Cl4   S    
C22   H6    S    
O4    Zn2   S    
C7    O8    A    
C2    C29   A    
C8    O7    A    
C28   C30   A    
C17   C19   A    
O8    Zn2   S    
C1    C2    S    
C18   C20   A    
C4    H9    S    
C8    C11   S    
C10   C21   A    
O6    Zn2   S    
C5    N2    A    
C14   C16   A    
C3    H8    S    
C17   C24   A    
C27   C29   A    
C6    N1    A    
C7    O5    A    
C14   H4    S    
O2    Zn2   S    
C3    N2    A    
C7    C13   S    
C12   O3    A    
O1    Zn1   S    
C24   C25   A    
C15   H5    S    
C16   C18   A    
C18   C19   A    
C20   C25   A    
C8    O6    A    
C11   C14   A    
C15   C17   A    
C24   H7    S    
O5    Zn1   S    
C22   C23   A    
C4    C5    A    
C16   C22   A    
C26   Cl3   S    
C12   C30   S    
C1    O1    A    
C21   C23   A    
C4    N1    A    
C28   Cl5   S    
C10   H3    S    
C19   C21   A    
C10   C13   A    
C23   Cl1   S    
