data_mof_unit_56427.cif
_audit_creation_date              2012-12-10T18:48:41-0500
_audit_creation_method            fapswitch 2.2
_symmetry_space_group_name_H-M    P1
_symmetry_Int_Tables_number       1
_space_group_crystal_system       monoclinic
_cell_length_a                    15.114131
_cell_length_b                    15.044357
_cell_length_c                    9.929713
_cell_angle_alpha                 90.0
_cell_angle_beta                  90.0
_cell_angle_gamma                 90.147421
_cell_volume                      2257.83432585

loop_
_atom_site_label
_atom_site_type_symbol
_atom_type_description
_atom_site_fract_x
_atom_site_fract_y
_atom_site_fract_z
_atom_type_partial_charge
C1    C     C_R   0.119866 0.380094 0.500035 0.836562
C2    C     C_R   0.942915 0.446999 0.928711 0.356815
C3    C     C_R   0.948197 0.441807 0.071333 0.354859
C4    C     C_R   0.057085 0.553001 0.928711 0.356816
C5    C     C_R   0.499071 0.078298 0.072488 0.354265
C6    C     C_R   0.495298 0.921799 0.927625 0.349505
C7    C     C_R   0.500929 0.921702 0.072488 0.354265
C8    C     C_R   0.504702 0.078200 0.927625 0.349505
C9    C     C_R   0.752750 0.311841 0.394767 -0.192568
C10   C     C_R   0.187444 0.748464 0.604032 -0.186114
C11   C     C_R   0.247250 0.688159 0.394767 -0.192567
C12   C     C_R   0.880134 0.619906 0.500035 0.836562
C13   C     C_R   0.812556 0.251536 0.604032 -0.186115
C14   C     C_R   0.242893 0.307278 0.610546 -0.207393
C15   C     C_R   0.808022 0.744068 0.390567 -0.201352
C16   C     C_R   0.757107 0.692722 0.610546 -0.207393
C17   C     C_R   0.191977 0.255932 0.390567 -0.201352
C18   C     C_R   0.311444 0.752690 0.394545 -0.200251
C19   C     C_R   0.748440 0.186942 0.603702 -0.231011
C20   C     C_R   0.688556 0.247310 0.394545 -0.200251
C21   C     C_R   0.251560 0.813059 0.603702 -0.231011
C22   C     C_R   0.692903 0.756953 0.610555 -0.191203
C23   C     C_R   0.880177 0.380105 0.499965 0.850821
C24   C     C_R   0.255672 0.191227 0.391144 -0.217679
C25   C     C_R   0.307097 0.243046 0.610555 -0.191203
C26   C     C_R   0.744328 0.808773 0.391144 -0.217679
C27   C     C_R   0.185877 0.686358 0.499732 -0.022288
C28   C     C_R   0.814123 0.313642 0.499732 -0.022288
C29   C     C_R   0.814055 0.686389 0.500257 0.007268
C30   C     C_R   0.185945 0.313611 0.500257 0.007268
C31   C     C_R   0.686566 0.185652 0.499491 -0.007751
C32   C     C_R   0.313434 0.814348 0.499491 -0.007750
C33   C     C_R   0.313355 0.185638 0.500517 -0.008177
C34   C     C_R   0.119823 0.619894 0.499965 0.850821
C35   C     C_R   0.686645 0.814362 0.500517 -0.008177
C36   C     C_3   0.059096 0.702044 0.135912 -0.242117
C37   C     C_3   0.799629 0.436374 0.865309 -0.248279
C38   C     C_3   0.940904 0.297956 0.135912 -0.242117
C39   C     C_3   0.200371 0.563626 0.865309 -0.248281
C40   C     C_3   0.416516 0.201403 0.119464 -0.254465
C41   C     C_3   0.406583 0.802837 0.880035 -0.242323
C42   C     C_3   0.583484 0.798597 0.119464 -0.254462
C43   C     C_3   0.593417 0.197163 0.880035 -0.242323
C44   C     C_R   0.620014 0.880257 0.500077 0.849602
C45   C     C_R   0.379986 0.119743 0.500077 0.849602
C46   C     C_R   0.380026 0.880263 0.499927 0.854057
C47   C     C_R   0.619974 0.119737 0.499927 0.854057
C48   C     C_R   0.051803 0.558193 0.071333 0.354859
H1    H     H_    0.098599 0.750742 0.194609 0.176546
H2    H     H_    0.248226 0.604572 0.807407 0.170813
H3    H     H_    0.197244 0.497042 0.816601 0.148824
H4    H     H_    0.226244 0.557672 0.969798 0.163573
H5    H     H_    0.404832 0.249289 0.202489 0.180840
H6    H     H_    0.358628 0.155399 0.116219 0.132865
H7    H     H_    0.420279 0.240393 0.024799 0.181875
H8    H     H_    0.393895 0.753576 0.799134 0.177810
H9    H     H_    0.351085 0.851464 0.878423 0.138484
H10   H     H_    0.406720 0.765936 0.976767 0.183641
H11   H     H_    0.595168 0.750710 0.202489 0.180840
H12   H     H_    0.992885 0.696976 0.184418 0.146804
H13   H     H_    0.641372 0.844601 0.116219 0.132864
H14   H     H_    0.579720 0.759607 0.024799 0.181875
H15   H     H_    0.606105 0.246424 0.799134 0.177810
H16   H     H_    0.648915 0.148536 0.878423 0.138484
H17   H     H_    0.593280 0.234064 0.976767 0.183641
H18   H     H_    0.753801 0.360745 0.314652 0.186872
H19   H     H_    0.138676 0.747681 0.684019 0.187326
H20   H     H_    0.246199 0.639255 0.314652 0.186872
H21   H     H_    0.861324 0.252319 0.684019 0.187327
H22   H     H_    0.238498 0.352429 0.695271 0.137904
H23   H     H_    0.052610 0.728445 0.031733 0.162756
H24   H     H_    0.853032 0.739912 0.305923 0.136223
H25   H     H_    0.761502 0.647571 0.695271 0.137904
H26   H     H_    0.146968 0.260087 0.305923 0.136223
H27   H     H_    0.359975 0.753762 0.314167 0.182354
H28   H     H_    0.747769 0.137608 0.683160 0.145707
H29   H     H_    0.640025 0.246237 0.314167 0.182354
H30   H     H_    0.252231 0.862392 0.683160 0.145707
H31   H     H_    0.647796 0.761116 0.695187 0.176977
H32   H     H_    0.259228 0.145200 0.307481 0.142882
H33   H     H_    0.352204 0.238883 0.695187 0.176977
H34   H     H_    0.751774 0.395428 0.807407 0.170813
H35   H     H_    0.740772 0.854800 0.307481 0.142882
H36   H     H_    0.802756 0.502958 0.816601 0.148824
H37   H     H_    0.773756 0.442328 0.969798 0.163573
H38   H     H_    0.901401 0.249258 0.194609 0.176546
H39   H     H_    0.007115 0.303024 0.184418 0.146804
H40   H     H_    0.947390 0.271555 0.031733 0.162757
N1    N     N_R   1.000000 0.500000 0.857200 -0.205336
N2    N     N_R   1.000000 0.500000 0.142800 -0.205481
N3    N     N_R   0.500000 1.000000 0.857200 -0.188318
N4    N     N_R   0.500000 1.000000 0.142800 -0.188588
O1    O     O_R   0.091610 0.408380 0.614620 -0.624234
O2    O     O_R   0.408390 0.091620 0.385380 -0.595087
O3    O     O_R   0.408390 0.091620 0.614620 -0.591651
O4    O     O_R   0.591610 0.908380 0.385380 -0.595087
O5    O     O_R   0.408390 0.908380 0.385380 -0.587498
O6    O     O_R   0.591610 0.091620 0.614620 -0.592287
O7    O     O_R   0.591610 0.091620 0.385380 -0.587498
O8    O     O_R   0.408390 0.908380 0.614620 -0.592287
O9    O     O_3   0.103507 0.619706 0.137461 -0.564603
O10   O     O_3   0.882691 0.393830 0.862643 -0.564250
O11   O     O_3   0.896493 0.380294 0.137461 -0.564603
O12   O     O_R   0.908390 0.591620 0.385380 -0.625761
O13   O     O_3   0.117309 0.606170 0.862643 -0.564250
O14   O     O_3   0.496991 0.156891 0.144618 -0.575193
O15   O     O_3   0.489519 0.843264 0.855765 -0.577223
O16   O     O_3   0.503009 0.843109 0.144618 -0.575194
O17   O     O_3   0.510481 0.156736 0.855765 -0.577223
O18   O     O_R   0.908390 0.591620 0.614620 -0.624234
O19   O     O_R   0.091610 0.408380 0.385380 -0.625761
O20   O     O_R   0.908390 0.408380 0.385380 -0.563723
O21   O     O_R   0.091610 0.591620 0.614620 -0.564111
O22   O     O_R   0.091610 0.591620 0.385380 -0.563723
O23   O     O_R   0.908390 0.408380 0.614620 -0.564111
O24   O     O_R   0.591610 0.908380 0.614620 -0.591651
Zn1   Zn    Zn3+2 1.000000 0.500000 0.653120 0.986551
Zn2   Zn    Zn3+2 1.000000 0.500000 0.346880 0.985143
Zn3   Zn    Zn3+2 0.500000 0.000000 0.653120 1.011121
Zn4   Zn    Zn3+2 0.500000 0.000000 0.346880 1.012429

loop_
_geom_bond_atom_site_label_1
_geom_bond_atom_site_label_2
_ccdc_geom_bond_type
C10   C27   A    
C39   H3    S    
C11   C18   A    
C18   H27   S    
C12   C29   S    
C33   C45   S    
C19   C31   A    
C12   O18   A    
C43   H15   S    
O6    Zn3   S    
C10   H19   S    
C34   O21   A    
C22   C35   A    
C26   H35   S    
C47   O6    A    
C20   H29   S    
C38   H38   S    
C3    N2    A    
N2    Zn2   S    
C37   H37   S    
C19   H28   S    
C41   H10   S    
C12   O12   A    
C37   O10   S    
C48   O9    S    
C6    N3    A    
C47   O7    A    
C9    H18   S    
O7    Zn4   S    
O2    Zn4   S    
C24   H32   S    
O23   Zn1   S    
C21   H30   S    
C6    O15   S    
C13   C28   A    
C42   H14   S    
C36   H23   S    
C39   H4    S    
C10   C21   A    
C31   C47   S    
C25   H33   S    
C17   C30   A    
C14   H22   S    
O1    Zn1   S    
C14   C30   A    
C45   O2    A    
O18   Zn1   S    
C43   H16   S    
C15   C29   A    
O12   Zn2   S    
C5    O14   S    
C27   C34   S    
C21   C32   A    
C17   C24   A    
C13   C19   A    
C16   H25   S    
C8    N3    A    
C15   C26   A    
O3    Zn3   S    
C16   C29   A    
C38   H40   S    
C36   O9    S    
C2    N1    A    
C41   H8    S    
C38   O11   S    
C44   O4    A    
C9    C20   A    
C11   C27   A    
C43   H17   S    
C40   H7    S    
C37   H36   S    
O8    Zn3   S    
C23   C28   S    
C35   C44   S    
C42   H13   S    
O22   Zn2   S    
O21   Zn1   S    
C46   O5    A    
N1    Zn1   S    
C40   H6    S    
O19   Zn2   S    
C17   H26   S    
N3    Zn3   S    
C37   H34   S    
C18   C32   A    
C45   O3    A    
C11   H20   S    
C40   O14   S    
C4    N1    A    
C4    C48   A    
C3    O11   S    
C39   O13   S    
C46   O8    A    
C16   C22   A    
C41   O15   S    
C23   O20   A    
C32   C46   S    
O4    Zn4   S    
C36   H12   S    
C42   H11   S    
C22   H31   S    
C5    C8    A    
C6    C7    A    
C34   O22   A    
C4    O13   S    
C24   C33   A    
O24   Zn3   S    
C38   H39   S    
O5    Zn4   S    
C2    C3    A    
N4    Zn4   S    
C41   H9    S    
C8    O17   S    
C1    O19   A    
O20   Zn2   S    
C13   H21   S    
C7    N4    A    
C1    C30   S    
C15   H24   S    
C14   C25   A    
C5    N4    A    
C23   O23   A    
C26   C35   A    
C39   H2    S    
C44   O24   A    
C1    O1    A    
C40   H5    S    
C2    O10   S    
C7    O16   S    
C48   N2    A    
C43   O17   S    
C42   O16   S    
C36   H1    S    
C9    C28   A    
C25   C33   A    
C20   C31   A    
