data_mof_unit_17864.cif
_audit_creation_date              2012-12-10T19:12:18-0500
_audit_creation_method            fapswitch 2.2
_symmetry_space_group_name_H-M    P1
_symmetry_Int_Tables_number       1
_space_group_crystal_system       triclinic
_cell_length_a                    7.850852
_cell_length_b                    9.084522
_cell_length_c                    17.024979
_cell_angle_alpha                 89.8212
_cell_angle_beta                  89.458023
_cell_angle_gamma                 90.798633
_cell_volume                      1214.06387715

loop_
_atom_site_label
_atom_site_type_symbol
_atom_type_description
_atom_site_fract_x
_atom_site_fract_y
_atom_site_fract_z
_atom_type_partial_charge
C1    C     C_R   0.499267 0.220279 0.499962 0.832808
C2    C     C_R   0.500746 0.779715 0.499966 0.827922
C3    C     C_R   0.514260 0.505896 0.651375 0.846545
C4    C     C_R   0.485895 0.503740 0.348385 0.835335
C5    C     C_R   0.504516 0.529870 0.737224 -0.206855
C6    C     C_R   0.496537 0.527334 0.262455 -0.245583
C7    C     C_R   0.345202 0.555809 0.771504 -0.365944
C8    C     C_R   0.658969 0.557422 0.229338 -0.327670
C9    C     C_R   0.328102 0.592093 0.850782 0.061561
C10   C     C_R   0.677087 0.604968 0.151648 0.042335
C11   C     C_R   0.468801 0.574918 0.900815 0.240358
C12   C     C_R   0.533285 0.612715 0.104623 0.189350
C13   C     C_R   0.630365 0.545133 0.866714 0.295553
C14   C     C_R   0.372318 0.617612 0.142373 0.369322
C15   C     C_R   0.649467 0.545061 0.783927 0.326070
C16   C     C_R   0.350325 0.550749 0.216317 0.347469
C17   C     C_1   0.499031 0.065417 0.499955 -0.186103
C18   C     C_1   0.501040 0.934553 0.499965 -0.173883
Cu1   Cu    Cu3+1 0.669080 0.500010 0.500000 0.993953
Cu2   Cu    Cu3+1 0.330920 0.499990 0.500000 0.997686
H1    H     H_    0.772068 0.552738 0.265130 0.212630
H2    H     H_    0.232820 0.558234 0.735107 0.210923
N1    N     N_1   0.076820 0.499970 0.500010 -0.049422
N2    N     N_1   0.923180 0.500030 0.499990 -0.051611
N3    N     N_2   0.442065 0.568143 0.983493 -0.221234
N4    N     N_2   0.555052 0.631649 0.022149 -0.191340
O1    O     O_R   0.642760 0.288400 0.500000 -0.578256
O2    O     O_R   0.357240 0.711600 0.500000 -0.573552
O3    O     O_R   0.357190 0.288380 0.500000 -0.580384
O4    O     O_R   0.642810 0.711620 0.500000 -0.594429
O5    O     O_R   0.658410 0.498660 0.613920 -0.541155
O6    O     O_R   0.341590 0.501340 0.386080 -0.557416
O7    O     O_R   0.372840 0.498650 0.613930 -0.595048
O8    O     O_R   0.627160 0.501350 0.386070 -0.593373
C19   C     C_3   0.844208 0.668508 0.122567 -0.318548
C20   C     C_3   0.830437 0.834368 0.109973 -0.828355
H3    H     H_    0.736065 0.860709 0.064224 0.246478
H4    H     H_    0.793795 0.888170 0.165970 0.257639
H5    H     H_    0.954240 0.880233 0.090137 0.254277
H6    H     H_    0.945726 0.651705 0.166218 0.266380
H7    H     H_    0.881271 0.613379 0.067229 0.229370
C21   C     C_3   0.158838 0.657657 0.873350 -0.422635
C22   C     C_3   0.134473 0.714003 0.955981 -0.718836
H8    H     H_    0.132603 0.620428 0.997649 0.284239
H9    H     H_    0.235870 0.795863 0.969508 0.256783
H10   H     H_    0.009822 0.769775 0.960089 0.243671
H11   H     H_    0.143780 0.755858 0.835378 0.188698
H12   H     H_    0.057218 0.575939 0.860563 0.264149
O9    O     O_3   0.766834 0.512397 0.914184 -0.603082
C23   C     C_3   0.797854 0.359603 0.908532 0.066098
H13   H     H_    0.852681 0.333233 0.849746 0.170615
H14   H     H_    0.678177 0.293714 0.917968 0.134236
C24   C     C_3   0.924826 0.314422 0.971287 -0.333839
H15   H     H_    0.045562 0.377909 0.963462 0.227564
H16   H     H_    0.870648 0.339104 0.030169 0.224910
C25   C     C_3   0.963764 0.150475 0.966498 -0.961295
H17   H     H_    0.846148 0.083785 0.977213 0.256981
H18   H     H_    0.058959 0.121910 0.011655 0.254232
H19   H     H_    0.017181 0.122998 0.907775 0.261836
O10   O     O_3   0.251885 0.718910 0.119591 -0.614724
C26   C     C_3   0.322819 0.864552 0.120220 0.047113
H20   H     H_    0.226009 0.941033 0.097807 0.151768
H21   H     H_    0.431693 0.876582 0.078498 0.148017
C27   C     C_3   0.373973 0.917142 0.202840 -0.340099
H22   H     H_    0.260670 0.913869 0.242357 0.232209
H23   H     H_    0.471718 0.844481 0.228175 0.219147
C28   C     C_3   0.449526 0.072884 0.200002 -0.952610
H24   H     H_    0.569961 0.074822 0.165318 0.262650
H25   H     H_    0.477055 0.111175 0.260509 0.254544
H26   H     H_    0.359593 0.149677 0.172360 0.259366
O11   O     O_3   0.807819 0.561386 0.748593 -0.593782
C29   C     C_3   0.856195 0.712719 0.749052 0.048554
H27   H     H_    0.991262 0.719010 0.729846 0.157509
H28   H     H_    0.846696 0.760575 0.809134 0.150239
C30   C     C_3   0.757493 0.807699 0.690611 -0.371819
H29   H     H_    0.778006 0.764720 0.630553 0.259619
H30   H     H_    0.619194 0.805428 0.704691 0.199660
C31   C     C_3   0.819335 0.967733 0.692628 -0.902657
H31   H     H_    0.799260 0.014823 0.752105 0.249108
H32   H     H_    0.746671 0.033575 0.649644 0.266316
H33   H     H_    0.956838 0.975367 0.676901 0.260422
O12   O     O_3   0.187475 0.541369 0.248145 -0.593148
C32   C     C_3   0.137039 0.391757 0.258042 0.096535
H34   H     H_    0.041825 0.387554 0.306742 0.183298
H35   H     H_    0.242999 0.318991 0.276059 0.126977
C33   C     C_3   0.053701 0.330561 0.183717 -0.410682
H36   H     H_    0.955110 0.406023 0.163250 0.230112
H37   H     H_    0.150352 0.320066 0.136091 0.207551
C34   C     C_3   0.966808 0.182083 0.199157 -0.929619
H38   H     H_    0.059957 0.100556 0.219826 0.270653
H39   H     H_    0.908593 0.141796 0.144059 0.264329
H40   H     H_    0.864208 0.193261 0.244054 0.265316

loop_
_geom_bond_atom_site_label_1
_geom_bond_atom_site_label_2
_ccdc_geom_bond_type
C2    C18   S    
Cu1   Cu2   S    
C22   H8    S    
Cu1   O5    S    
C24   H15   S    
C9    C21   S    
C20   H3    S    
C31   H32   S    
C3    O7    A    
C25   H17   S    
C26   H21   S    
C19   C20   S    
C23   H14   S    
N1    N2    T    
C10   C19   S    
C34   H39   S    
Cu1   O1    S    
C29   C30   S    
C1    O3    A    
C30   C31   S    
C8    H1    S    
Cu2   O3    S    
C24   H16   S    
C4    O8    A    
C23   C24   S    
C28   H24   S    
C27   C28   S    
C29   H28   S    
C5    C7    A    
C31   H31   S    
C6    C8    A    
Cu2   O2    S    
C23   H13   S    
N3    N4    D    
C33   C34   S    
C12   N4    S    
O10   C26   S    
C28   H25   S    
C27   H23   S    
C26   C27   S    
C30   H29   S    
C30   H30   S    
C32   H34   S    
Cu2   N1    S    
C16   O12   S    
C17   C18   T    
C21   H12   S    
C34   H40   S    
C3    O5    A    
C22   H9    S    
C4    O6    A    
C10   C12   A    
C13   O9    S    
Cu2   O7    S    
C4    C6    S    
C32   H35   S    
C12   C14   A    
O12   C32   S    
C9    C11   A    
C13   C15   A    
C14   C16   A    
C21   C22   S    
C14   O10   S    
Cu2   O6    S    
C24   C25   S    
C7    C9    A    
C33   H36   S    
C20   H5    S    
C29   H27   S    
C3    C5    S    
Cu1   O8    S    
C7    H2    S    
C15   O11   S    
C1    C17   S    
C25   H19   S    
C2    O4    A    
C28   H26   S    
C27   H22   S    
C20   H4    S    
C19   H6    S    
O11   C29   S    
C11   C13   A    
C31   H33   S    
C25   H18   S    
Cu1   N2    S    
C33   H37   S    
C21   H11   S    
C26   H20   S    
C19   H7    S    
C22   H10   S    
C5    C15   A    
C6    C16   A    
C32   C33   S    
C8    C10   A    
O9    C23   S    
C1    O1    A    
C11   N3    S    
C2    O2    A    
C34   H38   S    
Cu1   O4    S    
