data_mof_unit_44284.cif
_audit_creation_date              2012-12-10T17:50:32-0500
_audit_creation_method            fapswitch 2.2
_symmetry_space_group_name_H-M    P1
_symmetry_Int_Tables_number       1
_space_group_crystal_system       triclinic
_cell_length_a                    15.710678
_cell_length_b                    10.630444
_cell_length_c                    9.931843
_cell_angle_alpha                 89.935366
_cell_angle_beta                  89.872587
_cell_angle_gamma                 91.589292
_cell_volume                      1658.08846313

loop_
_atom_site_label
_atom_site_type_symbol
_atom_type_description
_atom_site_fract_x
_atom_site_fract_y
_atom_site_fract_z
_atom_type_partial_charge
C1    C     C_R   0.502057 0.260751 0.500103 0.853860
C2    C     C_R   0.711816 0.073949 0.682881 -0.124432
C3    C     C_R   0.711874 0.943070 0.682754 -0.131706
C4    C     C_R   0.338047 0.499401 0.500143 0.892534
C5    C     C_R   0.645066 0.874700 0.622895 -0.188241
C6    C     C_R   0.576183 0.937122 0.563271 0.097108
C7    C     C_R   0.576072 0.069007 0.563499 0.098011
C8    C     C_R   0.507789 0.128664 0.499969 -0.085617
C9    C     C_R   0.443263 0.061996 0.433239 -0.189575
C10   C     C_R   0.443405 0.933455 0.432981 -0.179799
C11   C     C_R   0.508042 0.871978 0.499494 -0.099392
C12   C     C_3   0.082701 0.494873 0.501045 0.107124
C13   C     C_R   0.388694 0.334694 0.140196 -0.187084
C14   C     C_R   0.333929 0.253240 0.070266 -0.191644
C15   C     C_R   0.333936 0.253306 0.930778 0.181718
C16   C     C_R   0.502351 0.739405 0.499893 0.866969
C17   C     C_R   0.388801 0.334898 0.860657 -0.187252
C18   C     C_R   0.445254 0.418556 0.928031 0.133810
C19   C     C_R   0.445241 0.418547 0.072470 0.170744
C20   C     C_R   0.552380 0.577978 0.071140 -0.098687
C21   C     C_R   0.552361 0.577949 0.928152 -0.093870
C22   C     C_R   0.661964 0.500091 0.499895 0.872859
C23   C     C_3   0.972855 0.573980 0.595932 -0.139321
C24   C     C_3   0.969258 0.377336 0.526221 -0.197718
C25   C     C_3   0.026442 0.416554 0.406296 0.445238
C26   C     C_1   0.249042 0.497530 0.500615 -0.140738
C27   C     C_1   0.750923 0.498074 0.499706 -0.184096
C28   C     C_3   0.026901 0.456827 0.622042 -0.196037
C29   C     C_3   0.917149 0.494708 0.499973 0.124482
C30   C     C_3   0.030267 0.611879 0.474840 -0.209703
C31   C     C_3   0.972729 0.532754 0.378719 -0.197058
C32   C     C_1   0.173666 0.495979 0.501020 0.018812
C33   C     C_1   0.826248 0.496192 0.499765 -0.036440
C34   C     C_R   0.644906 0.136925 0.623263 -0.171427
Cl1   Cl    Cl    0.064311 0.312393 0.280706 -0.610459
H1    H     H_    0.764274 0.894348 0.727915 0.140353
H2    H     H_    0.948713 0.562913 0.279057 0.164921
H3    H     H_    0.057198 0.707642 0.454218 0.170131
H4    H     H_    0.948575 0.638733 0.673848 0.151331
H5    H     H_    0.051137 0.426113 0.721372 0.180537
H6    H     H_    0.391819 0.109753 0.383703 0.149236
H7    H     H_    0.648499 0.238556 0.622802 0.152452
H8    H     H_    0.764187 0.126911 0.728103 0.144942
H9    H     H_    0.648777 0.773310 0.622075 0.140899
H10   H     H_    0.392049 0.881512 0.383313 0.160893
H11   H     H_    0.595203 0.641791 0.124452 0.148276
H12   H     H_    0.384698 0.329212 0.246973 0.211401
H13   H     H_    0.291227 0.189910 0.125107 0.190862
H14   H     H_    0.385132 0.329969 0.753941 0.218039
H15   H     H_    0.595155 0.641769 0.874298 0.143650
H16   H     H_    0.942370 0.281437 0.546287 0.164193
I1    I     I_    0.250708 0.130091 0.824424 -0.349308
N1    N     N_R   0.499210 0.498800 0.142780 -0.116461
N2    N     N_R   0.499180 0.498720 0.857170 -0.114066
O1    O     O_R   0.500000 0.316780 0.614690 -0.637146
O2    O     O_R   0.499990 0.316750 0.385360 -0.632623
O3    O     O_R   0.376780 0.500000 0.614650 -0.622920
O4    O     O_R   0.376770 0.499980 0.385310 -0.625637
O5    O     O_R   0.500010 0.683250 0.614640 -0.610754
O6    O     O_R   0.500000 0.683220 0.385310 -0.613153
O7    O     O_R   0.623230 0.500020 0.614690 -0.628311
O8    O     O_R   0.623220 0.500000 0.385350 -0.603826
Zn1   Zn    Zn3+2 0.500010 0.500020 0.653130 0.946270
Zn2   Zn    Zn3+2 0.499990 0.499980 0.346870 0.952848

loop_
_geom_bond_atom_site_label_1
_geom_bond_atom_site_label_2
_ccdc_geom_bond_type
C4    O3    A    
C25   C31   S    
C4    C26   S    
O2    Zn2   S    
C26   C32   T    
C6    C7    A    
C12   C32   S    
C9    H6    S    
C22   O8    A    
C1    C8    S    
C9    C10   A    
C12   C25   S    
C21   N2    A    
O5    Zn1   S    
C34   H7    S    
O8    Zn2   S    
C2    H8    S    
O6    Zn2   S    
C2    C34   A    
C10   H10   S    
C14   C15   A    
C17   C18   A    
C1    O1    A    
C7    C8    A    
C29   C31   S    
C15   I1    S    
C27   C33   T    
C22   O7    A    
C19   N1    A    
C30   C31   S    
C3    H1    S    
C24   H16   S    
C23   H4    S    
C23   C29   S    
C21   H15   S    
N1    Zn2   S    
C5    H9    S    
C25   Cl1   S    
O3    Zn1   S    
C2    C3    A    
C22   C27   S    
O4    Zn2   S    
C5    C6    A    
C7    C34   A    
C23   C28   S    
C10   C11   A    
C18   N2    A    
C4    O4    A    
C23   C30   S    
C29   C33   S    
C24   C29   S    
C24   C25   S    
C12   C28   S    
O7    Zn1   S    
C18   C19   A    
C11   C16   S    
C17   H14   S    
C6    C11   A    
C15   C17   A    
C28   H5    S    
N2    Zn1   S    
C8    C9    A    
C13   C19   A    
C14   H13   S    
C30   H3    S    
C12   C30   S    
C20   C21   A    
C13   C14   A    
C16   O6    A    
C13   H12   S    
C1    O2    A    
C20   H11   S    
C24   C28   S    
C31   H2    S    
C20   N1    A    
C3    C5    A    
C16   O5    A    
O1    Zn1   S    
