data_mof_unit_11544.cif
_audit_creation_date              2012-10-26T17:10:35-0400
_audit_creation_method            fapswitch 2.2
_symmetry_space_group_name_H-M    P1
_symmetry_Int_Tables_number       1
_space_group_crystal_system       triclinic
_cell_length_a                    16.886087
_cell_length_b                    16.941704
_cell_length_c                    16.892929
_cell_angle_alpha                 66.926013
_cell_angle_beta                  67.308765
_cell_angle_gamma                 66.916848
_cell_volume                      3933.3078897

loop_
_atom_site_label
_atom_site_type_symbol
_atom_type_description
_atom_site_fract_x
_atom_site_fract_y
_atom_site_fract_z
_atom_type_partial_charge
C1    C     C_R   0.596428 0.022787 0.596099 0.116761
C2    C     C_R   0.403150 0.981415 0.401866 0.130294
C3    C     C_R   0.018225 0.597464 0.599272 0.102109
C4    C     C_R   0.974964 0.401867 0.405392 0.094890
C5    C     C_R   0.594039 0.597624 0.026573 0.095681
C6    C     C_R   0.399911 0.401037 0.985458 0.091067
C7    C     C_R   0.018178 0.830948 0.568804 0.809997
C8    C     C_R   0.972019 0.170886 0.434745 0.806942
C9    C     C_R   0.830748 0.568635 0.018620 0.816881
C10   C     C_R   0.170728 0.434550 0.973074 0.797363
C11   C     C_R   0.566814 0.022827 0.829750 0.815903
C12   C     C_R   0.433244 0.977037 0.170210 0.795631
C13   C     C_R   0.431195 0.169028 0.981814 0.809388
C14   C     C_R   0.565206 0.829106 0.028041 0.804816
C15   C     C_R   0.981667 0.431264 0.169177 0.816899
C16   C     C_R   0.027282 0.565322 0.829247 0.797530
C17   C     C_R   0.170280 0.977233 0.433194 0.815670
C18   C     C_R   0.829658 0.023440 0.566570 0.795813
C19   C     C_R   0.546685 0.012721 0.546110 -0.046891
C20   C     C_R   0.453394 0.992467 0.450675 -0.039591
C21   C     C_R   0.006278 0.546997 0.550264 -0.012837
C22   C     C_R   0.980761 0.453202 0.457771 -0.008760
C23   C     C_R   0.541878 0.546479 0.019920 -0.054101
C24   C     C_R   0.449480 0.451226 0.996697 -0.023579
C25   C     C_R   0.488383 0.089530 0.501820 0.096096
C26   C     C_R   0.511310 0.915840 0.495387 0.102904
C27   C     C_R   0.980013 0.466697 0.595929 0.120379
C28   C     C_R   0.974206 0.546381 0.422397 0.148085
C29   C     C_R   0.456137 0.588595 0.003231 0.117915
C30   C     C_R   0.543717 0.419817 0.985253 0.149633
C31   C     C_R   0.442615 0.079514 0.452254 0.108673
C32   C     C_R   0.558973 0.926110 0.542578 0.112108
C33   C     C_R   0.403762 0.532523 0.021022 0.129619
C34   C     C_R   0.578200 0.453880 0.024956 0.082364
C35   C     C_R   0.996282 0.410864 0.544063 0.076554
C36   C     C_R   0.014666 0.579960 0.456712 0.071362
C37   C     C_R   0.556426 0.024801 0.685224 -0.225629
C38   C     C_R   0.443293 0.977232 0.313585 -0.190873
C39   C     C_R   0.003487 0.690891 0.566947 -0.231558
C40   C     C_R   0.954510 0.319398 0.447678 -0.214820
C41   C     C_R   0.688000 0.565947 0.009173 -0.213794
C42   C     C_R   0.317550 0.445127 0.964226 -0.209250
C43   C     C_R   0.314490 0.977705 0.442711 -0.244946
C44   C     C_R   0.684800 0.027101 0.555502 -0.211144
C45   C     C_R   0.432018 0.307959 0.999396 -0.186840
C46   C     C_R   0.551725 0.680309 0.046828 -0.214142
C47   C     C_R   0.993048 0.432935 0.311547 -0.185005
C48   C     C_R   0.040237 0.553820 0.681284 -0.183165
C49   C     C_R   0.605009 0.029403 0.734087 -0.066522
C50   C     C_R   0.395011 0.970892 0.265635 -0.076285
C51   C     C_R   0.020417 0.736668 0.609584 -0.063174
C52   C     C_R   0.960402 0.267465 0.396904 -0.072945
C53   C     C_R   0.735696 0.609145 0.022628 -0.066473
C54   C     C_R   0.267027 0.396325 0.963699 -0.069222
C55   C     C_R   0.265906 0.971287 0.394858 -0.061728
C56   C     C_R   0.733896 0.030558 0.604554 -0.062874
C57   C     C_R   0.390432 0.263196 0.979748 -0.069318
C58   C     C_R   0.602891 0.732495 0.039852 -0.063936
C59   C     C_R   0.977816 0.390663 0.264164 -0.073265
C60   C     C_R   0.037193 0.603527 0.732878 -0.070753
C61   C     C_R   0.693007 0.033379 0.692908 -0.225540
C62   C     C_R   0.307217 0.966398 0.307169 -0.225955
C63   C     C_R   0.033971 0.693344 0.694031 -0.227427
C64   C     C_R   0.964422 0.306420 0.306759 -0.224136
C65   C     C_R   0.693313 0.693837 0.034868 -0.220940
C66   C     C_R   0.306738 0.307214 0.964274 -0.229130
Cu1   Cu    Cu3+1 0.995180 0.995180 0.424630 0.927036
Cu2   Cu    Cu3+1 0.004820 0.004820 0.575370 0.928745
Cu3   Cu    Cu3+1 0.995180 0.424630 0.995180 0.924751
Cu4   Cu    Cu3+1 0.004820 0.575370 0.004820 0.925730
Cu5   Cu    Cu3+1 0.424630 0.995180 0.995180 0.927080
Cu6   Cu    Cu3+1 0.575370 0.004820 0.004820 0.927919
H1    H     H_    0.731006 0.035184 0.730920 0.174651
H2    H     H_    0.269664 0.962747 0.269830 0.174845
H3    H     H_    0.038281 0.730536 0.731070 0.175728
H4    H     H_    0.961713 0.269270 0.268706 0.176317
H5    H     H_    0.731678 0.731388 0.036387 0.174901
H6    H     H_    0.270542 0.270830 0.957364 0.175208
O1    O     O_R   0.124540 0.978640 0.385460 -0.586077
O2    O     O_R   0.875460 0.021360 0.614540 -0.590521
O3    O     O_R   0.978640 0.385460 0.124540 -0.586260
O4    O     O_R   0.021360 0.614540 0.875460 -0.589929
O5    O     O_R   0.385460 0.124540 0.978640 -0.588956
O6    O     O_R   0.614540 0.875460 0.021360 -0.587302
O7    O     O_R   0.614540 0.021360 0.875460 -0.585050
O8    O     O_R   0.385460 0.978640 0.124540 -0.589611
O9    O     O_R   0.875460 0.614540 0.021360 -0.585331
O10   O     O_R   0.124540 0.385460 0.978640 -0.590523
O11   O     O_R   0.021360 0.875460 0.614540 -0.588730
O12   O     O_R   0.978640 0.124540 0.385460 -0.587860
O13   O     O_R   0.013780 0.867370 0.487190 -0.594983
O14   O     O_R   0.986220 0.132630 0.512810 -0.588286
O15   O     O_R   0.867370 0.487190 0.013780 -0.591585
O16   O     O_R   0.132630 0.512810 0.986220 -0.592964
O17   O     O_R   0.487190 0.013780 0.867370 -0.591330
O18   O     O_R   0.512810 0.986220 0.132630 -0.598156
O19   O     O_R   0.512810 0.132630 0.986220 -0.593821
O20   O     O_R   0.487190 0.867370 0.013780 -0.593753
O21   O     O_R   0.986220 0.512810 0.132630 -0.590857
O22   O     O_R   0.013780 0.487190 0.867370 -0.595110
O23   O     O_R   0.132630 0.986220 0.512810 -0.590196
O24   O     O_R   0.867370 0.013780 0.487190 -0.596882
C67   C     C_3   0.622031 0.844613 0.591088 -0.382465
C68   C     C_3   0.573468 0.806098 0.688146 -0.844261
H7    H     H_    0.550646 0.854188 0.727210 0.261587
H8    H     H_    0.514524 0.790126 0.691277 0.243000
H9    H     H_    0.619418 0.743780 0.719487 0.246149
H10   H     H_    0.653572 0.791142 0.557285 0.205978
H11   H     H_    0.679989 0.861002 0.589795 0.207480
C69   C     C_3   0.381494 0.160730 0.400844 -0.360157
C70   C     C_3   0.425474 0.186063 0.299697 -0.835680
H12   H     H_    0.399545 0.259202 0.270193 0.230287
H13   H     H_    0.499381 0.168655 0.284459 0.255658
H14   H     H_    0.408965 0.152068 0.266440 0.254529
H15   H     H_    0.360425 0.220789 0.423043 0.194344
H16   H     H_    0.317265 0.147838 0.414355 0.195352
C71   C     C_3   0.072959 0.640966 0.391360 -0.417228
C72   C     C_3   0.141273 0.601684 0.315519 -0.846817
H17   H     H_    0.182911 0.533770 0.343212 0.251634
H18   H     H_    0.107173 0.597531 0.273369 0.244884
H19   H     H_    0.185849 0.645254 0.272359 0.245283
H20   H     H_    0.030874 0.707916 0.362393 0.194198
H21   H     H_    0.112708 0.649605 0.424919 0.221916
C73   C     C_3   0.058745 0.316640 0.567134 -0.405195
C74   C     C_3   0.017956 0.253261 0.653776 -0.851642
H22   H     H_    0.016994 0.268117 0.712615 0.238880
H23   H     H_    0.948904 0.258386 0.658346 0.244191
H24   H     H_    0.059782 0.183256 0.656466 0.246998
H25   H     H_    0.119329 0.321351 0.574402 0.194827
H26   H     H_    0.084514 0.285924 0.511641 0.209291
C75   C     C_3   0.641658 0.388479 0.081578 -0.408393
C76   C     C_3   0.604227 0.311524 0.150357 -0.858483
H27   H     H_    0.536426 0.338245 0.192142 0.252635
H28   H     H_    0.600283 0.269024 0.116729 0.247377
H29   H     H_    0.648768 0.268987 0.194726 0.245586
H30   H     H_    0.707988 0.360683 0.038489 0.192856
H31   H     H_    0.651360 0.421724 0.120745 0.222667
C77   C     C_3   0.313395 0.543053 0.091328 -0.408710
C78   C     C_3   0.239837 0.627765 0.063966 -0.815567
H32   H     H_    0.247763 0.686217 0.071293 0.238282
H33   H     H_    0.238534 0.641757 0.994749 0.247122
H34   H     H_    0.173739 0.619261 0.109194 0.236096
H35   H     H_    0.323038 0.543423 0.152657 0.196639
H36   H     H_    0.288726 0.484091 0.112320 0.206564
C79   C     C_3   0.520502 0.822916 0.493837 -0.376789
C80   C     C_3   0.598995 0.794010 0.417138 -0.853499
H37   H     H_    0.585383 0.834888 0.351737 0.254896
H38   H     H_    0.661869 0.800598 0.416971 0.244850
H39   H     H_    0.608897 0.723016 0.424354 0.242901
H40   H     H_    0.528484 0.772020 0.557996 0.203176
H41   H     H_    0.458542 0.820002 0.488018 0.207529
C81   C     C_3   0.476445 0.181696 0.507679 -0.376316
C82   C     C_3   0.531633 0.234437 0.423128 -0.820929
H42   H     H_    0.602743 0.193919 0.407426 0.251376
H43   H     H_    0.505334 0.254255 0.365358 0.260985
H44   H     H_    0.528496 0.296394 0.433724 0.236553
H45   H     H_    0.404982 0.220494 0.523405 0.175444
H46   H     H_    0.496875 0.177108 0.564543 0.209633
C83   C     C_3   0.610259 0.364467 0.921760 -0.396395
C84   C     C_3   0.597869 0.407615 0.827565 -0.826623
H47   H     H_    0.600510 0.478005 0.802739 0.247048
H48   H     H_    0.652410 0.370090 0.781515 0.238446
H49   H     H_    0.533050 0.406361 0.826669 0.262108
H50   H     H_    0.679665 0.360579 0.915109 0.196368
H51   H     H_    0.609081 0.294206 0.945964 0.198069
C85   C     C_3   0.430900 0.684753 0.945439 -0.373465
C86   C     C_3   0.413563 0.690627 0.860526 -0.842839
H52   H     H_    0.475296 0.654303 0.818666 0.249159
H53   H     H_    0.359026 0.661699 0.875972 0.253306
H54   H     H_    0.393641 0.761892 0.821728 0.235993
H55   H     H_    0.371599 0.726115 0.984131 0.198774
H56   H     H_    0.485970 0.715700 0.921053 0.213061
C87   C     C_3   0.914435 0.613763 0.362347 -0.392298
C88   C     C_3   0.820001 0.603202 0.398236 -0.837874
H57   H     H_    0.820504 0.538342 0.396315 0.264449
H58   H     H_    0.789998 0.607736 0.468106 0.247133
H59   H     H_    0.777539 0.657482 0.356009 0.241384
H60   H     H_    0.906587 0.682783 0.360132 0.196821
H61   H     H_    0.942943 0.612944 0.291836 0.196442
C89   C     C_3   0.915575 0.450542 0.689595 -0.380353
C90   C     C_3   0.833483 0.531384 0.700427 -0.831486
H62   H     H_    0.851704 0.587658 0.700120 0.262456
H63   H     H_    0.801598 0.553871 0.645761 0.248336
H64   H     H_    0.783874 0.512505 0.765407 0.236816
H65   H     H_    0.888909 0.394971 0.702636 0.213404
H66   H     H_    0.948447 0.429347 0.742783 0.195348
H67   H     H_    0.488272 0.020638 0.716563 0.149990
H68   H     H_    0.510824 0.983075 0.281399 0.153950
H69   H     H_    0.979344 0.728571 0.508328 0.148209
H70   H     H_    0.938953 0.292754 0.519313 0.170710
H71   H     H_    0.724815 0.507359 0.985618 0.146184
H72   H     H_    0.290175 0.516421 0.953058 0.165021
H73   H     H_    0.283127 0.982447 0.510643 0.149153
H74   H     H_    0.715846 0.024178 0.486965 0.148201
H75   H     H_    0.487409 0.269315 0.028099 0.139295
H76   H     H_    0.479690 0.707033 0.062605 0.141012
H77   H     H_    0.021345 0.488131 0.274308 0.138125
H78   H     H_    0.056743 0.481923 0.706863 0.137441

loop_
_geom_bond_atom_site_label_1
_geom_bond_atom_site_label_2
_ccdc_geom_bond_type
C25   C31   A    
C39   C51   A    
C10   O16   A    
C45   H75   S    
C6    C45   A    
C9    O15   A    
C80   H39   S    
C70   H12   S    
C14   O6    A    
C57   C66   A    
C68   H8    S    
C79   C80   S    
C77   C78   S    
C15   O3    A    
C21   C36   A    
C37   H67   S    
C90   H62   S    
C89   C90   S    
C26   C32   A    
C22   C35   A    
C45   C57   A    
C59   C64   A    
C63   H3    S    
C60   C63   A    
C11   C49   S    
C23   C29   A    
C35   C73   S    
Cu4   O16   S    
Cu3   O15   S    
C77   H35   S    
C18   O24   A    
C39   H69   S    
C78   H34   S    
C28   C87   S    
C90   H64   S    
C13   C57   S    
C19   C32   A    
C10   C54   S    
C7    O11   A    
C55   C62   A    
C29   C33   A    
C3    C48   A    
C17   O1    A    
C4    C22   S    
C16   C60   S    
C17   O23   A    
C69   C70   S    
C1    C44   A    
C72   H17   S    
C4    C40   A    
C76   H27   S    
C74   H24   S    
C62   H2    S    
C14   O20   A    
C67   H10   S    
C8    O14   A    
Cu5   O17   S    
C82   H43   S    
C53   C65   A    
C8    C52   S    
Cu5   O5    S    
C79   H40   S    
C18   C56   S    
C10   O10   A    
C21   C27   A    
C3    C39   A    
C85   H55   S    
C22   C28   A    
C85   H56   S    
C46   C58   A    
C43   H73   S    
C66   H6    S    
Cu4   O9    S    
C16   O4    A    
C68   H7    S    
C48   C60   A    
C86   H54   S    
C80   H38   S    
Cu6   O19   S    
C90   H63   S    
Cu6   O7    S    
C30   C83   S    
C14   C58   S    
Cu5   O20   S    
C81   H46   S    
C1    C19   S    
C65   H5    S    
C41   H71   S    
C2    C20   S    
Cu1   Cu2   S    
C84   H49   S    
C51   C63   A    
Cu2   O23   S    
C86   H53   S    
C75   H30   S    
C52   C64   A    
C86   H52   S    
C30   C34   A    
C20   C31   A    
C16   O22   A    
C27   C35   A    
C40   C52   A    
Cu1   O12   S    
C83   H51   S    
C48   H78   S    
C72   H19   S    
C84   H48   S    
C29   C85   S    
C26   C79   S    
C71   H20   S    
C75   H31   S    
Cu5   O8    S    
C37   C49   A    
C44   C56   A    
C58   C65   A    
C83   C84   S    
C5    C23   S    
C2    C43   A    
C23   C34   A    
C7    O13   A    
Cu1   O13   S    
Cu2   O11   S    
C64   H4    S    
C32   C67   S    
Cu1   O1    S    
C70   H13   S    
C88   H58   S    
Cu6   O6    S    
C27   C89   S    
C82   H44   S    
C36   C71   S    
C88   H59   S    
C41   C53   A    
C79   H41   S    
Cu3   O10   S    
C89   H66   S    
C54   C66   A    
C43   C55   A    
C34   C75   S    
C18   O2    A    
C25   C81   S    
C85   C86   S    
C50   C62   A    
C3    C21   S    
C24   C30   A    
C9    C53   S    
Cu2   O2    S    
C69   H16   S    
Cu4   O21   S    
C80   H37   S    
Cu4   O4    S    
C11   O17   A    
C5    C41   A    
C81   H45   S    
C56   C61   A    
C15   C59   S    
C47   H77   S    
C15   O21   A    
C33   C77   S    
C8    O12   A    
C12   C50   S    
C78   H32   S    
C46   H76   S    
C6    C24   S    
C38   C50   A    
C1    C37   A    
C5    C46   A    
C13   O5    A    
C44   H74   S    
C24   C33   A    
C12   O8    A    
C67   H11   S    
C61   H1    S    
C2    C38   A    
C71   H21   S    
C7    C51   S    
Cu5   Cu6   S    
C77   H36   S    
C71   C72   S    
C73   H26   S    
C78   H33   S    
C49   C61   A    
C74   H22   S    
C20   C26   A    
C87   H60   S    
C11   O7    A    
C76   H29   S    
C38   H68   S    
C17   C55   S    
Cu2   O14   S    
C31   C69   S    
C73   H25   S    
C70   H14   S    
C13   O19   A    
Cu3   Cu4   S    
C19   C25   A    
C84   H47   S    
C72   H18   S    
Cu3   O3    S    
C89   H65   S    
C47   C59   A    
C9    O9    A    
Cu6   O18   S    
Cu3   O22   S    
C42   H72   S    
C40   H70   S    
C81   C82   S    
C28   C36   A    
C76   H28   S    
C6    C42   A    
C67   C68   S    
C74   H23   S    
C87   H61   S    
C83   H50   S    
C12   O18   A    
C82   H42   S    
C87   C88   S    
C69   H15   S    
C4    C47   A    
C68   H9    S    
C42   C54   A    
C75   C76   S    
Cu1   O24   S    
C73   C74   S    
C88   H57   S    
