data_mof_unit_50003.cif
_audit_creation_date              2012-12-10T19:14:27-0500
_audit_creation_method            fapswitch 2.2
_symmetry_space_group_name_H-M    P1
_symmetry_Int_Tables_number       1
_space_group_crystal_system       triclinic
_cell_length_a                    15.989197
_cell_length_b                    14.74686
_cell_length_c                    10.804975
_cell_angle_alpha                 90.609576
_cell_angle_beta                  89.78591
_cell_angle_gamma                 89.834824
_cell_volume                      2547.53706076

loop_
_atom_site_label
_atom_site_type_symbol
_atom_type_description
_atom_site_fract_x
_atom_site_fract_y
_atom_site_fract_z
_atom_type_partial_charge
C1    C     C_R   0.340867 0.499993 0.499937 0.829176
C2    C     C_R   0.659168 0.499832 0.500147 0.848094
C3    C     C_R   0.954377 0.404480 0.488076 0.059846
C4    C     C_R   0.043838 0.400890 0.493547 0.074100
C5    C     C_1   0.823225 0.495603 0.501627 -0.066663
C6    C     C_1   0.177008 0.492668 0.503145 -0.063786
C7    C     C_1   0.251871 0.498758 0.501317 -0.212027
C8    C     C_1   0.748234 0.498907 0.500799 -0.185699
C9    C     C_R   0.549265 0.951977 0.586166 0.061214
C10   C     C_R   0.440166 0.951010 0.426652 0.061142
C11   C     C_R   0.495720 0.903030 0.505049 -0.057087
C12   C     C_R   0.444927 0.048018 0.419277 0.061245
C13   C     C_R   0.550974 0.049035 0.583609 0.062285
C14   C     C_R   0.498858 0.096946 0.500215 -0.055776
C15   C     C_1   0.498239 0.802555 0.501920 0.097021
C16   C     C_1   0.499410 0.197431 0.499908 0.111687
C17   C     C_R   0.508576 0.499778 0.261980 0.840481
C18   C     C_R   0.492627 0.501059 0.738521 0.797103
C19   C     C_R   0.571590 0.658224 0.109781 0.179819
C20   C     C_R   0.473518 0.674488 0.896611 0.193491
C21   C     C_R   0.563880 0.741974 0.050978 -0.258367
C22   C     C_R   0.510780 0.750961 0.950283 -0.187703
C23   C     C_R   0.494506 0.586811 0.941832 0.021489
C24   C     C_R   0.528170 0.581654 0.061797 0.077503
C25   C     C_R   0.516395 0.499864 0.127335 -0.093127
C26   C     C_R   0.486100 0.504100 0.873697 -0.122794
C27   C     C_R   0.497204 0.419888 0.062809 -0.230883
C28   C     C_R   0.486692 0.421343 0.936116 -0.202484
C29   C     C_R   0.957832 0.568656 0.519557 -0.216918
C30   C     C_R   0.044253 0.566669 0.520178 -0.218963
C31   C     C_R   0.912861 0.488983 0.502907 0.111170
C32   C     C_R   0.087721 0.484859 0.506473 0.124811
Cu1   Cu    Cu3+1 0.500000 0.589220 0.500000 0.954385
Cu2   Cu    Cu3+1 0.500000 0.410780 0.500000 0.956176
H1    H     H_    0.490644 0.355956 0.110159 0.172610
H2    H     H_    0.478115 0.357518 0.887242 0.168674
H3    H     H_    0.595786 0.801109 0.087469 0.138747
H4    H     H_    0.497235 0.817923 0.915246 0.142528
H5    H     H_    0.077712 0.630138 0.530892 0.152257
H6    H     H_    0.925788 0.633141 0.530744 0.149409
N1    N     N_1   0.500000 0.276710 0.500000 -0.160783
N2    N     N_1   0.500000 0.723290 0.500000 -0.172828
O1    O     O_R   0.380310 0.575320 0.500020 -0.574640
O2    O     O_R   0.619690 0.575320 0.499980 -0.565110
O3    O     O_R   0.380310 0.424640 0.499960 -0.576099
O4    O     O_R   0.619690 0.424640 0.500040 -0.574004
O5    O     O_R   0.500000 0.575360 0.319640 -0.558194
O6    O     O_R   0.500000 0.575360 0.680360 -0.585705
O7    O     O_R   0.500000 0.424670 0.319580 -0.588585
O8    O     O_R   0.500000 0.424670 0.680420 -0.574827
N3    N     N_3   0.629866 0.649416 0.209488 -0.583945
H7    H     H_    0.689445 0.664685 0.175533 0.204544
H8    H     H_    0.615025 0.698226 0.277072 0.234599
N4    N     N_3   0.404264 0.689414 0.814739 -0.599160
H9    H     H_    0.372462 0.629186 0.795104 0.220998
H10   H     H_    0.426475 0.717482 0.732648 0.244122
C33   C     C_3   0.901904 0.319410 0.466579 -0.421720
C34   C     C_3   0.869074 0.281884 0.589462 -0.320787
C35   C     C_3   0.819228 0.195035 0.568835 -0.873546
H11   H     H_    0.764987 0.208217 0.507594 0.256389
H12   H     H_    0.859487 0.141711 0.526034 0.251126
H13   H     H_    0.795813 0.170094 0.659112 0.241070
H14   H     H_    0.922127 0.267203 0.652322 0.210283
H15   H     H_    0.828006 0.332843 0.635910 0.228143
H16   H     H_    0.848371 0.335066 0.404968 0.206719
H17   H     H_    0.937150 0.266012 0.415494 0.187554
C36   C     C_3   0.086370 0.307180 0.482994 -0.435347
C37   C     C_3   0.178245 0.296788 0.521916 -0.320109
C38   C     C_3   0.202973 0.197068 0.533699 -0.882606
H18   H     H_    0.165058 0.163945 0.606657 0.254306
H19   H     H_    0.193758 0.160718 0.444209 0.250879
H20   H     H_    0.269976 0.192114 0.559624 0.246424
H21   H     H_    0.219404 0.325991 0.449804 0.237484
H22   H     H_    0.188664 0.330730 0.612868 0.230294
H23   H     H_    0.050858 0.260198 0.543026 0.213734
H24   H     H_    0.080427 0.282499 0.385867 0.190633
C39   C     C_3   0.609314 0.102938 0.667896 -0.405675
C40   C     C_3   0.564206 0.133812 0.786757 -0.342077
C41   C     C_3   0.621452 0.191351 0.868317 -0.853966
H25   H     H_    0.677788 0.151868 0.894599 0.249508
H26   H     H_    0.641072 0.253331 0.818520 0.265133
H27   H     H_    0.587659 0.212214 0.953967 0.238106
H28   H     H_    0.508055 0.174671 0.763294 0.223578
H29   H     H_    0.543240 0.073798 0.839743 0.210222
H30   H     H_    0.666413 0.064002 0.690951 0.194677
H31   H     H_    0.633566 0.163146 0.618646 0.203581
C42   C     C_3   0.394782 0.100960 0.323688 -0.401207
C43   C     C_3   0.450993 0.132451 0.216709 -0.336595
C44   C     C_3   0.399533 0.176154 0.114483 -0.872845
H32   H     H_    0.353853 0.126844 0.076004 0.253400
H33   H     H_    0.365499 0.236496 0.151309 0.261165
H34   H     H_    0.441542 0.197926 0.038470 0.236417
H35   H     H_    0.497504 0.182550 0.250583 0.224083
H36   H     H_    0.485909 0.073744 0.176818 0.209545
H37   H     H_    0.342749 0.061534 0.283723 0.200494
H38   H     H_    0.364382 0.160637 0.368763 0.199259
C45   C     C_3   0.602084 0.899127 0.678103 -0.405728
C46   C     C_3   0.685442 0.869138 0.619892 -0.338384
C47   C     C_3   0.736056 0.811684 0.709445 -0.834207
H39   H     H_    0.749875 0.851100 0.795074 0.247302
H40   H     H_    0.700854 0.749525 0.734002 0.264139
H41   H     H_    0.796073 0.791168 0.665194 0.236459
H42   H     H_    0.673770 0.828463 0.534546 0.223855
H43   H     H_    0.722695 0.929554 0.593970 0.209061
H44   H     H_    0.613229 0.938428 0.764421 0.191777
H45   H     H_    0.567368 0.838536 0.710011 0.198580
C48   C     C_3   0.373400 0.897515 0.356740 -0.395487
C49   C     C_3   0.401084 0.873995 0.224281 -0.348673
C50   C     C_3   0.336577 0.814161 0.159496 -0.814695
H46   H     H_    0.331187 0.748037 0.207174 0.259944
H47   H     H_    0.274549 0.848286 0.159053 0.244142
H48   H     H_    0.356069 0.801342 0.062244 0.258896
H49   H     H_    0.409361 0.936672 0.169909 0.219345
H50   H     H_    0.461835 0.837354 0.226603 0.228364
H51   H     H_    0.358541 0.833639 0.405603 0.204792
H52   H     H_    0.312579 0.933782 0.357984 0.178222

loop_
_geom_bond_atom_site_label_1
_geom_bond_atom_site_label_2
_ccdc_geom_bond_type
C6    C32   S    
C42   C43   S    
C18   C26   S    
C33   H17   S    
C45   C46   S    
C39   C40   S    
C2    O4    A    
Cu1   N2    S    
C19   C21   A    
C50   H47   S    
C37   H22   S    
C46   H42   S    
C22   H4    S    
C49   C50   S    
C23   C26   A    
C49   H50   S    
C38   H19   S    
C9    C13   A    
N4    H9    S    
C11   C15   S    
C40   H28   S    
C1    O1    A    
C2    O2    A    
C37   C38   S    
C35   H13   S    
C42   H37   S    
C48   C49   S    
Cu2   O4    S    
C44   H33   S    
C45   H44   S    
C39   H30   S    
C35   H11   S    
C21   C22   A    
C10   C48   S    
Cu2   N1    S    
C13   C39   S    
C34   H15   S    
N4    H10   S    
Cu2   O8    S    
C35   H12   S    
N3    H7    S    
Cu1   O1    S    
C24   C25   A    
C20   N4    S    
C50   H48   S    
C17   O7    A    
C41   H26   S    
C40   C41   S    
C27   H1    S    
C37   H21   S    
C36   C37   S    
N3    H8    S    
C49   H49   S    
C38   H20   S    
C29   C30   A    
C40   H29   S    
C5    C8    T    
C47   H39   S    
C20   C23   A    
C23   C24   A    
C42   H38   S    
Cu1   Cu2   S    
Cu2   O3    S    
C44   H34   S    
C3    C31   A    
C9    C11   A    
C48   H51   S    
C4    C32   A    
C10   C12   A    
C45   H45   S    
C3    C33   S    
C47   H40   S    
C12   C14   A    
C39   H31   S    
Cu1   O5    S    
C14   C16   S    
C36   H23   S    
C20   C22   A    
C3    C4    A    
C18   O8    A    
C34   H14   S    
Cu1   O6    S    
C43   H35   S    
Cu2   O7    S    
C9    C45   S    
C12   C42   S    
C1    C7    S    
Cu1   O2    S    
C2    C8    S    
C17   O5    A    
C15   N2    T    
C33   H16   S    
C4    C36   S    
C18   O6    A    
C41   H27   S    
C6    C7    T    
C25   C27   A    
C26   C28   A    
C17   C25   S    
C19   C24   A    
C34   C35   S    
C29   C31   A    
C50   H46   S    
C30   C32   A    
C1    O3    A    
C33   C34   S    
C46   H43   S    
C29   H6    S    
C30   H5    S    
C38   H18   S    
C48   H52   S    
C10   C11   A    
C41   H25   S    
C19   N3    S    
C47   H41   S    
C21   H3    S    
C43   C44   S    
C28   H2    S    
C46   C47   S    
C27   C28   A    
C43   H36   S    
C36   H24   S    
C44   H32   S    
C13   C14   A    
C16   N1    T    
C5    C31   S    
