data_mof_unit_25579.cif
_audit_creation_date              2012-12-11T15:35:25-0500
_audit_creation_method            fapswitch 2.2
_symmetry_space_group_name_H-M    P1
_symmetry_Int_Tables_number       1
_space_group_crystal_system       triclinic
_cell_length_a                    17.25656
_cell_length_b                    24.503512
_cell_length_c                    14.810673
_cell_angle_alpha                 90.951814
_cell_angle_beta                  124.728355
_cell_angle_gamma                 89.319161
_cell_volume                      5146.29355173

loop_
_atom_site_label
_atom_site_type_symbol
_atom_type_description
_atom_site_fract_x
_atom_site_fract_y
_atom_site_fract_z
_atom_type_partial_charge
C1    C     C_R   0.309937 0.126364 0.914727 0.486820
C2    C     C_R   0.317143 0.866313 0.907267 0.541594
C3    C     C_R   0.809963 0.626392 0.914723 0.487295
C4    C     C_R   0.817404 0.366091 0.907193 0.538882
C5    C     C_R   0.646030 0.151088 0.094308 -0.099483
C6    C     C_R   0.651588 0.850302 0.091359 -0.036010
C7    C     C_R   0.146023 0.651089 0.094319 -0.101055
C8    C     C_R   0.151580 0.350302 0.091370 -0.033820
C9    C     C_R   0.562492 0.848449 0.909442 0.422278
C10   C     C_R   0.554488 0.153327 0.912992 0.387538
C11   C     C_R   0.062462 0.348433 0.909460 0.419498
C12   C     C_R   0.054554 0.653321 0.912992 0.388866
C13   C     C_R   0.552422 0.999865 0.726468 0.012693
C14   C     C_R   0.052463 0.499845 0.726525 0.012675
C15   C     C_R   0.824052 0.000288 0.263395 0.121400
C16   C     C_R   0.324042 0.500273 0.263344 0.121955
C17   C     C_R   0.612698 0.183773 0.005825 0.089849
C18   C     C_R   0.630222 0.819576 0.001198 0.101262
C19   C     C_R   0.112749 0.683767 0.005836 0.091096
C20   C     C_R   0.130199 0.319564 0.001222 0.101454
C21   C     C_3   0.076555 0.942216 0.456873 0.767570
C22   C     C_3   0.034212 0.009601 0.560773 0.817552
C23   C     C_3   0.576412 0.442100 0.457254 0.767263
C24   C     C_3   0.534122 0.509840 0.560715 0.817657
C25   C     C_3   0.977545 0.948717 0.348154 -0.517812
C26   C     C_3   0.933149 0.001609 0.460643 -0.523919
C27   C     C_3   0.477453 0.448557 0.348473 -0.517438
C28   C     C_3   0.433071 0.501819 0.460593 -0.523946
C29   C     C_3   0.090818 0.043813 0.445216 -0.521681
C30   C     C_3   0.590906 0.543631 0.445076 -0.521794
C31   C     C_3   0.103830 0.997791 0.525592 -0.251314
C32   C     C_3   0.603761 0.497779 0.525662 -0.251576
C33   C     C_3   0.927638 0.001505 0.352026 -0.109195
C34   C     C_3   0.427621 0.501468 0.352007 -0.109555
C35   C     C_R   0.406164 0.868221 0.091049 0.505873
C36   C     C_R   0.407361 0.126959 0.097881 0.465741
C37   C     C_R   0.906295 0.368071 0.091019 0.507536
C38   C     C_R   0.907383 0.626976 0.097885 0.466010
C39   C     C_3   0.984545 0.051491 0.350652 0.806751
C40   C     C_3   0.484661 0.551308 0.350389 0.807059
C41   C     C_R   0.293596 0.754398 0.002581 0.513141
C42   C     C_R   0.150147 0.171630 0.941816 0.492544
C43   C     C_R   0.793054 0.254119 0.001151 0.513575
C44   C     C_R   0.650212 0.671658 0.941747 0.492465
C45   C     C_R   0.738593 0.214861 0.002466 -0.287472
C46   C     C_R   0.609460 0.722497 0.935827 -0.197532
C47   C     C_R   0.239305 0.715054 0.004003 -0.283042
C48   C     C_R   0.109379 0.222464 0.935947 -0.196149
C49   C     C_R   0.663632 0.229061 0.008599 -0.141278
C50   C     C_R   0.667016 0.764862 0.008796 -0.117413
C51   C     C_R   0.163559 0.729154 0.008687 -0.144117
C52   C     C_R   0.166970 0.264840 0.008847 -0.118421
C53   C     C_R   0.639353 0.283255 0.014561 0.336380
C54   C     C_R   0.758567 0.751733 0.099792 0.323718
C55   C     C_R   0.138444 0.783333 0.013341 0.337287
C56   C     C_R   0.258547 0.251715 0.099803 0.323643
C57   C     C_R   0.188563 0.824883 0.002704 0.393431
C58   C     C_R   0.280582 0.197111 0.120028 0.411994
C59   C     C_R   0.689417 0.324751 0.003724 0.392552
C60   C     C_R   0.780602 0.697129 0.120012 0.411851
C61   C     C_R   0.266644 0.809128 0.999691 -0.218353
C62   C     C_R   0.245260 0.163963 0.027341 -0.173659
C63   C     C_R   0.766858 0.308895 0.999521 -0.217479
C64   C     C_R   0.745292 0.663977 0.027331 -0.173278
C65   C     C_R   0.611190 0.950460 0.629530 -0.118858
C66   C     C_R   0.610198 0.049071 0.630977 -0.145064
C67   C     C_R   0.111151 0.450431 0.629526 -0.118961
C68   C     C_R   0.110243 0.549043 0.631043 -0.143770
C69   C     C_R   0.617541 0.950273 0.540524 -0.032164
C70   C     C_R   0.616411 0.048974 0.541834 -0.046983
C71   C     C_R   0.117413 0.450248 0.540458 -0.032446
C72   C     C_R   0.116371 0.548950 0.541840 -0.047220
C73   C     C_R   0.613535 0.999525 0.490625 0.149320
C74   C     C_R   0.113418 0.499505 0.490580 0.149365
C75   C     C_R   0.568041 0.044148 0.311920 0.482020
C76   C     C_R   0.565072 0.954814 0.309084 0.476767
C77   C     C_R   0.067978 0.544144 0.311906 0.482213
C78   C     C_R   0.064972 0.454800 0.309053 0.475575
C79   C     C_R   0.597865 0.999798 0.667880 0.115101
C80   C     C_R   0.097900 0.499771 0.667938 0.114838
C81   C     C_R   0.249637 0.954225 0.692201 0.105682
C82   C     C_R   0.247760 0.044377 0.692370 0.054039
C83   C     C_R   0.749547 0.454211 0.692278 0.104702
C84   C     C_R   0.747699 0.544374 0.692401 0.053880
C85   C     C_R   0.315470 0.138412 0.011927 -0.163950
C86   C     C_R   0.324020 0.849518 0.999029 -0.103467
C87   C     C_R   0.815505 0.638439 0.011927 -0.163853
C88   C     C_R   0.824278 0.349250 0.998921 -0.103296
C89   C     C_R   0.584231 0.999430 0.375608 -0.226612
C90   C     C_R   0.084067 0.499421 0.375549 -0.226382
C91   C     C_R   0.201931 0.998645 0.628260 0.027836
C92   C     C_R   0.701821 0.498633 0.628361 0.028174
C93   C     C_R   0.520270 0.045297 0.752446 -0.078783
C94   C     C_R   0.521155 0.954612 0.752097 -0.050640
C95   C     C_R   0.020304 0.545284 0.752480 -0.078646
C96   C     C_R   0.021169 0.454598 0.752130 -0.050548
C97   C     C_R   0.767910 0.954383 0.242370 -0.048605
C98   C     C_R   0.766079 0.045578 0.237747 -0.025626
C99   C     C_R   0.267882 0.454377 0.242299 -0.048432
C100  C     C_R   0.266083 0.545574 0.237751 -0.026347
H1    H     H_    0.936134 0.911578 0.332936 0.245803
H2    H     H_    0.905467 0.962009 0.466753 0.243224
H3    H     H_    0.436011 0.411468 0.333478 0.245887
H4    H     H_    0.405312 0.462293 0.466894 0.243274
H5    H     H_    0.982642 0.950188 0.276836 0.245439
H6    H     H_    0.886169 0.033465 0.459800 0.257848
H7    H     H_    0.482588 0.449833 0.277168 0.245431
H8    H     H_    0.386129 0.533766 0.459560 0.257816
H9    H     H_    0.132310 0.033586 0.411163 0.249101
H10   H     H_    0.120850 0.083187 0.488813 0.251159
H11   H     H_    0.632438 0.533231 0.411149 0.249056
H12   H     H_    0.621003 0.583036 0.488499 0.251143
H13   H     H_    0.754567 0.172182 0.999208 0.199161
H14   H     H_    0.534692 0.728059 0.877092 0.239924
H15   H     H_    0.256013 0.672393 0.002022 0.200970
H16   H     H_    0.034575 0.228014 0.877351 0.241143
H17   H     H_    0.606532 0.911557 0.659419 0.159397
H18   H     H_    0.604847 0.088101 0.662091 0.151282
H19   H     H_    0.106477 0.411527 0.659401 0.159342
H20   H     H_    0.104948 0.588072 0.662202 0.152077
H21   H     H_    0.614584 0.911008 0.505143 0.211329
H22   H     H_    0.612342 0.088048 0.507021 0.209327
H23   H     H_    0.114367 0.410985 0.505016 0.211243
H24   H     H_    0.112291 0.588028 0.507032 0.209352
H25   H     H_    0.247546 0.914067 0.660887 0.213986
H26   H     H_    0.238628 0.085384 0.662933 0.186403
H27   H     H_    0.747368 0.414041 0.660980 0.214218
H28   H     H_    0.738523 0.585376 0.662923 0.186521
H29   H     H_    0.531827 0.087382 0.744375 0.159231
H30   H     H_    0.534326 0.912778 0.743015 0.162014
H31   H     H_    0.031879 0.587363 0.744406 0.159591
H32   H     H_    0.034318 0.412754 0.743055 0.161847
H33   H     H_    0.789170 0.912298 0.258398 0.173682
H34   H     H_    0.783432 0.087634 0.242900 0.179287
H35   H     H_    0.289081 0.412284 0.258228 0.173487
H36   H     H_    0.283474 0.587636 0.243097 0.179367
H37   H     H_    0.688526 0.163792 0.179730 0.205262
H38   H     H_    0.686718 0.836019 0.174560 0.197971
H39   H     H_    0.188479 0.663797 0.179739 0.205126
H40   H     H_    0.186686 0.336020 0.174568 0.197847
N1    N     N_R   0.392140 0.102630 0.941800 -0.124183
N2    N     N_R   0.392140 0.897370 0.941800 -0.137334
N3    N     N_R   0.892140 0.602630 0.941800 -0.124170
N4    N     N_R   0.892140 0.397370 0.941800 -0.137756
N5    N     N_R   0.450890 0.896450 0.057150 -0.128915
N6    N     N_R   0.450890 0.103550 0.057150 -0.118300
N7    N     N_R   0.950890 0.396450 0.057150 -0.128620
N8    N     N_R   0.950890 0.603550 0.057150 -0.118256
N9    N     N_R   0.525160 0.027960 0.206160 -0.122618
N10   N     N_R   0.525160 0.972040 0.206160 -0.122304
N11   N     N_R   0.025160 0.527960 0.206160 -0.122638
N12   N     N_R   0.025160 0.472040 0.206160 -0.122411
N13   N     N_R   0.317870 0.971120 0.792790 -0.076942
N14   N     N_R   0.317870 0.028880 0.792790 -0.071175
N15   N     N_R   0.817870 0.471120 0.792790 -0.076924
N16   N     N_R   0.817870 0.528880 0.792790 -0.071218
N17   N     N_R   0.473480 0.027920 0.793480 -0.056719
N18   N     N_R   0.473480 0.972080 0.793480 -0.059313
N19   N     N_R   0.973480 0.527920 0.793480 -0.056779
N20   N     N_R   0.973480 0.472080 0.793480 -0.059255
N21   N     N_R   0.681610 0.971120 0.207570 -0.050531
N22   N     N_R   0.681610 0.028880 0.207570 -0.051752
N23   N     N_R   0.181610 0.471120 0.207570 -0.050434
N24   N     N_R   0.181610 0.528880 0.207570 -0.051601
N25   N     N_R   0.605410 0.102620 0.056870 -0.092258
N26   N     N_R   0.605410 0.897380 0.056870 -0.093267
N27   N     N_R   0.105410 0.602620 0.056870 -0.092073
N28   N     N_R   0.105410 0.397380 0.056870 -0.093372
N29   N     N_R   0.549680 0.896430 0.944180 -0.111007
N30   N     N_R   0.549680 0.103570 0.944180 -0.105725
N31   N     N_R   0.049680 0.396430 0.944180 -0.111018
N32   N     N_R   0.049680 0.603570 0.944180 -0.105748
Ni1   Ni    Ni4+2 0.433410 0.064680 0.868830 0.290049
Ni2   Ni    Ni4+2 0.433410 0.935320 0.868830 0.306386
Ni3   Ni    Ni4+2 0.933410 0.564680 0.868830 0.290208
Ni4   Ni    Ni4+2 0.933410 0.435320 0.868830 0.306610
Ni5   Ni    Ni4+2 0.565650 0.934380 0.131170 0.312432
Ni6   Ni    Ni4+2 0.565650 0.065620 0.131170 0.315650
Ni7   Ni    Ni4+2 0.065650 0.434380 0.131170 0.312646
Ni8   Ni    Ni4+2 0.065650 0.565620 0.131170 0.315614
Cl1   Cl    Cl    0.229252 0.157591 0.788693 -0.492886
Cl2   Cl    Cl    0.237640 0.839827 0.774876 -0.470453
Cl3   Cl    Cl    0.729384 0.657682 0.788726 -0.492651
Cl4   Cl    Cl    0.738668 0.339286 0.774919 -0.465958
Cl5   Cl    Cl    0.070874 0.883381 0.524086 -0.410415
Cl6   Cl    Cl    0.053639 0.967764 0.670871 -0.395970
Cl7   Cl    Cl    0.570585 0.383455 0.524807 -0.410575
Cl8   Cl    Cl    0.553445 0.468240 0.671047 -0.396418
Cl9   Cl    Cl    0.970517 0.055047 0.221050 -0.503891
Cl10  Cl    Cl    0.949563 0.117801 0.369903 -0.482686
Cl11  Cl    Cl    0.470742 0.554544 0.220814 -0.503099
Cl12  Cl    Cl    0.449757 0.617750 0.369138 -0.483105
S1    S     S_3+6 0.393222 0.732726 0.002993 0.034395
O1    O     O_2   0.480866 0.761918 0.091595 -0.204742
O2    O     O_2   0.409560 0.672412 0.023207 -0.194799
O3    O     O_3   0.375214 0.745877 0.881460 -0.493166
H41   H     H_    0.324235 0.720670 0.828527 0.376798
S2    S     S_3+6 0.076812 0.115300 0.870323 0.124218
O4    O     O_2   0.130824 0.070139 0.859651 -0.161814
O5    O     O_2   0.040170 0.094421 0.934156 -0.197969
O6    O     O_3   0.985091 0.134626 0.745308 -0.388680
H42   H     H_    0.936914 0.148529 0.756403 0.366577
S3    S     S_3+6 0.891197 0.232101 0.998852 0.036462
O7    O     O_2   0.978349 0.264008 0.079906 -0.219196
O8    O     O_2   0.911712 0.172688 0.027444 -0.189157
O9    O     O_3   0.866977 0.240497 0.872867 -0.481361
H43   H     H_    0.814364 0.215086 0.824783 0.372084
S4    S     S_3+6 0.576874 0.615343 0.870129 0.123653
O10   O     O_2   0.630881 0.570221 0.859348 -0.161688
O11   O     O_2   0.540244 0.594390 0.933922 -0.197469
O12   O     O_3   0.485147 0.634717 0.745159 -0.389229
H44   H     H_    0.436986 0.648604 0.756296 0.364489
S5    S     S_3+6 0.548978 0.297348 0.036393 0.104512
O13   O     O_2   0.531918 0.249529 0.085121 -0.248498
O14   O     O_2   0.576053 0.345101 0.113672 -0.121682
O15   O     O_3   0.447849 0.312160 0.915610 -0.420809
H45   H     H_    0.427144 0.277161 0.874127 0.384142
S6    S     S_3+6 0.850418 0.799780 0.179414 0.039899
O16   O     O_2   0.859877 0.811639 0.285109 -0.227262
O17   O     O_2   0.941864 0.776110 0.206207 -0.130413
O18   O     O_3   0.828510 0.858022 0.109813 -0.556631
H46   H     H_    0.891233 0.873852 0.138976 0.398541
S7    S     S_3+6 0.047124 0.797361 0.033606 0.104501
O19   O     O_2   0.029486 0.749547 0.081814 -0.249195
O20   O     O_2   0.073464 0.845152 0.110622 -0.122716
O21   O     O_3   0.946556 0.812112 0.912192 -0.420345
H47   H     H_    0.926151 0.777099 0.870760 0.385041
S8    S     S_3+6 0.350389 0.299758 0.179471 0.039679
O22   O     O_2   0.359788 0.311612 0.285134 -0.227355
O23   O     O_2   0.441852 0.276085 0.206332 -0.130192
O24   O     O_3   0.328521 0.358001 0.109890 -0.556789
H48   H     H_    0.391255 0.373806 0.139021 0.398688
S9    S     S_3+6 0.157126 0.895568 0.996497 0.101922
O25   O     O_2   0.191197 0.929773 0.942500 -0.250433
O26   O     O_2   0.052012 0.902310 0.932925 -0.129625
O27   O     O_3   0.206839 0.918965 0.125613 -0.452243
H49   H     H_    0.186751 0.957641 0.117541 0.401830
S10   S     S_3+6 0.279504 0.169713 0.228931 0.089163
O28   O     O_2   0.357563 0.194490 0.336307 -0.148263
O29   O     O_2   0.186469 0.182671 0.211335 -0.192793
O30   O     O_3   0.293757 0.101578 0.231883 -0.493234
H50   H     H_    0.294463 0.089501 0.295840 0.386060
S11   S     S_3+6 0.658507 0.395482 0.998294 0.100997
O31   O     O_2   0.691876 0.429635 0.943484 -0.251238
O32   O     O_2   0.553503 0.402411 0.935901 -0.129571
O33   O     O_3   0.709441 0.418753 0.127703 -0.453095
H51   H     H_    0.689645 0.457472 0.120036 0.401515
S12   S     S_3+6 0.779583 0.669726 0.228951 0.089126
O34   O     O_2   0.857627 0.694530 0.336303 -0.148176
O35   O     O_2   0.686545 0.682645 0.211372 -0.192549
O36   O     O_3   0.793913 0.601596 0.231944 -0.493556
H52   H     H_    0.794588 0.589512 0.295878 0.385964
Cl13  Cl    Cl    0.446131 0.849734 0.224968 -0.478153
Cl14  Cl    Cl    0.468873 0.153160 0.232268 -0.458476
Cl15  Cl    Cl    0.947002 0.348887 0.224800 -0.477498
Cl16  Cl    Cl    0.968931 0.653208 0.232251 -0.458714
Cl17  Cl    Cl    0.656585 0.094915 0.366964 -0.539734
Cl18  Cl    Cl    0.645741 0.899695 0.356418 -0.545776
Cl19  Cl    Cl    0.156572 0.594883 0.367026 -0.540396
Cl20  Cl    Cl    0.145818 0.399771 0.356513 -0.545818
Cl21  Cl    Cl    0.481439 0.821591 0.776742 -0.554150
Cl22  Cl    Cl    0.472294 0.180634 0.782737 -0.583945
Cl23  Cl    Cl    0.981314 0.321540 0.776825 -0.551104
Cl24  Cl    Cl    0.972486 0.680608 0.782677 -0.584532
Cl25  Cl    Cl    0.160392 0.924845 0.425437 -0.502289
Cl26  Cl    Cl    0.045094 0.077882 0.612163 -0.396643
Cl27  Cl    Cl    0.660239 0.424456 0.425938 -0.501463
Cl28  Cl    Cl    0.545066 0.578232 0.611670 -0.396884

loop_
_geom_bond_atom_site_label_1
_geom_bond_atom_site_label_2
_ccdc_geom_bond_type
N15   Ni4   S    
C68   C80   A    
C38   C87   A    
C38   Cl16  S    
S3    O7    D    
C13   C79   S    
N16   Ni3   S    
C58   C62   A    
N17   N18   A    
C65   C79   A    
C100  H36   S    
C63   C88   S    
O6    H42   S    
C14   C95   A    
C37   C88   A    
C9    N29   A    
N23   N24   A    
C97   H33   S    
C77   N11   A    
C6    N26   A    
N21   N22   A    
C53   C59   A    
S7    O21   S    
C78   N12   A    
O36   H52   S    
N2    Ni2   S    
C54   C60   A    
S5    O13   D    
C44   C64   A    
C47   H15   S    
C83   C92   A    
S3    O8    D    
S10   O30   S    
C50   C54   A    
C71   H23   S    
C95   N19   A    
C35   Cl13  S    
C29   H9    S    
C28   H8    S    
C48   C52   A    
C84   C92   A    
C35   N5    A    
C39   Cl9   S    
C35   C86   A    
C78   C90   A    
C83   N15   A    
C10   C17   A    
S11   O31   D    
C44   S4    S    
C81   N13   A    
O27   H49   S    
N6    Ni6   S    
C59   S11   S    
O30   H50   S    
C2    Cl2   S    
C27   H3    S    
C57   C61   A    
C65   H17   S    
C28   H4    S    
C82   H26   S    
C41   S1    S    
C8    N28   A    
C16   C34   S    
O33   H51   S    
C7    N27   A    
C33   C39   S    
N28   N31   A    
S12   O36   S    
S7    O19   D    
C44   C46   A    
S4    O10   D    
C37   Cl15  S    
C9    Cl21  S    
C53   S5    S    
N11   N12   A    
C69   C73   A    
S2    O4    D    
C11   Cl23  S    
C30   C32   S    
S9    O25   D    
C42   C62   A    
C64   C87   S    
C99   H35   S    
N24   Ni8   S    
N32   Ni3   S    
C68   C72   A    
C76   C89   A    
C48   H16   S    
S11   O33   S    
N27   Ni8   S    
C28   C34   S    
N8    Ni8   S    
N19   Ni3   S    
C24   Cl28  S    
C95   H31   S    
N25   Ni6   S    
N20   Ni4   S    
N2    N5    A    
C26   H6    S    
C19   C51   S    
C84   H28   S    
C15   C97   A    
N4    N7    A    
C93   H29   S    
C14   C96   A    
S8    O22   D    
C98   N22   A    
S12   O35   D    
C46   C50   A    
C54   S6    S    
C23   C27   S    
S5    O14   D    
C27   C34   S    
C1    C85   A    
N3    N8    A    
C6    C18   A    
S3    O9    S    
S10   O29   D    
C77   C90   A    
N22   Ni6   S    
C22   C31   S    
C56   S8    S    
C25   H5    S    
C75   Cl17  S    
C29   H10   S    
C42   S2    S    
C3    N3    A    
O15   H45   S    
C12   N32   A    
C61   C86   S    
C17   C49   S    
C39   Cl10  S    
C46   H14   S    
O9    H43   S    
C16   C100  A    
C47   C51   A    
C51   C55   A    
S11   O32   D    
C68   H20   S    
C3    C87   A    
C11   C20   A    
C36   Cl14  S    
C41   C61   A    
C10   Cl22  S    
C13   C93   A    
C82   N14   A    
C22   Cl6   S    
C42   C48   A    
C24   C32   S    
O12   H44   S    
C77   Cl19  S    
O18   H46   S    
C66   C79   A    
C45   H13   S    
C21   C31   S    
C22   Cl26  S    
C26   C33   S    
S6    O17   D    
N19   N20   A    
C40   Cl12  S    
C96   H32   S    
C69   H21   S    
N29   Ni2   S    
S1    O3    S    
N4    Ni4   S    
C70   C73   A    
S1    O2    D    
C45   C49   A    
C41   C47   A    
C30   C40   S    
C100  N24   A    
N26   Ni5   S    
C8    C20   A    
C37   N7    A    
C5    C17   A    
C93   N17   A    
S9    O26   D    
C6    H38   S    
C38   N8    A    
C22   C26   S    
N1    N6    A    
N10   Ni5   S    
C99   N23   A    
C12   Cl24  S    
C72   C74   A    
C96   N20   A    
C3    Cl3   S    
C60   S12   S    
C7    C19   A    
C14   C80   S    
C55   C57   A    
C43   S3    S    
S8    O23   D    
C2    N2    A    
C34   C40   S    
C15   C98   A    
N21   Ni5   S    
C94   H30   S    
N17   Ni1   S    
C11   N31   A    
O24   H48   S    
S12   O34   D    
C18   C50   S    
S6    O18   S    
C55   S7    S    
S5    O15   S    
C36   N6    A    
C29   C39   S    
C21   C25   S    
S10   O28   D    
C1    Cl1   S    
N14   Ni1   S    
C81   H25   S    
C29   C31   S    
C67   C80   A    
C24   C28   S    
C31   C91   S    
C83   H27   S    
O3    H41   S    
C15   C33   S    
N18   Ni2   S    
C98   H34   S    
C4    N4    A    
C71   C74   A    
C57   S9    S    
S7    O20   D    
C16   C99   A    
C21   Cl5   S    
N27   N32   A    
C4    C88   A    
C21   Cl25  S    
C36   C85   A    
C10   N30   A    
N28   Ni7   S    
C20   C52   S    
N31   Ni4   S    
C30   H11   S    
C59   C63   A    
C23   Cl7   S    
C60   C64   A    
C13   C94   A    
C24   Cl8   S    
C23   C32   S    
C74   C90   S    
N12   Ni7   S    
C82   C91   A    
C73   C89   S    
C5    H37   S    
C43   C45   A    
S4    O11   D    
N9    N10   A    
C26   H2    S    
C7    H39   S    
C84   N16   A    
C27   H7    S    
C25   H1    S    
S6    O16   D    
C32   C92   S    
C40   Cl11  S    
C76   Cl18  S    
C75   N9    A    
S4    O12   S    
C65   C69   A    
N3    Ni3   S    
N13   Ni2   S    
C12   C19   A    
C23   Cl27  S    
N9    Ni6   S    
C56   C58   A    
C2    C86   A    
S2    O6    S    
C67   C71   A    
C5    N25   A    
S9    O27   S    
C4    Cl4   S    
C49   C53   A    
C1    N1    A    
C70   H22   S    
C8    H40   S    
N11   Ni8   S    
C81   C91   A    
N7    Ni7   S    
C9    C18   A    
C43   C63   A    
C76   N10   A    
C66   C70   A    
N26   N29   A    
C94   N18   A    
O21   H47   S    
C66   H18   S    
C75   C89   A    
C30   H12   S    
N15   N16   A    
N1    Ni1   S    
C78   Cl20  S    
C62   C85   S    
S2    O5    D    
N5    Ni5   S    
N13   N14   A    
C58   S10   S    
N23   Ni7   S    
C67   H19   S    
N25   N30   A    
S8    O24   S    
C72   H24   S    
C52   C56   A    
C97   N21   A    
C25   C33   S    
S1    O1    D    
N30   Ni1   S    
