data_mof_unit_33657.cif
_audit_creation_date              2013-03-05T16:07:30-0500
_audit_creation_method            fapswitch 2.2
_symmetry_space_group_name_H-M    P1
_symmetry_Int_Tables_number       1
_space_group_crystal_system       triclinic
_cell_length_a                    8.295726
_cell_length_b                    15.13621
_cell_length_c                    18.831006
_cell_angle_alpha                 101.081975
_cell_angle_beta                  90.794642
_cell_angle_gamma                 99.194282
_cell_volume                      2288.20098014

loop_
_atom_site_label
_atom_site_type_symbol
_atom_site_description
_atom_site_fract_x
_atom_site_fract_y
_atom_site_fract_z
_atom_type_partial_charge
P1    P     P_3+3 0.039440 0.410950 0.333260 0.477870
O1    O     O_2   0.871970 0.437290 0.322980 -0.398494
O2    O     O_3   0.121420 0.444460 0.412460 -0.408933
O3    O     O_3   0.661430 0.607560 0.372520 -0.375053
O4    O     O_2   0.784874 0.543748 0.249247 -0.309814
O5    O     O_3   0.018856 0.291868 0.305666 -0.582643
O6    O     O_3   0.708320 0.705969 0.263223 -0.417218
H1    H     H_    0.742413 0.775618 0.369633 0.132348
C1    C     C_3   0.672367 0.861470 0.300379 -0.852772
H2    H     H_    0.801893 0.889414 0.294822 0.315855
H3    H     H_    0.602880 0.855582 0.248411 0.274053
P2    P     P_3+3 0.676740 0.714970 0.563520 0.513580
P3    P     P_3+3 0.132018 0.777530 0.415768 0.488429
O7    O     O_2   0.852280 0.726960 0.542370 -0.318053
O8    O     O_3   0.083990 0.657360 0.410240 -0.344304
O9    O     O_2   0.009661 0.820624 0.466986 -0.383608
O10   O     O_3   0.699029 0.743232 0.658088 -0.508788
O11   O     O_3   0.079259 0.806228 0.332852 -0.508436
C2    C     C_3   0.214449 0.813327 0.288001 0.240419
H4    H     H_    0.331111 0.814353 0.316882 -0.065762
C3    C     C_3   0.233601 0.903006 0.258805 -0.154460
H5    H     H_    0.280628 0.961647 0.302763 0.115705
C4    C     C_3   0.307532 0.760565 0.677473 0.181635
H6    H     H_    0.386832 0.718753 0.644032 0.075997
C5    C     C_3   0.264606 0.832627 0.636103 -0.119965
H7    H     H_    0.377452 0.875199 0.622765 0.107168
H8    H     H_    0.197995 0.796536 0.584601 0.164204
Ba1   Ba    Ba6+2 0.853510 0.540900 0.466480 1.630678
C6    C     C_3   0.901449 0.240929 0.340752 0.345414
H9    H     H_    0.823602 0.283599 0.374404 0.056594
C7    C     C_3   0.992649 0.192369 0.387956 -0.910140
H10   H     H_    0.092898 0.163223 0.358199 0.276360
H11   H     H_    0.910630 0.135901 0.405338 0.217056
H12   H     H_    0.044804 0.242939 0.436313 0.274768
C8    C     C_3   0.731557 0.667933 0.685513 0.403182
H13   H     H_    0.839702 0.643138 0.660379 0.114061
H14   H     H_    0.624949 0.611979 0.675243 0.108014
C9    C     C_3   0.765894 0.697387 0.767028 -0.855119
H15   H     H_    0.873718 0.752686 0.778719 0.303549
H16   H     H_    0.790641 0.639319 0.790877 0.200626
H17   H     H_    0.658355 0.722262 0.793282 0.241999
P4    P     P_3+3 0.150270 0.589130 0.666750 0.496112
O12   O     O_2   0.317740 0.562750 0.677070 -0.399234
O13   O     O_3   0.068290 0.555610 0.587550 -0.380679
O14   O     O_3   0.528280 0.392520 0.627490 -0.328842
O15   O     O_3   0.160217 0.708412 0.691542 -0.551631
P5    P     P_3+3 0.062082 0.225860 0.588327 0.530419
O16   O     O_3   0.609300 0.386850 0.459730 -0.397444
O17   O     O_3   0.105720 0.342720 0.589770 -0.395739
O18   O     O_2   0.192601 0.180931 0.543693 -0.327308
O19   O     O_3   0.095729 0.207544 0.675813 -0.442710
Ba2   Ba    Ba6+2 0.336320 0.459170 0.533530 1.598142
P6    P     P_3+3 0.646103 0.595332 0.278700 0.570550
C10   C     C_3   0.660529 0.768557 0.320978 0.482667
H18   H     H_    0.532943 0.746413 0.334333 0.020401
H19   H     H_    0.622028 0.909235 0.343286 0.194331
O20   O     O_3   0.580410 0.613230 0.540280 -0.414590
C11   C     C_3   0.456723 0.307122 0.309713 0.366605
H20   H     H_    0.341088 0.325957 0.331969 0.130245
H21   H     H_    0.555184 0.367743 0.319742 0.101631
C12   C     C_3   0.429302 0.273483 0.228286 -0.941296
H22   H     H_    0.331566 0.212572 0.216766 0.293424
H23   H     H_    0.391976 0.327571 0.202595 0.209114
H24   H     H_    0.543819 0.255194 0.204261 0.267397
P7    P     P_3+3 0.518580 0.271953 0.434713 0.435298
O21   O     O_2   0.337420 0.273080 0.457680 -0.370135
O22   O     O_3   0.502263 0.237092 0.340489 -0.573676
H25   H     H_    0.327215 0.902688 0.217113 0.122003
C13   C     C_3   0.030595 0.273501 0.724824 0.519661
H26   H     H_    0.110388 0.341089 0.730393 0.111296
H27   H     H_    0.904877 0.278829 0.706955 -0.000577
C14   C     C_3   0.023030 0.246490 0.798586 -0.918337
H28   H     H_    0.148010 0.245577 0.819826 0.268371
H29   H     H_    0.966790 0.296241 0.837360 0.205862
H30   H     H_    0.948143 0.177760 0.794062 0.290764
P8    P     P_3+3 0.547559 0.400625 0.721370 0.461562
C15   C     C_3   0.549269 0.239426 0.754416 0.855205
H31   H     H_    0.674555 0.274922 0.771906 -0.107425
O23   O     O_2   0.441009 0.471654 0.753748 -0.401526
O24   O     O_3   0.441802 0.299390 0.742729 -0.533992
H32   H     H_    0.571916 0.147504 0.828552 0.252867
C16   C     C_3   0.484853 0.191100 0.815002 -0.887356
H33   H     H_    0.364581 0.147530 0.797828 0.290651
H34   H     H_    0.469779 0.241745 0.864501 0.200579
C17   C     C_R   0.998065 0.446176 0.043877 0.084127
C18   C     C_R   0.907066 0.397554 0.091127 -0.115635
C19   C     C_R   0.768283 0.418763 0.950754 -0.149290
C20   C     C_R   0.933833 0.451126 0.973693 0.076693
C21   C     C_R   0.709386 0.422009 0.881615 -0.197515
C22   C     C_R   0.813649 0.453931 0.830703 -0.004815
C23   C     C_R   0.976071 0.494621 0.853949 0.007085
C24   C     C_R   0.035496 0.494431 0.925927 0.035985
C25   C     C_R   0.760965 0.446698 0.757379 0.117034
C26   C     C_R   0.870296 0.480563 0.708877 -0.519739
C27   C     C_R   0.025218 0.530098 0.732317 0.253515
C28   C     C_R   0.077925 0.537779 0.806020 -0.062371
C29   C     C_R   0.159212 0.490417 0.067685 0.021127
C30   C     C_R   0.221049 0.491659 0.139946 -0.024550
C31   C     C_R   0.116461 0.451632 0.189133 -0.026652
C32   C     C_R   0.963628 0.401509 0.161983 -0.034552
H35   H     H_    0.829552 0.474201 0.653039 0.174510
H36   H     H_    0.580890 0.397983 0.868320 0.157555
H37   H     H_    0.885295 0.363528 0.194874 0.160620
C33   C     C_R   0.228628 0.588721 0.833944 -0.002977
C34   C     C_R   0.286005 0.589489 0.903623 -0.167243
C35   C     C_R   0.195694 0.538627 0.949803 0.067117
C36   C     C_R   0.258385 0.534258 0.019814 0.014744
C37   C     C_R   0.420595 0.570638 0.042434 -0.241266
C38   C     C_R   0.385090 0.534713 0.163095 -0.164494
C39   C     C_R   0.483396 0.572927 0.111546 0.407447
C40   C     C_R   0.440725 0.536733 0.235942 0.159628
C41   C     C_R   0.333807 0.495559 0.281910 -0.415240
C42   C     C_R   0.169714 0.459979 0.262959 0.277088
H38   H     H_    0.306561 0.628500 0.802422 0.166799
H39   H     H_    0.381213 0.488146 0.333635 0.182293
H40   H     H_    0.679417 0.392524 0.985966 0.133019
H41   H     H_    0.789335 0.356149 0.074939 0.118209
H42   H     H_    0.401802 0.632758 0.919817 0.138253
H43   H     H_    0.507114 0.596424 0.006210 0.156737
C43   C     C_R   0.344032 0.826588 0.456991 0.058209
H44   H     H_    0.199974 0.959335 0.421231 0.179700
C44   C     C_R   0.583542 0.797059 0.520049 0.162167
C45   C     C_R   0.763376 0.233478 0.521136 -0.455148
C46   C     C_R   0.855691 0.177241 0.548603 0.196155
C47   C     C_R   0.795896 0.084258 0.541451 -0.180588
C48   C     C_R   0.639355 0.046117 0.508285 0.090108
C49   C     C_R   0.549696 0.104060 0.477921 0.072466
C50   C     C_R   0.569913 0.952186 0.502754 0.042320
C51   C     C_R   0.410807 0.919739 0.468360 0.035293
C52   C     C_R   0.323313 0.980228 0.444113 -0.201195
C53   C     C_R   0.394394 0.068850 0.445154 -0.075046
C54   C     C_R   0.650930 0.889578 0.531226 -0.213603
C55   C     C_R   0.437629 0.767311 0.479345 -0.487845
C56   C     C_R   0.615124 0.196979 0.482741 0.261860
H45   H     H_    0.764621 0.910339 0.562687 0.201198
H46   H     H_    0.812705 0.305027 0.525274 0.165457
H47   H     H_    0.874313 0.044095 0.562391 0.166625
H48   H     H_    0.322536 0.109209 0.420642 0.170961
N1    N     N_R   0.161676 0.891959 0.677582 0.290097
O25   O     O_R   0.010022 0.886760 0.656397 -0.315883
O26   O     O_R   0.226138 0.958039 0.729895 -0.332803
C57   C     C_2   0.796351 0.169885 0.284164 1.090728
O27   O     O_2   0.809378 0.171577 0.219778 -0.612040
O28   O     O_R   0.685288 0.101068 0.305434 -0.814469
H49   H     H_    0.622022 0.057544 0.262828 0.340453
N2    N     N_R   0.556749 0.171154 0.688811 0.220133
O29   O     O_R   0.653218 0.111178 0.688111 -0.420519
O30   O     O_R   0.455621 0.163517 0.633781 -0.327683
C58   C     C_2   0.191997 0.733526 0.225728 1.033497
O31   O     O_2   0.300129 0.724487 0.182810 -0.681407
O32   O     O_R   0.045548 0.672074 0.215407 -0.657101
H50   H     H_    0.040115 0.626531 0.168232 0.356363
N3    N     N_R   0.650861 0.613239 0.124983 0.259209
O33   O     O_R   0.692538 0.698679 0.120809 -0.289282
O34   O     O_R   0.758998 0.560113 0.110440 -0.426734
C59   C     C_2   0.372541 0.673032 0.464622 1.130766
O35   O     O_2   0.378888 0.628640 0.404385 -0.681717
O36   O     O_R   0.277887 0.638580 0.515431 -0.767301
H51   H     H_    0.206983 0.580731 0.490870 0.393553
N4    N     N_R   0.080643 0.917956 0.227485 0.282687
O37   O     O_R   0.028688 0.994904 0.249346 -0.390563
O38   O     O_R   0.009727 0.861532 0.170624 -0.291946
C60   C     C_2   0.398226 0.807623 0.748123 1.010118
O39   O     O_2   0.529839 0.857158 0.747692 -0.581697
O40   O     O_R   0.328678 0.798206 0.814011 -0.774351
H52   H     H_    0.400925 0.833590 0.857341 0.336885

loop_
_geom_bond_atom_site_label_1
_geom_bond_atom_site_label_2
_geom_bond_distance
_ccdc_geom_bond_type
C19   C20   1.414167 A    
O40   H52   1.013745 S    
O3    P6    1.741353 S    
C13   C14   1.520836 S    
C55   C59   1.415039 S    
Ba1   Ba2   4.605460 S    
P5    C46   1.839245 S    
C40   C41   1.405864 A    
C49   C56   1.409446 A    
H44   C52   1.079157 S    
P7    O21   1.571400 D    
C50   C51   1.431666 A    
H32   C16   1.110905 S    
C22   C23   1.414656 A    
C45   C46   1.394684 A    
P5    O17   1.742737 S    
C15   H31   1.105171 S    
C25   C26   1.404964 A    
P4    O13   1.585865 S    
P3    O11   1.766550 S    
P2    Ba1   3.448158 S    
O14   P8    1.751708 S    
O4    P6    1.543048 D    
C59   O35   1.208682 D    
C5    N1    1.462748 S    
C43   C55   1.394228 A    
C38   C40   1.434410 A    
C17   C18   1.412800 A    
C9    H15   1.110669 S    
C21   H36   1.079325 S    
O12   Ba2   2.871875 S    
C15   O24   1.413144 S    
C35   C36   1.427737 A    
C11   H21   1.111018 S    
C13   H27   1.111306 S    
P1    O1    1.525043 D    
P4    O15   1.764031 S    
C12   H23   1.108725 S    
C33   C34   1.386886 A    
C23   C28   1.423626 A    
Ba1   O16   2.815447 S    
C20   C24   1.421630 A    
C26   H35   1.081651 S    
P7    O22   1.748043 S    
P2    O10   1.749638 S    
P1    Ba1   3.423639 S    
O32   H50   1.009916 S    
C7    H11   1.108366 S    
C53   H48   1.076434 S    
O16   P7    1.752079 S    
N3    O34   1.295774 A    
C18   C32   1.395349 A    
C1    H2    1.104228 S    
N2    O30   1.299944 A    
P7    C56   1.847183 S    
P6    C40   1.882099 S    
C11   C12   1.521639 S    
C30   C38   1.434411 A    
C3    H5    1.105982 S    
C37   H43   1.076672 S    
C13   H26   1.111828 S    
P1    C42   1.905867 S    
C14   H30   1.110583 S    
C50   C54   1.423393 A    
C44   C54   1.396846 A    
C41   C42   1.395992 A    
O3    Ba1   2.794569 S    
C29   C30   1.443214 A    
P5    O18   1.543399 D    
C4    C60   1.509991 S    
N1    O25   1.300186 A    
N2    O29   1.300996 A    
C45   C56   1.394697 A    
P4    C27   1.887444 S    
C54   H45   1.075863 S    
C8    C9    1.523275 S    
C9    H17   1.109088 S    
C14   H29   1.108254 S    
H1    C10   1.110942 S    
C23   C24   1.436513 A    
O11   C2    1.416091 S    
P5    O19   1.748271 S    
O14   Ba2   2.793866 S    
C47   H47   1.076879 S    
C11   H20   1.108936 S    
Ba1   O20   2.925369 S    
Ba1   O13   2.826205 S    
C32   H37   1.079384 S    
C43   C51   1.404179 A    
P1    O2    1.585851 S    
C8    H13   1.104901 S    
N4    O38   1.300926 A    
C12   H24   1.109788 S    
C44   C55   1.386684 A    
C6    H9    1.105915 S    
P8    C25   1.862973 S    
C31   C32   1.403557 A    
C36   C37   1.397351 A    
O17   Ba2   2.753948 S    
O5    C6    1.397612 S    
C7    H12   1.103444 S    
C26   C27   1.399216 A    
C1    H19   1.109597 S    
C1    H3    1.110098 S    
C19   H40   1.078011 S    
C33   H38   1.075402 S    
P2    O20   1.593598 S    
C24   C35   1.414038 A    
P2    O7    1.507179 D    
C16   H33   1.110767 S    
C16   H34   1.109638 S    
P3    O8    1.781162 S    
C3    H25   1.111831 S    
O36   H51   0.999379 S    
C3    N4    1.459946 S    
C57   O28   1.399370 S    
C34   H42   1.076458 S    
P4    O12   1.525428 D    
O6    P6    1.752513 S    
C21   C22   1.402957 A    
P3    C43   1.889590 S    
Ba2   O21   2.904474 S    
C8    H14   1.108953 S    
C22   C25   1.421034 A    
C51   C52   1.391933 A    
C17   C20   1.437906 A    
C28   C33   1.397090 A    
C10   H18   1.105556 S    
O2    Ba1   2.938332 S    
C48   C50   1.429616 A    
C60   O40   1.397926 S    
C7    H10   1.111478 S    
P8    O24   1.759701 S    
C14   H28   1.109203 S    
C31   C42   1.428776 A    
O2    Ba2   2.826812 S    
C5    H8    1.108769 S    
O19   C13   1.404438 S    
C34   C35   1.414684 A    
C45   H46   1.082323 S    
O28   H49   1.013796 S    
N4    O37   1.301070 A    
C2    H4    1.099997 S    
C58   O32   1.393473 S    
C52   C53   1.372681 A    
C5    H7    1.109349 S    
C6    C7    1.520872 S    
C39   N3    1.423501 S    
C38   C39   1.424427 A    
C9    H16   1.105991 S    
N1    O26   1.300956 A    
O13   Ba2   2.939168 S    
O8    Ba1   2.753441 S    
C47   C48   1.417410 A    
C15   C16   1.528088 S    
C48   C49   1.427870 A    
C6    C57   1.512002 S    
C59   O36   1.373207 S    
C2    C58   1.498769 S    
C37   C39   1.387241 A    
C18   H41   1.078086 S    
C4    C5    1.538342 S    
C12   H22   1.110771 S    
C49   C53   1.398819 A    
C60   O39   1.222821 D    
C17   C29   1.420706 A    
Ba2   O20   2.814969 S    
C4    H6    1.105080 S    
C29   C36   1.416292 A    
C11   O22   1.400071 S    
O16   Ba2   2.924469 S    
P8    O23   1.541273 D    
P2    C44   1.868718 S    
C30   C31   1.431025 A    
P3    O9    1.543663 D    
P1    O5    1.757023 S    
C4    O15   1.402828 S    
C19   C21   1.396725 A    
C57   O27   1.223538 D    
O1    Ba1   2.871263 S    
C1    C10   1.518082 S    
O10   C8    1.399718 S    
O6    C10   1.404784 S    
O7    Ba1   2.904483 S    
N3    O33   1.301982 A    
C58   O31   1.222037 D    
C15   N2    1.459387 S    
C41   H39   1.077717 S    
C27   C28   1.426844 A    
P4    Ba2   3.424265 S    
C46   C47   1.395414 A    
C2    C3    1.546110 S    
