data_mof_unit_45140.cif
_audit_creation_date              2012-12-10T20:03:09-0500
_audit_creation_method            fapswitch 2.2
_symmetry_space_group_name_H-M    P1
_symmetry_Int_Tables_number       1
_space_group_crystal_system       triclinic
_cell_length_a                    8.58303
_cell_length_b                    19.276529
_cell_length_c                    18.527595
_cell_angle_alpha                 88.125735
_cell_angle_beta                  98.117488
_cell_angle_gamma                 91.675766
_cell_volume                      3032.13303559

loop_
_atom_site_label
_atom_site_type_symbol
_atom_type_description
_atom_site_fract_x
_atom_site_fract_y
_atom_site_fract_z
_atom_type_partial_charge
C1    C     C_R   0.499181 0.365820 0.500976 0.858910
C2    C     C_R   0.499614 0.634125 0.499019 0.855324
C3    C     C_R   0.634122 0.966077 0.518042 -0.191230
C4    C     C_R   0.348561 0.033932 0.482268 -0.190411
C5    C     C_R   0.631453 0.037729 0.520621 -0.186479
C6    C     C_R   0.351108 0.962198 0.479933 -0.187036
C7    C     C_R   0.488706 0.071732 0.502763 0.108258
C8    C     C_R   0.493923 0.928128 0.497878 0.108910
C9    C     C_R   0.559745 0.558911 0.723618 -0.052809
C10   C     C_R   0.416688 0.448627 0.271874 -0.050011
C11   C     C_R   0.558412 0.567936 0.799332 0.024281
C12   C     C_R   0.411578 0.444872 0.195102 0.030255
C13   C     C_R   0.489292 0.515385 0.840552 0.091307
C14   C     C_R   0.490398 0.497105 0.157172 0.076474
C15   C     C_R   0.431105 0.455647 0.805124 -0.321188
C16   C     C_R   0.573866 0.549000 0.198035 -0.303303
C17   C     C_R   0.440134 0.446886 0.730733 0.229543
C18   C     C_R   0.581873 0.549446 0.274304 0.234079
C19   C     C_R   0.347139 0.521427 0.952557 0.209554
C20   C     C_R   0.630698 0.493971 0.044417 0.227214
C21   C     C_R   0.350219 0.514173 0.028963 -0.239882
C22   C     C_R   0.627962 0.502358 0.968299 -0.249812
C23   C     C_R   0.201172 0.500006 0.481086 0.969132
C24   C     C_R   0.798825 0.500143 0.518901 0.976343
C25   C     C_R   0.490310 0.500140 0.075710 0.047162
C26   C     C_R   0.488365 0.516481 0.921640 0.059235
C27   C     C_2   0.036428 0.500174 0.470735 -0.396711
C28   C     C_2   0.963560 0.500169 0.529232 -0.397708
C29   C     C_R   0.415492 0.745195 0.438675 -0.190665
C30   C     C_R   0.567407 0.253834 0.563667 -0.216205
C31   C     C_R   0.414532 0.817118 0.438313 -0.180969
C32   C     C_R   0.563900 0.181895 0.564212 -0.179305
C33   C     C_R   0.496386 0.852801 0.497262 0.115188
C34   C     C_R   0.487077 0.146942 0.503674 0.114727
C35   C     C_R   0.578941 0.816304 0.556503 -0.174920
C36   C     C_R   0.413046 0.184014 0.442803 -0.177689
C37   C     C_R   0.580094 0.744544 0.556743 -0.203723
C38   C     C_R   0.417298 0.255870 0.442099 -0.193797
C39   C     C_R   0.499259 0.708996 0.497635 -0.019770
C40   C     C_R   0.494364 0.290836 0.502535 -0.015997
H1    H     H_    0.975498 0.500302 0.415073 0.177654
H2    H     H_    0.024463 0.500132 0.584888 0.176473
H3    H     H_    0.383499 0.414033 0.836998 0.150683
H4    H     H_    0.636417 0.588979 0.170254 0.151039
H5    H     H_    0.242679 0.519628 0.052408 0.151351
H6    H     H_    0.735104 0.496096 0.944678 0.147469
H7    H     H_    0.348851 0.717881 0.393827 0.137302
H8    H     H_    0.629775 0.280409 0.610089 0.138479
H9    H     H_    0.350430 0.844865 0.392197 0.129221
H10   H     H_    0.621289 0.153500 0.611546 0.132498
H11   H     H_    0.640598 0.843276 0.602891 0.130364
H12   H     H_    0.354854 0.157372 0.395442 0.130944
H13   H     H_    0.644471 0.716820 0.602839 0.137913
H14   H     H_    0.360115 0.284100 0.394579 0.139932
H15   H     H_    0.745471 0.940294 0.531170 0.131435
H16   H     H_    0.237514 0.059911 0.468844 0.132266
H17   H     H_    0.740748 0.066709 0.535419 0.133249
H18   H     H_    0.241711 0.933276 0.465258 0.131693
H19   H     H_    0.610518 0.599508 0.692018 0.140717
H20   H     H_    0.355978 0.409212 0.301056 0.136033
N1    N     N_R   0.500020 0.499980 0.689440 -0.108342
N2    N     N_R   0.499980 0.500020 0.310560 -0.116045
O1    O     O_R   0.500010 0.398180 0.560840 -0.637302
O2    O     O_R   0.499990 0.601820 0.439160 -0.632789
O3    O     O_R   0.499930 0.398180 0.439210 -0.625077
O4    O     O_R   0.500070 0.601820 0.560790 -0.628942
O5    O     O_R   0.271780 0.500000 0.546590 -0.624695
O6    O     O_R   0.728220 0.500000 0.453410 -0.633880
O7    O     O_R   0.271710 0.499990 0.424960 -0.626581
O8    O     O_R   0.728290 0.500010 0.575040 -0.626447
Zn1   Zn    Zn3+2 0.500050 0.500000 0.581210 0.926690
Zn2   Zn    Zn3+2 0.499950 0.500000 0.418790 0.924015
C41   C     C_3   0.397069 0.374656 0.703309 -0.387105
C42   C     C_3   0.231462 0.368977 0.659905 -0.311551
C43   C     C_3   0.177975 0.293323 0.649094 -0.915184
H21   H     H_    0.261198 0.265883 0.619870 0.279258
H22   H     H_    0.171006 0.266498 0.702562 0.259663
H23   H     H_    0.059441 0.291159 0.616126 0.252022
H24   H     H_    0.145973 0.395228 0.689010 0.208570
H25   H     H_    0.229641 0.393649 0.605488 0.263155
H26   H     H_    0.489642 0.354919 0.674735 0.213331
H27   H     H_    0.399861 0.337477 0.750708 0.172639
C44   C     C_3   0.690030 0.603718 0.313232 -0.397950
C45   C     C_3   0.627154 0.677092 0.296882 -0.359680
C46   C     C_3   0.732200 0.731036 0.340105 -0.861894
H28   H     H_    0.741000 0.719025 0.399541 0.268311
H29   H     H_    0.852057 0.731904 0.323947 0.252325
H30   H     H_    0.681472 0.783262 0.328823 0.252776
H31   H     H_    0.622163 0.690597 0.237865 0.210996
H32   H     H_    0.506000 0.679187 0.310851 0.233751
H33   H     H_    0.709972 0.593881 0.372236 0.258562
H34   H     H_    0.807762 0.600890 0.295073 0.169611
C47   C     C_3   0.192729 0.534267 0.904934 -0.940489
H35   H     H_    0.201917 0.582465 0.871222 0.238117
H36   H     H_    0.161267 0.489974 0.868480 0.246058
H37   H     H_    0.095442 0.540143 0.937793 0.234017
C48   C     C_3   0.783350 0.476037 0.090790 -0.954444
H38   H     H_    0.827086 0.519869 0.125997 0.239094
H39   H     H_    0.765879 0.429161 0.125431 0.250417
H40   H     H_    0.875374 0.464964 0.056545 0.239345
C49   C     C_3   0.631506 0.633280 0.834030 -0.435947
C50   C     C_3   0.505256 0.682752 0.850503 -0.321896
C51   C     C_3   0.579210 0.750591 0.880833 -0.889591
H41   H     H_    0.659981 0.740239 0.932160 0.262817
H42   H     H_    0.645792 0.777544 0.840457 0.259227
H43   H     H_    0.485264 0.785128 0.892712 0.248535
H44   H     H_    0.423610 0.694501 0.799725 0.221220
H45   H     H_    0.436257 0.658284 0.891278 0.230805
H46   H     H_    0.711003 0.619673 0.884845 0.207338
H47   H     H_    0.705751 0.660623 0.796897 0.192863
C52   C     C_3   0.329032 0.383170 0.156813 -0.441733
C53   C     C_3   0.150664 0.385490 0.156147 -0.343451
C54   C     C_3   0.065845 0.327233 0.111121 -0.882607
H48   H     H_    0.085733 0.333547 0.053283 0.262137
H49   H     H_    0.109003 0.275944 0.133180 0.260585
H50   H     H_    0.937464 0.328734 0.113341 0.251221
H51   H     H_    0.121965 0.380143 0.212742 0.217117
H52   H     H_    0.107834 0.436245 0.132632 0.227208
H53   H     H_    0.355103 0.380936 0.099937 0.220018
H54   H     H_    0.374436 0.334734 0.185505 0.196818

loop_
_geom_bond_atom_site_label_1
_geom_bond_atom_site_label_2
_ccdc_geom_bond_type
C38   C40   A    
C47   H35   S    
C41   C42   S    
C6    H18   S    
C52   C53   S    
C48   H38   S    
C24   O8    A    
C46   H28   S    
C44   H34   S    
C49   C50   S    
C29   H7    S    
C9    N1    A    
C30   H8    S    
C35   C37   A    
C53   H51   S    
C20   C25   A    
C49   H46   S    
C52   H53   S    
C23   O5    A    
C19   C26   A    
C23   O7    A    
C1    C40   S    
C17   N1    A    
C3    H15   S    
C2    C39   S    
C20   C48   S    
C44   C45   S    
C1    O3    A    
C31   C33   A    
C50   H45   S    
O8    Zn1   S    
C23   C27   S    
C16   H4    S    
C34   C36   A    
C19   C47   S    
C54   H50   S    
C37   H13   S    
N1    Zn1   S    
C47   H36   S    
C42   H25   S    
C4    H16   S    
C17   C41   S    
C10   N2    A    
C45   H32   S    
C31   H9    S    
C4    C7    A    
C1    O1    A    
C41   H26   S    
C53   C54   S    
C48   H39   S    
C2    O2    A    
C21   H5    S    
C46   H29   S    
C42   C43   S    
C30   C40   A    
C45   C46   S    
C51   H42   S    
C3    C8    A    
C5    C7    A    
C18   N2    A    
C6    C8    A    
C3    C5    A    
C49   H47   S    
C52   H54   S    
C9    H19   S    
C32   C34   A    
O7    Zn2   S    
C10   H20   S    
C43   H21   S    
C53   H52   S    
C9    C11   A    
C27   H1    S    
O4    Zn1   S    
C38   H14   S    
O6    Zn2   S    
C29   C39   A    
C18   C44   S    
N2    Zn2   S    
C50   H44   S    
C11   C49   S    
C16   C18   A    
C43   H22   S    
C32   H10   S    
C10   C12   A    
C4    C6    A    
C22   H6    S    
O1    Zn1   S    
C47   H37   S    
C42   H24   S    
C13   C15   A    
C35   H11   S    
C7    C34   S    
C14   C16   A    
C13   C26   S    
C45   H31   S    
C41   H27   S    
C51   H41   S    
C48   H40   S    
C54   H48   S    
C46   H30   S    
C15   C17   A    
C21   C25   A    
C19   C21   A    
C24   C28   S    
C20   C22   A    
C2    O4    A    
C36   H12   S    
O3    Zn2   S    
C44   H33   S    
C5    H17   S    
C36   C38   A    
C12   C14   A    
C15   H3    S    
C37   C39   A    
C30   C32   A    
C11   C13   A    
C28   H2    S    
C33   C35   A    
C51   H43   S    
O5    Zn1   S    
C8    C33   S    
O2    Zn2   S    
C14   C25   S    
C50   C51   S    
C43   H23   S    
C24   O6    A    
C29   C31   A    
C22   C26   A    
C27   C28   D    
C12   C52   S    
C54   H49   S    
