data_mof_unit_64964.cif
_audit_creation_date              2013-03-05T16:30:47-0500
_audit_creation_method            fapswitch 2.2
_symmetry_space_group_name_H-M    P1
_symmetry_Int_Tables_number       1
_space_group_crystal_system       triclinic
_cell_length_a                    32.135803
_cell_length_b                    32.135782
_cell_length_c                    23.560775
_cell_angle_alpha                 89.885597
_cell_angle_beta                  89.885448
_cell_angle_gamma                 89.997135
_cell_volume                      24331.3309921

loop_
_atom_site_label
_atom_site_type_symbol
_atom_site_description
_atom_site_fract_x
_atom_site_fract_y
_atom_site_fract_z
_atom_type_partial_charge
O1    O     O_R   0.965560 0.438990 0.499980 -0.607958
O2    O     O_R   0.438990 0.034440 0.499980 -0.607895
O3    O     O_R   0.034440 0.561010 0.499980 -0.607754
O4    O     O_R   0.561010 0.965560 0.499980 -0.607845
O5    O     O_R   0.034440 0.438990 0.500020 -0.607704
O6    O     O_R   0.561010 0.034440 0.500020 -0.607841
O7    O     O_R   0.965560 0.561010 0.500020 -0.607923
O8    O     O_R   0.438990 0.965560 0.500020 -0.607783
O9    O     O_R   0.465560 0.938990 0.999980 -0.607771
O10   O     O_R   0.938990 0.534440 0.999980 -0.607931
O11   O     O_R   0.534440 0.061010 0.999980 -0.607743
O12   O     O_R   0.061010 0.465560 0.999980 -0.607932
O13   O     O_R   0.534440 0.938990 0.000020 -0.607907
O14   O     O_R   0.061010 0.534440 0.000020 -0.607735
O15   O     O_R   0.465560 0.061010 0.000020 -0.607935
O16   O     O_R   0.938990 0.465560 0.000020 -0.607750
O17   O     O_R   0.060930 0.999970 0.453240 -0.595587
O18   O     O_R   0.999970 0.939070 0.453240 -0.610738
O19   O     O_R   0.939070 0.000030 0.453240 -0.610504
O20   O     O_R   0.000030 0.060930 0.453240 -0.595286
O21   O     O_R   0.939070 0.999970 0.546760 -0.595505
O22   O     O_R   0.000030 0.939070 0.546760 -0.595367
O23   O     O_R   0.060930 0.000030 0.546760 -0.610532
O24   O     O_R   0.999970 0.060930 0.546760 -0.610685
O25   O     O_R   0.560930 0.499970 0.953240 -0.595167
O26   O     O_R   0.499970 0.439070 0.953240 -0.610979
O27   O     O_R   0.439070 0.500030 0.953240 -0.610899
O28   O     O_R   0.500030 0.560930 0.953240 -0.595092
O29   O     O_R   0.439070 0.499970 0.046760 -0.595148
O30   O     O_R   0.500030 0.439070 0.046760 -0.595097
O31   O     O_R   0.560930 0.500030 0.046760 -0.610922
O32   O     O_R   0.499970 0.560930 0.046760 -0.610978
C1    C     C_R   0.000001 0.419349 0.500092 0.903388
C2    C     C_R   0.419349 0.000001 0.500092 0.903401
C3    C     C_R   0.999999 0.580650 0.499908 0.903394
C4    C     C_R   0.580650 0.999999 0.499908 0.903394
C5    C     C_R   0.500001 0.919349 0.000092 0.903399
C6    C     C_R   0.919349 0.500001 0.000092 0.903391
C7    C     C_R   0.499999 0.080650 0.999908 0.903394
C8    C     C_R   0.080651 0.499999 0.999908 0.903396
O33   O     O_R   0.965560 0.499980 0.417220 -0.606811
O34   O     O_R   0.499980 0.034440 0.417220 -0.606187
O35   O     O_R   0.034440 0.500020 0.417220 -0.606191
O36   O     O_R   0.500020 0.965560 0.417220 -0.606814
O37   O     O_R   0.034440 0.499980 0.582780 -0.606789
O38   O     O_R   0.500020 0.034440 0.582780 -0.606817
O39   O     O_R   0.965560 0.500020 0.582780 -0.606208
O40   O     O_R   0.499980 0.965560 0.582780 -0.606182
O41   O     O_R   0.465560 0.999980 0.917220 -0.606794
O42   O     O_R   0.999980 0.534440 0.917220 -0.606189
O43   O     O_R   0.534440 0.000020 0.917220 -0.606205
O44   O     O_R   0.000020 0.465560 0.917220 -0.606807
O45   O     O_R   0.534440 0.999980 0.082780 -0.606799
O46   O     O_R   0.000020 0.534440 0.082780 -0.606814
O47   O     O_R   0.465560 0.000020 0.082780 -0.606203
O48   O     O_R   0.999980 0.465560 0.082780 -0.606183
C9    C     C_R   0.000037 0.499996 0.390463 0.899788
C10   C     C_R   0.499996 0.000037 0.390463 0.899792
C11   C     C_R   0.999963 0.500004 0.609537 0.899791
C12   C     C_R   0.500004 0.999963 0.609537 0.899794
C13   C     C_R   0.500037 0.999996 0.890463 0.899792
C14   C     C_R   0.999996 0.500037 0.890463 0.899790
C15   C     C_R   0.499963 0.000004 0.109537 0.899791
C16   C     C_R   0.000004 0.499963 0.109537 0.899788
Zn1   Zn    Zn3+2 0.954010 0.500000 0.500000 1.041465
Zn2   Zn    Zn3+2 0.500000 0.045990 0.500000 1.041564
Zn3   Zn    Zn3+2 0.045990 0.500000 0.500000 1.041765
Zn4   Zn    Zn3+2 0.500000 0.954010 0.500000 1.041645
Zn5   Zn    Zn3+2 0.454010 0.000000 0.000000 1.041589
Zn6   Zn    Zn3+2 0.000000 0.545990 0.000000 1.041613
Zn7   Zn    Zn3+2 0.545990 0.000000 0.000000 1.041619
Zn8   Zn    Zn3+2 0.000000 0.454010 0.000000 1.041625
Zn9   Zn    Zn3+2 0.000000 1.000000 0.437610 1.083666
Zn10  Zn    Zn3+2 0.000000 1.000000 0.562390 1.083677
Zn11  Zn    Zn3+2 0.500000 0.500000 0.937610 1.083585
Zn12  Zn    Zn3+2 0.500000 0.500000 0.062390 1.083583
C17   C     C_R   0.080621 0.999999 0.499923 0.904197
C18   C     C_R   0.000001 0.919379 0.500077 0.904007
C19   C     C_R   0.919379 0.999999 0.500077 0.903725
C20   C     C_R   0.000004 0.080621 0.499923 0.903919
C21   C     C_R   0.580621 0.499998 0.999923 0.903998
C22   C     C_R   0.500002 0.419379 0.000077 0.903938
C23   C     C_R   0.419379 0.500001 0.000077 0.903914
C24   C     C_R   0.499999 0.580621 0.999923 0.903980
C25   C     C_1   0.000108 0.499949 0.330320 -0.152635
C26   C     C_1   0.499949 0.000107 0.330320 -0.152643
C27   C     C_1   0.999892 0.500051 0.669680 -0.152633
C28   C     C_1   0.500051 0.999892 0.669680 -0.152641
C29   C     C_1   0.500108 0.999949 0.830320 -0.152641
C30   C     C_1   0.999949 0.500108 0.830320 -0.152633
C31   C     C_1   0.499892 0.000051 0.169680 -0.152643
C32   C     C_1   0.000051 0.499892 0.169680 -0.152635
C33   C     C_1   0.000119 0.499908 0.279600 0.037174
C34   C     C_1   0.499908 0.000119 0.279600 0.037165
C35   C     C_1   0.999880 0.500091 0.720400 0.037176
C36   C     C_1   0.500092 0.999881 0.720400 0.037168
C37   C     C_1   0.500120 0.999909 0.779600 0.037168
C38   C     C_1   0.999908 0.500119 0.779600 0.037176
C39   C     C_1   0.499880 0.000091 0.220400 0.037166
C40   C     C_1   0.000092 0.499881 0.220400 0.037174
C41   C     C_R   0.038224 0.227992 0.500817 0.252198
C42   C     C_R   0.227995 0.961820 0.499204 0.252785
C43   C     C_R   0.961940 0.772008 0.503668 0.252038
C44   C     C_R   0.772004 0.038138 0.501964 0.253310
C45   C     C_R   0.962046 0.227996 0.495261 0.253328
C46   C     C_R   0.772007 0.961837 0.501925 0.252049
C47   C     C_R   0.038196 0.772005 0.500235 0.252806
C48   C     C_R   0.227992 0.038097 0.496915 0.251967
C49   C     C_R   0.538083 0.727992 0.996702 0.252136
C50   C     C_R   0.727995 0.461800 0.999909 0.252731
C51   C     C_R   0.461966 0.272008 0.004029 0.252137
C52   C     C_R   0.272005 0.538205 0.999849 0.252776
C53   C     C_R   0.461811 0.727995 0.999368 0.252771
C54   C     C_R   0.272008 0.461970 0.004079 0.252121
C55   C     C_R   0.538204 0.272005 0.999903 0.252743
C56   C     C_R   0.727992 0.538048 0.996166 0.252097
C57   C     C_R   0.000185 0.206476 0.496860 -0.284567
C58   C     C_R   0.206475 0.999940 0.496875 -0.284577
C59   C     C_R   0.000096 0.793524 0.503132 -0.284588
C60   C     C_R   0.793524 0.999985 0.503129 -0.284556
C61   C     C_R   0.499926 0.706475 0.996856 -0.284597
C62   C     C_R   0.706475 0.499893 0.996859 -0.284597
C63   C     C_R   0.500119 0.293525 0.003144 -0.284603
C64   C     C_R   0.293525 0.500123 0.003142 -0.284596
C65   C     C_R   0.961733 0.271571 0.497964 0.369946
C66   C     C_R   0.271567 0.038335 0.499638 0.370710
C67   C     C_R   0.038328 0.728429 0.497501 0.370189
C68   C     C_R   0.728432 0.961646 0.499192 0.370895
C69   C     C_R   0.038304 0.271568 0.503558 0.371053
C70   C     C_R   0.728429 0.038340 0.499236 0.369949
C71   C     C_R   0.961679 0.728432 0.500950 0.370758
C72   C     C_R   0.271571 0.961665 0.501937 0.370182
C73   C     C_R   0.461664 0.771571 0.002098 0.370193
C74   C     C_R   0.771567 0.538316 0.998880 0.370787
C75   C     C_R   0.538322 0.228429 0.997171 0.370221
C76   C     C_R   0.228433 0.461693 0.001366 0.370804
C77   C     C_R   0.538329 0.771567 0.999420 0.370835
C78   C     C_R   0.228429 0.538321 0.997116 0.370210
C79   C     C_R   0.461691 0.228433 0.001316 0.370800
C80   C     C_R   0.771571 0.461674 0.002641 0.370208
C81   C     C_R   0.999978 0.293405 0.501685 -0.201239
C82   C     C_R   0.293405 0.000014 0.501710 -0.201105
C83   C     C_R   0.999981 0.706595 0.498303 -0.201168
C84   C     C_R   0.706595 0.999995 0.498291 -0.201231
C85   C     C_R   0.500014 0.793405 0.001683 -0.201220
C86   C     C_R   0.793405 0.500019 0.001685 -0.201194
C87   C     C_R   0.499979 0.206595 0.998320 -0.201215
C88   C     C_R   0.206595 0.499979 0.998318 -0.201204
C89   C     C_1   0.000119 0.161953 0.498494 0.185823
C90   C     C_1   0.161952 0.999963 0.498502 0.185679
C91   C     C_1   0.000059 0.838048 0.501502 0.185554
C92   C     C_1   0.838047 0.999988 0.501501 0.185760
C93   C     C_1   0.499954 0.661952 0.998493 0.185450
C94   C     C_1   0.661952 0.499934 0.998494 0.185461
C95   C     C_1   0.500074 0.338048 0.001507 0.185424
C96   C     C_1   0.338048 0.500077 0.001507 0.185468
C97   C     C_1   0.999990 0.337987 0.501209 -0.000996
C98   C     C_1   0.337987 0.000009 0.501223 -0.001072
C99   C     C_1   0.999988 0.662013 0.498784 -0.001072
C100  C     C_1   0.662013 0.999996 0.498776 -0.001006
C101  C     C_1   0.500008 0.837987 0.001208 -0.001075
C102  C     C_1   0.837987 0.500012 0.001208 -0.001091
C103  C     C_1   0.499988 0.162013 0.998794 -0.001085
C104  C     C_1   0.162013 0.499988 0.998793 -0.001074
C105  C     C_1   0.999999 0.375222 0.500660 -0.153061
C106  C     C_1   0.375222 0.000004 0.500667 -0.153065
C107  C     C_1   0.999995 0.624778 0.499337 -0.153067
C108  C     C_1   0.624778 0.999997 0.499333 -0.153079
C109  C     C_1   0.500004 0.875222 0.000659 -0.153070
C110  C     C_1   0.875222 0.500005 0.000660 -0.153076
C111  C     C_1   0.499995 0.124778 0.999341 -0.153076
C112  C     C_1   0.124778 0.499995 0.999341 -0.153060
C113  C     C_1   0.000059 0.124732 0.499536 -0.064005
C114  C     C_1   0.124732 0.999982 0.499537 -0.063816
C115  C     C_1   0.000028 0.875268 0.500463 -0.064022
C116  C     C_1   0.875267 0.999993 0.500463 -0.064200
C117  C     C_1   0.499978 0.624732 0.999535 -0.064141
C118  C     C_1   0.624732 0.499968 0.999535 -0.064114
C119  C     C_1   0.500035 0.375268 0.000465 -0.064175
C120  C     C_1   0.375268 0.500037 0.000465 -0.064176
O49   O     O_3   0.076564 0.291360 0.506228 -0.664412
H1    H     H_    0.073098 0.321565 0.512346 0.355108
O50   O     O_3   0.291366 0.923357 0.502958 -0.664921
H2    H     H_    0.321570 0.926659 0.509227 0.355328
O51   O     O_3   0.923384 0.708641 0.502802 -0.664678
H3    H     H_    0.926444 0.678436 0.496298 0.355263
O52   O     O_3   0.708635 0.076658 0.499388 -0.665049
H4    H     H_    0.678430 0.073463 0.493022 0.355380
O53   O     O_3   0.923479 0.291365 0.495034 -0.665142
H5    H     H_    0.926419 0.321572 0.501604 0.355427
O54   O     O_3   0.708640 0.923328 0.499295 -0.664524
H6    H     H_    0.678436 0.926548 0.492921 0.355200
O55   O     O_3   0.076626 0.708634 0.495907 -0.664888
H7    H     H_    0.073273 0.678429 0.489698 0.355312
O56   O     O_3   0.291359 0.076641 0.498361 -0.664737
H8    H     H_    0.321563 0.073528 0.504826 0.355272
O57   O     O_3   0.576632 0.791358 0.997953 -0.664602
H9    H     H_    0.573537 0.821564 0.004419 0.355244
O58   O     O_3   0.791366 0.423380 0.004389 -0.664895
H10   H     H_    0.821572 0.426746 0.010574 0.355314
O59   O     O_3   0.423405 0.208642 0.003518 -0.664636
H11   H     H_    0.426433 0.178435 0.996998 0.355265
O60   O     O_3   0.208634 0.576610 0.995124 -0.664870
H12   H     H_    0.178427 0.573221 0.988963 0.355301
O61   O     O_3   0.423358 0.791366 0.003303 -0.664895
H13   H     H_    0.426677 0.821573 0.009534 0.355320
O62   O     O_3   0.208642 0.423409 0.003620 -0.664639
H14   H     H_    0.178436 0.426431 0.997094 0.355277
O63   O     O_3   0.576612 0.208634 0.995232 -0.664874
H15   H     H_    0.573229 0.178427 0.989067 0.355294
O64   O     O_3   0.791358 0.576607 0.996871 -0.664651
H16   H     H_    0.821564 0.573561 0.003381 0.355262
N1    N     N_R   0.077092 0.205675 0.502369 0.258693
O65   O     O_R   0.084420 0.175792 0.466516 -0.326946
O66   O     O_R   0.106014 0.216235 0.538139 -0.256467
N2    N     N_R   0.205682 0.922936 0.499094 0.260300
O67   O     O_R   0.175800 0.916543 0.462948 -0.333211
O68   O     O_R   0.216246 0.893103 0.533606 -0.251670
N3    N     N_R   0.923116 0.794324 0.506693 0.258891
O69   O     O_R   0.918086 0.824204 0.543271 -0.328474
O70   O     O_R   0.892034 0.783764 0.474465 -0.253991
N4    N     N_R   0.794318 0.077011 0.503263 0.260187
O71   O     O_R   0.824195 0.082808 0.539606 -0.335978
O72   O     O_R   0.783755 0.107407 0.469670 -0.250779
N5    N     N_R   0.923286 0.205683 0.491152 0.260155
O73   O     O_R   0.918915 0.175806 0.454438 -0.335857
O74   O     O_R   0.891631 0.216247 0.522500 -0.250203
N6    N     N_R   0.794323 0.922958 0.503185 0.258741
O75   O     O_R   0.824202 0.917033 0.539521 -0.327803
O76   O     O_R   0.783764 0.892682 0.469556 -0.255302
N7    N     N_R   0.077079 0.794318 0.499761 0.260312
O77   O     O_R   0.083762 0.824202 0.535806 -0.333107
O78   O     O_R   0.106634 0.783752 0.464809 -0.251863
N8    N     N_R   0.205675 0.076942 0.494473 0.259055
O79   O     O_R   0.175794 0.082268 0.457974 -0.328590
O80   O     O_R   0.216235 0.107760 0.527167 -0.253433
N9    N     N_R   0.576921 0.705675 0.994065 0.258738
O81   O     O_R   0.582149 0.675795 0.957537 -0.328202
O82   O     O_R   0.607829 0.716236 0.026603 -0.254771
N10   N     N_R   0.705681 0.422917 0.000540 0.260302
O83   O     O_R   0.675795 0.416157 0.964526 -0.332637
O84   O     O_R   0.716249 0.393438 0.035609 -0.252007
N11   N     N_R   0.423158 0.294324 0.007408 0.258738
O85   O     O_R   0.418307 0.324204 0.044031 -0.328468
O86   O     O_R   0.391918 0.283763 0.975466 -0.254473
N12   N     N_R   0.294318 0.577086 0.998970 0.260325
O87   O     O_R   0.324205 0.583970 0.034939 -0.332802
O88   O     O_R   0.283750 0.606446 0.963714 -0.252030
N13   N     N_R   0.422926 0.705682 0.999450 0.260314
O89   O     O_R   0.416440 0.675796 0.963341 -0.332796
O90   O     O_R   0.393182 0.716250 0.034101 -0.251861
N14   N     N_R   0.294324 0.423165 0.007511 0.258736
O91   O     O_R   0.324204 0.418341 0.044141 -0.328510
O92   O     O_R   0.283764 0.391902 0.975611 -0.254392
N15   N     N_R   0.577085 0.294319 0.999077 0.260321
O93   O     O_R   0.583942 0.324206 0.035056 -0.332531
O94   O     O_R   0.606471 0.283750 0.963862 -0.252173
N16   N     N_R   0.705676 0.576865 0.992982 0.258793
O95   O     O_R   0.675795 0.581815 0.956384 -0.328430
O96   O     O_R   0.716236 0.608018 0.025081 -0.254352

loop_
_geom_bond_atom_site_label_1
_geom_bond_atom_site_label_2
_geom_bond_distance
_ccdc_geom_bond_type
O17   Zn9   1.993083 S    
O60   H12   0.987855 S    
N15   O94   1.301331 A    
O12   C8    1.274069 A    
C17   C114  1.417566 S    
C47   N7    1.440737 S    
O28   C24   1.270015 A    
O14   Zn6   1.995412 S    
O59   H11   0.987853 S    
O36   C10   1.273634 A    
O43   C13   1.273776 A    
C57   C89   1.431224 S    
O5    Zn3   1.995449 S    
C49   C61   1.407756 A    
O16   Zn8   1.995414 S    
O34   C10   1.273773 A    
N6    O76   1.301439 A    
C12   C28   1.417029 S    
C35   C38   1.394809 S    
C51   C79   1.401931 A    
O29   Zn12  1.993087 S    
C63   C95   1.431221 S    
N1    O65   1.301410 A    
C52   N12   1.440737 S    
C86   C102  1.432693 S    
C79   C87   1.418167 A    
N13   O89   1.301389 A    
O38   C12   1.273632 A    
O43   Zn7   1.986095 S    
C23   C120  1.417570 S    
C44   C60   1.407876 A    
C43   C59   1.407753 A    
C48   C66   1.401939 A    
C77   C85   1.418175 A    
C80   O58   1.385863 S    
N2    O68   1.301334 A    
C20   C113  1.417573 S    
O29   C23   1.270016 A    
O1    C1    1.274069 A    
C67   O55   1.385867 S    
C72   O50   1.385863 S    
C5    C109  1.418098 S    
O11   C7    1.274085 A    
O11   Zn7   1.995409 S    
C44   C70   1.401943 A    
C56   C74   1.401933 A    
O57   H9    0.987858 S    
C73   O61   1.385872 S    
N11   O85   1.301386 A    
N9    O82   1.301341 A    
C46   C68   1.401950 A    
C4    C108  1.418101 S    
C53   N13   1.440743 S    
C49   C77   1.401935 A    
C47   C59   1.407750 A    
C102  C110  1.196637 T    
C58   C90   1.431222 S    
O5    C1    1.274085 A    
O45   C15   1.273633 A    
C7    C111  1.418098 S    
C26   C34   1.194996 T    
C67   C83   1.418172 A    
C25   C33   1.194996 T    
C66   O56   1.385864 S    
O24   C20   1.270971 A    
C78   C88   1.418171 A    
N11   O86   1.301334 A    
C27   C35   1.194996 T    
C22   C119  1.417569 S    
O37   Zn3   1.984635 S    
O1    Zn1   1.995414 S    
O16   C6    1.274084 A    
O48   C16   1.273774 A    
C6    C110  1.418103 S    
C45   N5    1.440771 S    
C84   C100  1.432688 S    
C70   C84   1.418275 A    
O13   C5    1.274072 A    
C42   C58   1.407748 A    
C54   C64   1.407747 A    
O2    C2    1.274071 A    
C89   C113  1.196304 T    
O12   Zn8   1.995447 S    
C43   C71   1.401937 A    
O58   H10   0.987853 S    
O26   C22   1.270975 A    
C52   C64   1.407744 A    
O41   Zn5   1.984639 S    
N9    O81   1.301392 A    
O25   C21   1.270020 A    
C62   C94   1.431221 S    
C45   C57   1.407797 A    
O53   H5    0.987859 S    
O47   C15   1.273775 A    
N8    O80   1.301333 A    
C82   C98   1.432692 S    
C74   C86   1.418165 A    
C10   C26   1.417029 S    
C44   N4    1.440836 S    
N6    O75   1.301433 A    
C95   C119  1.196298 T    
O40   C12   1.273774 A    
C93   C117  1.196300 T    
N1    O66   1.301374 A    
O39   Zn1   1.986095 S    
C59   C91   1.431221 S    
O15   Zn5   1.995448 S    
N12   O88   1.301330 A    
N13   O90   1.301341 A    
O39   C11   1.273775 A    
C91   C115  1.196299 T    
O20   C20   1.270018 A    
C65   C81   1.418204 A    
C1    C105  1.418099 S    
O54   H6    0.987862 S    
C88   C104  1.432690 S    
C9    C25   1.417029 S    
C48   C58   1.407751 A    
O19   Zn9   1.991640 S    
C55   C63   1.407745 A    
N2    O67   1.301385 A    
O22   C18   1.270022 A    
C79   O59   1.385865 S    
C97   C105  1.196639 T    
N3    O69   1.301387 A    
O4    Zn4   1.995447 S    
C70   O52   1.385959 S    
O33   Zn1   1.984639 S    
C103  C111  1.196639 T    
O13   Zn7   1.995449 S    
O48   Zn8   1.986092 S    
O49   H1    0.987858 S    
C51   C63   1.407748 A    
O21   Zn10  1.993087 S    
C66   C82   1.418166 A    
O23   C17   1.270968 A    
O62   H14   0.987855 S    
C29   C37   1.194996 T    
C28   C36   1.194996 T    
O25   Zn11  1.993083 S    
O10   C6    1.274068 A    
O30   C22   1.270018 A    
N16   O96   1.301331 A    
O50   H2    0.987858 S    
O6    C4    1.274080 A    
O44   Zn8   1.984638 S    
C52   C78   1.401952 A    
C85   C101  1.432689 S    
O30   Zn12  1.993084 S    
C78   O60   1.385866 S    
C3    C107  1.418102 S    
O64   H16   0.987853 S    
O46   Zn6   1.984638 S    
O3    C3    1.274085 A    
O18   C18   1.270971 A    
C54   N14   1.440732 S    
C36   C37   1.394809 S    
O21   C19   1.270022 A    
N10   O84   1.301332 A    
O63   H15   0.987857 S    
C55   N15   1.440736 S    
C53   C61   1.407757 A    
N7    O78   1.301336 A    
O8    C2    1.274082 A    
O40   Zn4   1.986092 S    
N4    O72   1.301436 A    
C68   C84   1.418281 A    
C33   C40   1.394809 S    
O15   C7    1.274069 A    
C76   C88   1.418161 A    
C56   C62   1.407748 A    
C75   O63   1.385867 S    
C71   O51   1.385869 S    
C81   C97   1.432686 S    
C90   C114  1.196298 T    
O33   C9    1.273632 A    
C77   O57   1.385873 S    
O8    Zn4   1.995414 S    
O18   Zn9   1.991639 S    
C75   C87   1.418170 A    
C94   C118  1.196298 T    
C18   C115  1.417569 S    
O42   C14   1.273773 A    
C41   N1    1.440774 S    
O4    C4    1.274073 A    
O36   Zn4   1.984638 S    
C73   C85   1.418182 A    
N8    O79   1.301389 A    
C16   C32   1.417029 S    
O23   Zn10  1.991636 S    
C80   C86   1.418168 A    
N15   O93   1.301389 A    
O45   Zn7   1.984635 S    
O10   Zn6   1.995452 S    
C8    C112  1.418099 S    
C56   N16   1.440735 S    
C71   C83   1.418168 A    
C32   C40   1.194996 T    
N14   O92   1.301335 A    
O9    C5    1.274084 A    
C42   N2    1.440734 S    
O61   H13   0.987858 S    
N12   O87   1.301387 A    
O37   C11   1.273633 A    
C51   N11   1.440733 S    
C74   O64   1.385864 S    
C46   C60   1.407876 A    
O9    Zn5   1.995414 S    
O7    C3    1.274069 A    
C19   C116  1.417576 S    
C60   C92   1.431223 S    
O3    Zn3   1.995409 S    
O32   C24   1.270972 A    
C42   C72   1.401944 A    
O2    Zn2   1.995452 S    
O32   Zn12  1.991636 S    
C76   O62   1.385867 S    
C65   O53   1.385903 S    
O38   Zn2   1.984638 S    
C83   C99   1.432690 S    
C49   N9    1.440743 S    
O56   H8    0.987858 S    
C72   C82   1.418165 A    
O51   H3    0.987858 S    
O7    Zn1   1.995448 S    
O31   C21   1.270974 A    
C45   C65   1.401923 A    
C21   C118  1.417570 S    
C68   O54   1.385958 S    
C41   C57   1.407792 A    
O26   Zn11  1.991639 S    
O47   Zn5   1.986095 S    
C64   C96   1.431222 S    
N16   O95   1.301388 A    
C61   C93   1.431221 S    
C101  C109  1.196639 T    
O52   H4    0.987863 S    
C87   C103  1.432689 S    
C50   C62   1.407746 A    
O17   C17   1.270026 A    
C96   C120  1.196301 T    
O41   C13   1.273632 A    
O24   Zn10  1.991636 S    
O31   Zn12  1.991636 S    
C55   C75   1.401951 A    
C34   C39   1.394809 S    
C14   C30   1.417029 S    
C50   C80   1.401950 A    
N10   O83   1.301385 A    
N5    O74   1.301372 A    
C99   C107  1.196637 T    
O20   Zn9   1.993082 S    
C46   N6    1.440842 S    
N3    O70   1.301337 A    
C100  C108  1.196638 T    
O42   Zn6   1.986096 S    
C24   C117  1.417569 S    
C13   C29   1.417029 S    
C11   C27   1.417029 S    
C104  C112  1.196640 T    
O35   C9    1.273776 A    
O27   Zn11  1.991640 S    
O14   C8    1.274087 A    
O27   C23   1.270971 A    
C92   C116  1.196308 T    
C98   C106  1.196642 T    
O6    Zn2   1.995412 S    
C69   C81   1.418218 A    
O46   C16   1.273632 A    
O22   Zn10  1.993084 S    
O35   Zn3   1.986095 S    
O55   H7    0.987859 S    
C50   N10   1.440737 S    
C15   C31   1.417029 S    
N7    O77   1.301388 A    
O34   Zn2   1.986096 S    
C48   N8    1.440736 S    
C54   C76   1.401932 A    
O44   C14   1.273634 A    
C53   C73   1.401947 A    
C47   C67   1.401948 A    
C31   C39   1.194996 T    
C2    C106  1.418104 S    
O28   Zn11  1.993082 S    
C69   O49   1.385898 S    
N4    O71   1.301424 A    
C30   C38   1.194996 T    
O19   C19   1.270968 A    
C43   N3    1.440740 S    
N14   O91   1.301388 A    
N5    O73   1.301399 A    
C41   C69   1.401960 A    
