data_mof_unit_52644.cif
_audit_creation_date              2012-12-10T17:12:05-0500
_audit_creation_method            fapswitch 2.2
_symmetry_space_group_name_H-M    P1
_symmetry_Int_Tables_number       1
_space_group_crystal_system       triclinic
_cell_length_a                    11.679026
_cell_length_b                    12.99315
_cell_length_c                    15.866532
_cell_angle_alpha                 92.678763
_cell_angle_beta                  74.172245
_cell_angle_gamma                 100.658213
_cell_volume                      2276.43776376

loop_
_atom_site_label
_atom_site_type_symbol
_atom_type_description
_atom_site_fract_x
_atom_site_fract_y
_atom_site_fract_z
_atom_type_partial_charge
C1    C     C_R   0.519696 0.700868 0.505585 0.864757
C2    C     C_R   0.480310 0.299134 0.494394 0.863834
C3    C     C_R   0.350249 0.459681 0.086472 -0.200157
C4    C     C_R   0.641636 0.476748 0.912883 -0.203198
C5    C     C_R   0.267602 0.453969 0.037295 -0.218079
C6    C     C_R   0.723915 0.480046 0.962073 -0.213699
C7    C     C_R   0.470727 0.185350 0.486485 -0.183921
C8    C     C_R   0.529275 0.814655 0.513477 -0.184260
C9    C     C_R   0.595061 0.984022 0.573039 -0.220931
C10   C     C_R   0.404938 0.015984 0.426921 -0.220931
C11   C     C_R   0.593344 0.876175 0.568167 0.445078
C12   C     C_R   0.406646 0.123830 0.431796 0.445058
C13   C     C_R   0.466972 0.862290 0.466965 -0.280007
C14   C     C_R   0.533030 0.137713 0.532996 -0.280052
C15   C     C_R   0.467680 0.969404 0.473397 0.088281
C16   C     C_R   0.532324 0.030602 0.526560 0.088286
C17   C     C_R   0.929713 0.569147 0.599434 -0.319912
C18   C     C_R   0.070291 0.430830 0.400557 -0.319360
C19   C     C_R   0.813808 0.565198 0.588112 0.161707
C20   C     C_R   0.186210 0.434817 0.411871 0.162289
C21   C     C_R   0.866111 0.474152 0.454334 0.029945
C22   C     C_R   0.133869 0.525807 0.545677 0.028593
C23   C     C_R   0.426969 0.494539 0.668104 0.832601
C24   C     C_R   0.572872 0.504151 0.331888 0.828097
C25   C     C_R   0.983960 0.475903 0.463197 0.062843
C26   C     C_R   0.016028 0.524052 0.536806 0.061526
C27   C     C_R   0.383520 0.486646 0.764029 -0.037091
C28   C     C_R   0.614910 0.500668 0.235870 -0.033594
C29   C     C_R   0.222107 0.461064 0.898270 -0.182751
C30   C     C_R   0.771833 0.492095 0.101380 -0.182678
C31   C     C_R   0.260034 0.471401 0.807396 -0.189434
C32   C     C_R   0.736096 0.498723 0.192418 -0.186531
C33   C     C_R   0.468288 0.491417 0.812369 -0.203066
C34   C     C_R   0.530125 0.495418 0.187496 -0.193228
C35   C     C_R   0.432361 0.476906 0.903597 0.081744
C36   C     C_R   0.562713 0.484297 0.096034 0.086694
C37   C     C_R   0.307067 0.464005 0.946586 0.164267
C38   C     C_R   0.686446 0.485459 0.052967 0.161642
C39   C     C_R   0.517436 0.476832 0.953203 0.069560
C40   C     C_R   0.476356 0.474354 0.046302 0.070474
Cu1   Cu    Cu3+1 0.386820 0.492450 0.493500 0.996482
Cu2   Cu    Cu3+1 0.613180 0.507550 0.506500 0.996471
H1    H     H_    0.171877 0.442426 0.070756 0.140789
H2    H     H_    0.818043 0.479414 0.928488 0.140757
H3    H     H_    0.252144 0.401555 0.362022 0.180717
H4    H     H_    0.747901 0.598510 0.637933 0.181810
H5    H     H_    0.951135 0.606456 0.657111 0.146865
H6    H     H_    0.048886 0.393536 0.342869 0.144069
H7    H     H_    0.439164 0.502373 0.222742 0.143437
H8    H     H_    0.562442 0.508627 0.777300 0.152826
H9    H     H_    0.803074 0.502403 0.228628 0.150834
H10   H     H_    0.192966 0.467579 0.771245 0.153137
H11   H     H_    0.126167 0.450348 0.930845 0.130525
H12   H     H_    0.866314 0.491869 0.068740 0.130415
H13   H     H_    0.311547 0.448921 0.156005 0.143349
H14   H     H_    0.678278 0.470860 0.843136 0.139504
H15   H     H_    0.582272 0.184389 0.574721 0.173183
H16   H     H_    0.417724 0.815611 0.425245 0.173269
H17   H     H_    0.644251 0.031987 0.613978 0.197370
H18   H     H_    0.355745 0.968019 0.385984 0.197678
H19   H     H_    0.159804 0.563957 0.601497 0.123737
H20   H     H_    0.840161 0.435983 0.398524 0.121961
N1    N     N_R   0.216750 0.481110 0.483710 -0.190240
N2    N     N_R   0.783250 0.518890 0.516290 -0.190367
O1    O     O_R   0.419950 0.645670 0.495380 -0.600000
O2    O     O_R   0.580050 0.354330 0.504620 -0.600626
O3    O     O_R   0.611110 0.658410 0.506370 -0.513767
O4    O     O_R   0.388890 0.341590 0.493630 -0.514330
O5    O     O_R   0.350820 0.490050 0.621260 -0.602663
O6    O     O_R   0.649180 0.509950 0.378740 -0.602190
O7    O     O_R   0.541970 0.502800 0.632250 -0.586909
O8    O     O_R   0.458030 0.497200 0.367750 -0.586186
S1    S     S_3+6 0.332439 0.177079 0.365330 -0.015004
O9    O     O_2   0.217597 0.206043 0.422657 -0.296972
O10   O     O_2   0.413064 0.272536 0.318082 -0.337933
O11   O     O_3   0.297910 0.088883 0.290970 -0.535433
H21   H     H_    0.256020 0.124686 0.257751 0.376670
S2    S     S_3+6 0.667503 0.822908 0.634651 -0.014256
O12   O     O_2   0.586888 0.727404 0.681851 -0.338410
O13   O     O_2   0.782388 0.794005 0.577335 -0.296611
O14   O     O_3   0.701942 0.911095 0.709046 -0.535602
H22   H     H_    0.744696 0.875607 0.741809 0.377245

loop_
_geom_bond_atom_site_label_1
_geom_bond_atom_site_label_2
_ccdc_geom_bond_type
C8    C13   A    
C5    C37   A    
C1    C8    S    
C17   H5    S    
Cu1   Cu2   S    
C23   O5    A    
C10   H18   S    
C2    C7    S    
C31   H10   S    
O14   H22   S    
C19   H4    S    
C24   O6    A    
C27   C33   A    
C30   H12   S    
C17   C26   A    
C35   C37   A    
C9    C16   A    
C2    O4    A    
C10   C15   A    
S2    O13   D    
C15   C16   A    
Cu2   O6    S    
C30   C38   A    
S1    O9    D    
C21   N2    A    
C33   C35   A    
C22   N1    A    
C3    H13   S    
C7    C14   A    
C1    O1    A    
C6    C38   A    
C23   C27   S    
C34   C36   A    
C20   H3    S    
C5    H1    S    
C28   C34   A    
C6    H2    S    
C12   S1    S    
C4    H14   S    
S1    O10   D    
C18   C25   A    
Cu1   O4    S    
C7    C12   A    
C27   C31   A    
C23   O7    A    
C28   C32   A    
O11   H21   S    
C4    C6    A    
C39   C40   A    
S2    O12   D    
Cu1   O1    S    
C13   H16   S    
C3    C5    A    
C25   C26   A    
C9    H17   S    
C35   C39   A    
C32   H9    S    
C11   S2    S    
C4    C39   A    
C36   C40   A    
C19   N2    A    
C9    C11   A    
C21   H20   S    
C10   C12   A    
Cu1   O8    S    
C3    C40   A    
C13   C15   A    
Cu2   O3    S    
S1    O11   S    
C14   C16   A    
Cu1   N1    S    
Cu2   N2    S    
C24   O8    A    
Cu1   O5    S    
C14   H15   S    
C21   C25   A    
C34   H7    S    
C24   C28   S    
C2    O2    A    
C18   H6    S    
C1    O3    A    
C20   N1    A    
C36   C38   A    
C33   H8    S    
C29   C31   A    
C22   H19   S    
C30   C32   A    
S2    O14   S    
C29   H11   S    
C8    C11   A    
Cu2   O7    S    
C17   C19   A    
C18   C20   A    
C22   C26   A    
C29   C37   A    
Cu2   O2    S    
