data_mof_unit_58171.cif
_audit_creation_date              2012-12-10T19:08:04-0500
_audit_creation_method            fapswitch 2.2
_symmetry_space_group_name_H-M    P1
_symmetry_Int_Tables_number       1
_space_group_crystal_system       triclinic
_cell_length_a                    9.06093
_cell_length_b                    10.874888
_cell_length_c                    9.586828
_cell_angle_alpha                 92.294518
_cell_angle_beta                  90.579319
_cell_angle_gamma                 92.247723
_cell_volume                      943.105242043

loop_
_atom_site_label
_atom_site_type_symbol
_atom_type_description
_atom_site_fract_x
_atom_site_fract_y
_atom_site_fract_z
_atom_type_partial_charge
C1    C     C_R   0.505559 0.262277 0.496951 0.913930
C2    C     C_R   0.413430 0.929288 0.392182 0.306079
C3    C     C_R   0.474686 0.869897 0.506683 -0.234793
C4    C     C_R   0.529628 0.943186 0.619816 0.019124
C5    C     C_3   0.667966 0.937181 0.704373 -0.483177
C6    C     C_3   0.682579 0.076118 0.697645 0.266114
C7    C     C_R   0.612982 0.558978 0.077819 0.181876
C8    C     C_R   0.393975 0.432935 0.066506 0.465631
C9    C     C_R   0.399093 0.432032 0.918710 -0.089066
C10   C     C_R   0.609718 0.560713 0.930215 0.213169
C11   C     C_3   0.641986 0.694784 0.929118 -0.511685
C12   C     C_R   0.220819 0.499841 0.499624 0.890941
C13   C     C_3   0.651611 0.694917 0.086812 0.144926
C14   C     C_R   0.492255 0.737172 0.502282 0.835616
C15   C     C_R   0.779204 0.501110 0.500461 0.881499
C16   C     C_1   0.065653 0.500834 0.499461 -0.031796
C17   C     C_1   0.934496 0.501474 0.500493 0.004685
C18   C     C_R   0.541340 0.069645 0.613478 -0.019884
C19   C     C_R   0.505816 0.127909 0.491434 -0.165217
C20   C     C_R   0.450399 0.054460 0.375480 0.228959
Cu1   Cu    Cu3+1 0.499990 0.499980 0.640670 1.010772
Cu2   Cu    Cu3+1 0.500010 0.500020 0.359330 1.105447
H1    H     H_    0.543958 0.742866 0.892038 0.206064
H2    H     H_    0.567910 0.750721 0.139325 0.175512
H3    H     H_    0.646909 0.911450 0.812694 0.207923
H4    H     H_    0.754510 0.884948 0.649137 0.211127
H5    H     H_    0.670115 0.124581 0.800998 0.152360
H6    H     H_    0.315660 0.381981 0.855486 0.207511
H7    H     H_    0.747263 0.716482 0.875082 0.234506
N1    N     N_R   0.500920 0.500930 0.147930 -0.274915
N2    N     N_R   0.500930 0.500890 0.852020 -0.228584
O1    O     O_R   0.500000 0.319640 0.618810 -0.589203
O2    O     O_R   0.500020 0.319680 0.381230 -0.513952
O3    O     O_R   0.288380 0.499980 0.618770 -0.599463
O4    O     O_R   0.288400 0.500020 0.381190 -0.487389
O5    O     O_R   0.499980 0.680320 0.618770 -0.581433
O6    O     O_R   0.500000 0.680360 0.381190 -0.581114
O7    O     O_R   0.711600 0.499980 0.618810 -0.573737
O8    O     O_R   0.711620 0.500020 0.381230 -0.543125
Br1   Br    Br    0.463587 0.107192 0.186205 -0.308356
S1    S     S_3+6 0.834761 0.735194 0.149227 0.078839
O9    O     O_2   0.941462 0.646859 0.087066 -0.201178
O10   O     O_2   0.877017 0.862884 0.105467 -0.215100
O11   O     O_3   0.843531 0.732465 0.324057 -0.489190
H8    H     H_    0.775451 0.795953 0.357422 0.314028
S2    S     S_3+6 0.264892 0.860797 0.289816 0.106419
O12   O     O_2   0.198839 0.750441 0.358975 -0.266911
O13   O     O_2   0.147959 0.954081 0.276552 -0.161844
O14   O     O_3   0.320793 0.819370 0.128827 -0.532448
H9    H     H_    0.235801 0.771580 0.085440 0.406219
S3    S     S_3+6 0.845303 0.126750 0.607193 0.031144
O15   O     O_2   0.872378 0.261809 0.639770 -0.280310
O16   O     O_2   0.976247 0.059541 0.657605 -0.222059
O17   O     O_3   0.826421 0.102712 0.433412 -0.491616
H10   H     H_    0.817030 0.012141 0.418714 0.359525
S4    S     S_3+6 0.226402 0.361777 0.128428 0.088297
O18   O     O_2   0.117529 0.460855 0.151272 -0.233787
O19   O     O_2   0.163409 0.271904 0.017979 -0.239664
O20   O     O_3   0.240139 0.284365 0.275551 -0.491806
H11   H     H_    0.138140 0.254317 0.295337 0.394560

loop_
_geom_bond_atom_site_label_1
_geom_bond_atom_site_label_2
_ccdc_geom_bond_type
C7    C10   A    
C15   O7    A    
C9    H6    S    
C6    S3    S    
S1    O10   D    
S1    O9    D    
C6    H5    S    
S4    O20   S    
S3    O17   S    
C8    N1    A    
C8    S4    S    
C19   C20   A    
C13   S1    S    
C2    C3    A    
C2    C20   A    
C4    C18   A    
O20   H11   S    
Cu1   O5    S    
Cu1   Cu2   S    
S4    O18   D    
C12   O4    A    
C14   O6    A    
Cu2   O4    S    
C11   C13   S    
S2    O14   S    
C15   O8    A    
Cu1   N2    S    
C16   C17   T    
C3    C14   S    
C5    H3    S    
Cu2   O8    S    
C11   H1    S    
S1    O11   S    
S4    O19   D    
C18   C19   A    
C14   O5    A    
C5    C6    S    
C20   Br1   S    
Cu1   O1    S    
S2    O13   D    
C6    C18   S    
C1    C19   S    
C10   C11   S    
C9    N2    A    
C1    O2    A    
C3    C4    A    
C12   C16   S    
C7    C13   S    
S3    O15   D    
O11   H8    S    
C11   H7    S    
C7    N1    A    
O14   H9    S    
C15   C17   S    
Cu2   O2    S    
O17   H10   S    
C8    C9    A    
Cu1   O3    S    
Cu2   N1    S    
S2    O12   D    
Cu2   O6    S    
C12   O3    A    
C10   N2    A    
C1    O1    A    
C2    S2    S    
Cu1   O7    S    
C5    H4    S    
C13   H2    S    
C4    C5    S    
S3    O16   D    
