data_mof_unit_63992.cif
_audit_creation_date              2012-12-10T16:50:06-0500
_audit_creation_method            fapswitch 2.2
_symmetry_space_group_name_H-M    P1
_symmetry_Int_Tables_number       1
_space_group_crystal_system       triclinic
_cell_length_a                    26.245458
_cell_length_b                    26.244712
_cell_length_c                    22.294595
_cell_angle_alpha                 90.003583
_cell_angle_beta                  53.934809
_cell_angle_gamma                 90.001244
_cell_volume                      12413.4859043

loop_
_atom_site_label
_atom_site_type_symbol
_atom_type_description
_atom_site_fract_x
_atom_site_fract_y
_atom_site_fract_z
_atom_type_partial_charge
C1    C     C_R   0.650511 0.750064 0.699040 0.819086
C2    C     C_3   0.033057 0.261000 0.043326 -0.416940
C3    C     C_2   0.556397 0.748026 0.499465 -0.296493
C4    C     C_2   0.992727 0.719830 0.458492 -0.162536
C5    C     C_2   0.993527 0.279098 0.456897 -0.163849
C6    C     C_2   0.492731 0.219835 0.458485 -0.162514
C7    C     C_2   0.493527 0.779098 0.456897 -0.163785
C8    C     C_3   0.070960 0.638176 0.922105 0.106837
C9    C     C_3   0.105106 0.588224 0.911946 -0.320630
C10   C     C_3   0.070355 0.542700 0.909154 -0.979018
C11   C     C_3   0.173504 0.304558 0.882028 0.094584
C12   C     C_3   0.202194 0.300004 0.925024 -0.376696
C13   C     C_3   0.525982 0.220811 0.044101 -0.467125
C14   C     C_3   0.274002 0.297916 0.872483 -0.952871
C15   C     C_3   0.572201 0.138553 0.922091 0.106708
C16   C     C_3   0.606893 0.088917 0.911908 -0.319845
C17   C     C_3   0.572638 0.043007 0.909101 -0.980120
C18   C     C_3   0.678131 0.793700 0.882206 0.094763
C19   C     C_3   0.705986 0.784589 0.925440 -0.376087
C20   C     C_3   0.777429 0.778348 0.873121 -0.954258
C21   C     C_3   0.533871 0.755889 0.043323 -0.417382
C22   C     C_3   0.979879 0.804859 0.042929 -0.401389
C23   C     C_3   0.961128 0.197934 0.042864 -0.405886
C24   C     C_3   0.479293 0.304895 0.042931 -0.401396
C25   C     C_3   0.456427 0.699739 0.042870 -0.405697
C26   C     C_3   0.021333 0.805138 0.956646 -0.480177
C27   C     C_3   0.004188 0.198068 0.956824 -0.495972
C28   C     C_3   0.520744 0.305156 0.956647 -0.480175
C29   C     C_R   0.650530 0.249947 0.699006 0.817005
C30   C     C_3   0.499489 0.699871 0.956829 -0.495842
C31   C     C_1   0.110806 0.749924 0.778354 -0.134382
C32   C     C_1   0.110787 0.250106 0.778447 -0.151057
C33   C     C_1   0.610814 0.249935 0.778354 -0.134462
C34   C     C_1   0.610809 0.750091 0.778448 -0.150704
C35   C     C_3   0.963646 0.749398 0.073341 0.292578
C36   C     C_3   0.963810 0.250246 0.073127 0.284905
C37   C     C_3   0.463671 0.249424 0.073341 0.292664
C38   C     C_3   0.463859 0.750189 0.073125 0.284998
C39   C     C_3   0.070783 0.723988 0.957986 0.376261
C40   C     C_R   0.150509 0.250064 0.699041 0.819530
C41   C     C_3   0.076883 0.260887 0.956913 0.393816
C42   C     C_3   0.571083 0.224556 0.957982 0.376258
C43   C     C_3   0.577688 0.755701 0.956907 0.393904
C44   C     C_3   0.036769 0.749598 0.926612 0.231414
C45   C     C_3   0.037186 0.250468 0.926862 0.270470
C46   C     C_3   0.536787 0.249622 0.926614 0.231483
C47   C     C_3   0.537253 0.750386 0.926863 0.270314
C48   C     C_3   0.972053 0.724238 0.957461 -0.420620
C49   C     C_3   0.985343 0.291895 0.957057 -0.359748
C50   C     C_3   0.472351 0.223724 0.957465 -0.420672
C51   C     C_R   0.150529 0.749945 0.699007 0.817021
C52   C     C_3   0.489392 0.795031 0.957057 -0.359795
C53   C     C_3   0.930251 0.722501 0.043410 -0.398308
C54   C     C_3   0.942542 0.292013 0.043097 -0.397050
C55   C     C_3   0.430570 0.221998 0.043414 -0.398314
C56   C     C_3   0.446592 0.795123 0.043098 -0.397025
C57   C     C_R   0.849508 0.749986 0.300991 0.821558
C58   C     C_R   0.849541 0.249998 0.300954 0.821174
C59   C     C_R   0.349509 0.249987 0.300991 0.821543
C60   C     C_R   0.349543 0.749996 0.300954 0.821155
C61   C     C_1   0.077416 0.749858 0.845106 -0.081356
C62   C     C_2   0.944206 0.752013 0.499459 -0.298420
C63   C     C_1   0.077529 0.250217 0.845241 -0.104357
C64   C     C_1   0.577430 0.249878 0.845107 -0.081449
C65   C     C_1   0.577573 0.750181 0.845242 -0.103917
C66   C     C_1   0.922639 0.749677 0.154860 -0.097058
C67   C     C_1   0.922836 0.250111 0.154715 -0.101680
C68   C     C_1   0.422658 0.249697 0.154860 -0.097103
C69   C     C_1   0.422871 0.750074 0.154714 -0.101638
C70   C     C_1   0.889165 0.749869 0.221627 -0.145935
C71   C     C_1   0.889311 0.250025 0.221522 -0.143930
C72   C     C_1   0.389176 0.249880 0.221627 -0.145983
C73   C     C_2   0.942461 0.250342 0.502944 -0.295563
C74   C     C_1   0.389330 0.750006 0.221522 -0.143941
C75   C     C_2   0.740593 0.028047 0.458489 -0.163360
C76   C     C_2   0.742461 0.971948 0.456900 -0.163495
C77   C     C_2   0.240592 0.528047 0.458491 -0.163347
C78   C     C_2   0.242460 0.471948 0.456902 -0.163448
C79   C     C_2   0.752338 0.056083 0.499409 -0.296711
C80   C     C_2   0.748102 0.943917 0.503019 -0.296719
C81   C     C_2   0.252337 0.556082 0.499410 -0.296693
C82   C     C_2   0.248101 0.443917 0.503019 -0.296744
C83   C     C_2   0.800933 0.471942 0.458438 -0.162587
C84   C     C_2   0.444209 0.252017 0.499454 -0.298517
C85   C     C_2   0.800669 0.528056 0.456917 -0.163002
C86   C     C_2   0.300933 0.971942 0.458438 -0.162611
C87   C     C_2   0.300669 0.028056 0.456917 -0.163040
C88   C     C_2   0.748290 0.443887 0.499504 -0.297447
C89   C     C_2   0.748892 0.556114 0.502937 -0.297448
C90   C     C_2   0.248290 0.943887 0.499504 -0.297449
C91   C     C_2   0.248893 0.056113 0.502937 -0.297416
C92   C     C_R   0.750000 0.611391 0.500243 0.853932
C93   C     C_R   0.749936 0.388609 0.499886 0.855137
C94   C     C_R   0.250000 0.111391 0.500243 0.853948
C95   C     C_2   0.442461 0.750341 0.502944 -0.295623
C96   C     C_R   0.249936 0.888609 0.499886 0.855102
C97   C     C_R   0.749800 0.888656 0.500253 0.855472
C98   C     C_R   0.750241 0.111344 0.499874 0.853592
C99   C     C_R   0.249799 0.388656 0.500253 0.855539
C100  C     C_R   0.250241 0.611344 0.499875 0.853625
C101  C     C_R   0.611456 0.749883 0.499882 0.855148
C102  C     C_R   0.611268 0.249865 0.500255 0.854503
C103  C     C_R   0.111456 0.249883 0.499882 0.855143
C104  C     C_R   0.111268 0.749865 0.500256 0.854522
C105  C     C_R   0.888726 0.750179 0.499881 0.853889
C106  C     C_3   0.025640 0.720265 0.044103 -0.467133
C107  C     C_R   0.888546 0.250064 0.500238 0.854491
C108  C     C_R   0.388727 0.250180 0.499880 0.854016
C109  C     C_R   0.388546 0.750064 0.500238 0.854485
C110  C     C_2   0.049615 0.720867 0.456925 -0.163117
C111  C     C_2   0.048860 0.280155 0.458441 -0.163168
C112  C     C_2   0.549619 0.220872 0.456917 -0.163093
C113  C     C_2   0.548860 0.780155 0.458441 -0.163136
C114  C     C_2   0.054621 0.749580 0.503014 -0.297539
C115  C     C_2   0.056397 0.248026 0.499465 -0.296448
C116  C     C_2   0.554623 0.249582 0.503010 -0.297644
H1    H     H_    0.088459 0.696462 0.416487 0.174161
H2    H     H_    0.944639 0.330099 0.063520 0.177508
H3    H     H_    0.694368 0.817429 0.962970 0.233653
H4    H     H_    0.685169 0.749683 0.959914 0.207963
H5    H     H_    0.790038 0.745175 0.835852 0.263149
H6    H     H_    0.796191 0.771816 0.905974 0.263436
H7    H     H_    0.799622 0.813268 0.839121 0.266397
H8    H     H_    0.420633 0.181657 0.062424 0.161393
H9    H     H_    0.452136 0.831918 0.063523 0.177709
H10   H     H_    0.884348 0.741415 0.065764 0.176454
H11   H     H_    0.892754 0.285369 0.063937 0.170099
H12   H     H_    0.384458 0.240527 0.065772 0.176333
H13   H     H_    0.396359 0.792135 0.063934 0.169816
H14   H     H_    0.976806 0.685695 0.934605 0.146902
H15   H     H_    0.007134 0.330143 0.936173 0.202622
H16   H     H_    0.477522 0.185111 0.934608 0.146845
H17   H     H_    0.084914 0.308327 0.423588 0.174057
H18   H     H_    0.514664 0.832072 0.936180 0.202852
H19   H     H_    0.015164 0.680078 0.063326 0.177070
H20   H     H_    0.035943 0.298337 0.064893 0.197130
H21   H     H_    0.515949 0.180616 0.063320 0.177077
H22   H     H_    0.540144 0.791816 0.064871 0.197125
H23   H     H_    0.947262 0.746847 0.939578 0.181924
H24   H     H_    0.956106 0.284535 0.936778 0.161067
H25   H     H_    0.447310 0.245964 0.939587 0.181818
H26   H     H_    0.459644 0.791345 0.936775 0.160728
H27   H     H_    0.729740 0.046678 0.423743 0.174190
H28   H     H_    0.588464 0.196467 0.416479 0.174177
H29   H     H_    0.738320 0.953315 0.416437 0.173988
H30   H     H_    0.229739 0.546678 0.423745 0.174172
H31   H     H_    0.238318 0.453315 0.416438 0.173956
H32   H     H_    0.764819 0.039190 0.533340 0.150822
H33   H     H_    0.750795 0.960812 0.545286 0.150616
H34   H     H_    0.264818 0.539190 0.533341 0.150771
H35   H     H_    0.250794 0.460812 0.545287 0.150511
H36   H     H_    0.846527 0.453311 0.423530 0.174369
H37   H     H_    0.845313 0.546683 0.416561 0.174261
H38   H     H_    0.346527 0.953311 0.423530 0.174382
H39   H     H_    0.584914 0.808327 0.423588 0.174086
H40   H     H_    0.345313 0.046683 0.416561 0.174259
H41   H     H_    0.016621 0.773454 0.545238 0.149983
H42   H     H_    0.022472 0.218653 0.533547 0.150921
H43   H     H_    0.516623 0.273455 0.545235 0.149984
H44   H     H_    0.522472 0.718653 0.533548 0.150911
H45   H     H_    0.701880 0.460773 0.533664 0.150369
H46   H     H_    0.703869 0.539230 0.545044 0.150295
H47   H     H_    0.201880 0.960773 0.533664 0.150378
H48   H     H_    0.203869 0.039230 0.545044 0.150316
H49   H     H_    0.991495 0.691641 0.423682 0.174373
H50   H     H_    0.996044 0.825472 0.937541 0.194873
H51   H     H_    0.995086 0.303530 0.416511 0.174082
H52   H     H_    0.491499 0.191645 0.423675 0.174383
H53   H     H_    0.495086 0.803530 0.416511 0.174129
H54   H     H_    0.944093 0.781413 0.533481 0.149934
H55   H     H_    0.938273 0.226421 0.545098 0.151491
H56   H     H_    0.444096 0.281417 0.533475 0.149935
H57   H     H_    0.438273 0.726421 0.545098 0.151468
H58   H     H_    0.107661 0.751799 0.946367 0.111047
H59   H     H_    0.110631 0.228500 0.939309 0.035042
H60   H     H_    0.607657 0.252706 0.946362 0.111028
H61   H     H_    0.975435 0.189564 0.936204 0.197430
H62   H     H_    0.608323 0.721144 0.939314 0.035100
H63   H     H_    0.048937 0.737264 0.068002 0.150108
H64   H     H_    0.049399 0.231541 0.064394 0.123284
H65   H     H_    0.549094 0.238195 0.067998 0.150091
H66   H     H_    0.547383 0.724086 0.064401 0.123219
H67   H     H_    0.935760 0.826621 0.064917 0.182262
H68   H     H_    0.911804 0.189281 0.063413 0.184301
H69   H     H_    0.434936 0.326294 0.064922 0.182172
H70   H     H_    0.406467 0.694714 0.063433 0.184195
H71   H     H_    0.005421 0.824530 0.062174 0.169317
H72   H     H_    0.495233 0.325109 0.937545 0.194764
H73   H     H_    0.976514 0.167247 0.063394 0.172899
H74   H     H_    0.504618 0.324952 0.062175 0.169321
H75   H     H_    0.468884 0.666814 0.063389 0.173112
H76   H     H_    0.065462 0.826878 0.934720 0.166430
H77   H     H_    0.040044 0.167308 0.936121 0.169999
H78   H     H_    0.564633 0.327261 0.934719 0.166444
H79   H     H_    0.532391 0.666879 0.936116 0.170277
H80   H     H_    0.068721 0.642750 0.874165 0.150701
H81   H     H_    0.022698 0.635392 0.974469 0.129878
H82   H     H_    0.153587 0.589741 0.859495 0.235315
H83   H     H_    0.470106 0.695013 0.936222 0.197366
H84   H     H_    0.108693 0.583101 0.958840 0.224038
H85   H     H_    0.022119 0.539826 0.961675 0.262779
H86   H     H_    0.096383 0.507110 0.901700 0.273802
H87   H     H_    0.067132 0.546611 0.861868 0.265541
H88   H     H_    0.191864 0.339806 0.847962 0.175169
H89   H     H_    0.188684 0.272379 0.842229 0.126163
H90   H     H_    0.187646 0.333363 0.962530 0.233772
H91   H     H_    0.184653 0.264922 0.959509 0.207986
H92   H     H_    0.289562 0.264335 0.835220 0.263161
H93   H     H_    0.293372 0.294611 0.905164 0.263624
H94   H     H_    0.919868 0.682170 0.062426 0.161432
H95   H     H_    0.292913 0.333166 0.838477 0.266509
H96   H     H_    0.569909 0.142853 0.874158 0.150765
H97   H     H_    0.523972 0.135523 0.974459 0.129852
H98   H     H_    0.655356 0.090681 0.859454 0.235374
H99   H     H_    0.610541 0.084073 0.958795 0.223968
H100  H     H_    0.524437 0.039883 0.961626 0.262607
H101  H     H_    0.599055 0.007657 0.901624 0.273590
H102  H     H_    0.569365 0.046638 0.861824 0.265662
H103  H     H_    0.699812 0.828657 0.848109 0.175332
H104  H     H_    0.690454 0.762067 0.842417 0.124901
O1    O     O_3   0.750030 0.750030 0.500000 -0.483307
O2    O     O_R   0.758570 0.135390 0.542990 -0.644256
O3    O     O_R   0.258570 0.364610 0.542990 -0.644460
O4    O     O_R   0.258570 0.635390 0.542990 -0.644252
O5    O     O_R   0.638020 0.720010 0.663980 -0.636708
O6    O     O_R   0.638020 0.279990 0.663980 -0.640334
O7    O     O_R   0.138020 0.220010 0.663980 -0.636451
O8    O     O_R   0.138020 0.779990 0.663980 -0.640311
O9    O     O_R   0.801960 0.780050 0.336020 -0.640344
O10   O     O_R   0.801960 0.219950 0.336020 -0.639850
O11   O     O_R   0.301960 0.280050 0.336020 -0.640376
O12   O     O_3   0.750030 0.249970 0.500000 -0.484367
O13   O     O_R   0.301960 0.719950 0.336020 -0.639877
O14   O     O_R   0.698090 0.780090 0.663980 -0.640544
O15   O     O_R   0.698090 0.219910 0.663980 -0.631750
O16   O     O_R   0.198090 0.280090 0.663980 -0.641306
O17   O     O_R   0.198090 0.719910 0.663980 -0.631729
O18   O     O_R   0.862050 0.719970 0.336020 -0.639122
O19   O     O_R   0.862050 0.280030 0.336020 -0.639562
O20   O     O_R   0.362050 0.219970 0.336020 -0.639127
O21   O     O_R   0.362050 0.780030 0.336020 -0.639526
O22   O     O_R   0.698510 0.635460 0.542990 -0.644951
O23   O     O_3   0.250030 0.250030 0.500000 -0.483238
O24   O     O_R   0.698510 0.364540 0.542990 -0.644487
O25   O     O_R   0.198510 0.135460 0.542990 -0.644929
O26   O     O_R   0.198510 0.864540 0.542990 -0.644499
O27   O     O_R   0.741470 0.864610 0.457010 -0.643633
O28   O     O_R   0.741470 0.135390 0.457010 -0.643751
O29   O     O_R   0.241470 0.364610 0.457010 -0.643597
O30   O     O_R   0.241470 0.635390 0.457010 -0.643749
O31   O     O_R   0.613960 0.720010 0.542990 -0.643957
O32   O     O_R   0.613960 0.279990 0.542990 -0.644950
O33   O     O_R   0.113960 0.220010 0.542990 -0.643954
O34   O     O_3   0.250030 0.749970 0.500000 -0.484374
O35   O     O_R   0.113960 0.779990 0.542990 -0.644946
O36   O     O_R   0.843120 0.780070 0.542990 -0.646447
O37   O     O_R   0.843120 0.219930 0.542990 -0.642925
O38   O     O_R   0.343120 0.280070 0.542990 -0.646494
O39   O     O_R   0.343120 0.719930 0.542990 -0.642960
O40   O     O_R   0.656940 0.780080 0.457010 -0.643550
O41   O     O_R   0.656940 0.219920 0.457010 -0.643567
O42   O     O_R   0.156940 0.280080 0.457010 -0.643568
O43   O     O_R   0.156940 0.719920 0.457010 -0.643576
O44   O     O_R   0.886110 0.719980 0.457010 -0.642954
O45   O     O_R   0.801570 0.635440 0.457010 -0.643621
O46   O     O_R   0.886110 0.280020 0.457010 -0.644077
O47   O     O_R   0.386110 0.219980 0.457010 -0.642925
O48   O     O_R   0.386110 0.780020 0.457010 -0.644046
O49   O     O_3   0.106122 0.678780 0.922347 -0.641306
O50   O     O_3   0.107138 0.309141 0.931432 -0.648149
O51   O     O_3   0.606915 0.179539 0.922345 -0.641324
O52   O     O_3   0.612351 0.802122 0.931403 -0.647872
O53   O     O_R   0.801570 0.364560 0.457010 -0.643187
O54   O     O_R   0.301570 0.135440 0.457010 -0.643630
O55   O     O_R   0.301570 0.864560 0.457010 -0.643191
O56   O     O_R   0.758570 0.864610 0.542990 -0.644270
Zn1   Zn    Zn3+2 0.823660 0.707100 0.438580 0.963732
Zn2   Zn    Zn3+2 0.737810 0.207050 0.438580 0.963084
Zn3   Zn    Zn3+2 0.237810 0.292950 0.438580 0.963892
Zn4   Zn    Zn3+2 0.237810 0.707050 0.438580 0.963082
Zn5   Zn    Zn3+2 0.762240 0.792950 0.561420 0.966224
Zn6   Zn    Zn3+2 0.762240 0.207050 0.561420 0.974110
Zn7   Zn    Zn3+2 0.262240 0.292950 0.561420 0.965745
Zn8   Zn    Zn3+2 0.262240 0.707050 0.561420 0.974121
Zn9   Zn    Zn3+2 0.823660 0.292900 0.438580 0.964150
Zn10  Zn    Zn3+2 0.323660 0.207100 0.438580 0.963782
Zn11  Zn    Zn3+2 0.323660 0.792900 0.438580 0.964174
Zn12  Zn    Zn3+2 0.676410 0.707120 0.561420 0.969764
Zn13  Zn    Zn3+2 0.676410 0.292880 0.561420 0.968590
Zn14  Zn    Zn3+2 0.176410 0.207120 0.561420 0.969962
Zn15  Zn    Zn3+2 0.176410 0.792880 0.561420 0.968603
Zn16  Zn    Zn3+2 0.737810 0.792950 0.438580 0.963902

loop_
_geom_bond_atom_site_label_1
_geom_bond_atom_site_label_2
_ccdc_geom_bond_type
C39   C106  S    
C44   C48   S    
C5    C73   D    
O40   Zn16  S    
C43   H62   S    
C14   H92   S    
C80   C97   S    
C35   C53   S    
O7    Zn14  S    
O53   Zn9   S    
C82   C99   S    
C31   C61   T    
C79   C98   S    
O1    Zn1   S    
O33   Zn14  S    
C23   H73   S    
O12   Zn9   S    
C15   H97   S    
O18   Zn1   S    
C59   O11   A    
C18   O52   S    
C97   O27   A    
C36   C67   S    
C26   C44   S    
C62   C105  S    
O4    Zn8   S    
O34   Zn11  S    
C93   O53   A    
C22   C35   S    
C49   H15   S    
C28   C46   S    
C60   O21   A    
C15   H96   S    
C104  O35   A    
O20   Zn10  S    
C14   H95   S    
O10   Zn2   S    
C102  O32   A    
C21   H22   S    
O39   Zn8   S    
C77   H30   S    
C88   H45   S    
C18   C19   S    
C100  O30   A    
C28   H72   S    
C58   C71   S    
C73   C107  S    
C27   C45   S    
C100  O4    A    
C2    C41   S    
C2    C36   S    
C81   H34   S    
C101  O40   A    
C29   C33   S    
C83   C88   D    
C22   H71   S    
O6    Zn13  S    
C52   H18   S    
C4    H49   S    
C34   C65   T    
C112  H28   S    
O32   Zn13  S    
C42   C46   S    
O12   Zn2   S    
C42   O51   S    
O17   Zn8   S    
C13   H21   S    
C29   O15   A    
C20   H7    S    
C99   O3    A    
C92   O22   A    
O23   Zn7   S    
C21   C43   S    
O34   Zn4   S    
C103  O42   A    
C21   C38   S    
C19   C20   S    
O47   Zn10  S    
C16   C17   S    
O27   Zn16  S    
C28   H78   S    
C19   H4    S    
O38   Zn7   S    
O54   Zn10  S    
C104  O43   A    
C23   C27   S    
C57   C70   S    
C73   H55   S    
C17   H100  S    
C10   H87   S    
C110  C114  D    
C20   H6    S    
C57   O18   A    
C48   H23   S    
C9    H84   S    
O2    Zn6   S    
C59   C72   S    
C3    C101  S    
O23   Zn14  S    
C32   C40   S    
C30   H83   S    
O19   Zn9   S    
C38   C69   S    
C18   H104  S    
C50   H16   S    
C86   H38   S    
C22   H67   S    
C48   H14   S    
C8    H81   S    
C101  O31   A    
O16   Zn7   S    
C2    H64   S    
C29   O6    A    
C113  H39   S    
C39   H58   S    
C15   O51   S    
C18   H103  S    
C110  H1    S    
C96   O26   A    
C13   C42   S    
C10   H85   S    
C1    C34   S    
O44   Zn1   S    
O3    Zn7   S    
C48   C53   S    
C62   H54   S    
C16   H99   S    
C6    H52   S    
O26   Zn15  S    
O15   Zn6   S    
C6    C84   D    
C87   C91   D    
O41   Zn2   S    
C115  H42   S    
C12   H91   S    
C24   C28   S    
C30   C47   S    
C41   O50   S    
C36   C54   S    
C37   C68   S    
O8    Zn15  S    
C116  H43   S    
C109  O48   A    
C95   C109  S    
C56   H13   S    
O23   Zn3   S    
O12   Zn13  S    
C26   H76   S    
C86   C87   S    
C8    C9    S    
C5    C111  S    
O1    Zn16  S    
O43   Zn4   S    
C77   C78   S    
C82   H35   S    
C45   C63   S    
C2    H20   S    
C58   O19   A    
O29   Zn3   S    
C46   C64   S    
C24   H69   S    
C12   H90   S    
C40   O16   A    
C109  O39   A    
C108  O47   A    
C103  C115  S    
C75   C76   S    
O5    Zn12  S    
C114  H41   S    
C98   O28   A    
C8    O49   S    
C58   O10   A    
C25   C38   S    
C57   O9    A    
C78   C82   D    
C30   H79   S    
C45   C49   S    
C1    O14   A    
C68   C72   T    
O14   Zn5   S    
C107  O46   A    
C24   C37   S    
C43   O52   S    
C102  O41   A    
C69   C74   T    
C51   O17   A    
C85   H37   S    
C56   H9    S    
O21   Zn11  S    
C89   C92   S    
C16   H98   S    
C10   H86   S    
O22   Zn12  S    
C20   H5    S    
C39   C44   S    
C75   H27   S    
C78   H31   S    
C27   H77   S    
C92   O45   A    
O36   Zn5   S    
O1    Zn12  S    
C106  H19   S    
C83   C85   S    
C12   C14   S    
C76   H29   S    
C13   H65   S    
C54   H2    S    
O48   Zn11  S    
C3    C113  D    
O37   Zn6   S    
C103  O33   A    
C11   O50   S    
C104  C114  S    
C91   H48   S    
O31   Zn12  S    
O34   Zn15  S    
C44   C61   S    
C33   C64   T    
C106  H63   S    
C112  C116  D    
C17   H101  S    
C9    H82   S    
C27   H61   S    
C83   H36   S    
C9    C10   S    
C1    O5    A    
C25   C30   S    
C99   O29   A    
O13   Zn4   S    
C4    C110  S    
C88   C93   S    
C26   H50   S    
C85   C89   D    
C14   H93   S    
O28   Zn2   S    
O9    Zn16  S    
C89   H46   S    
C60   O13   A    
C76   C80   D    
C32   C63   T    
C31   C51   S    
C21   H66   S    
C84   H56   S    
C93   O24   A    
C94   O54   A    
C111  C115  D    
C11   C12   S    
C50   H25   S    
C90   C96   S    
C47   C52   S    
C81   C100  S    
C25   H75   S    
O25   Zn14  S    
O35   Zn15  S    
C7    C95   D    
C54   H11   S    
C46   C50   S    
C39   O49   S    
C50   C55   S    
C35   C66   S    
C80   H33   S    
C90   H47   S    
C107  O37   A    
C4    C62   D    
O12   Zn6   S    
C7    C113  S    
C40   O7    A    
O1    Zn5   S    
C59   O20   A    
C95   H57   S    
C108  O38   A    
C24   H74   S    
C35   C106  S    
C42   H60   S    
O55   Zn11  S    
C91   C94   S    
C111  H17   S    
O46   Zn9   S    
O45   Zn1   S    
C3    H44   S    
C66   C70   T    
C43   C47   S    
C13   C37   S    
C105  O44   A    
C15   C16   S    
C98   O2    A    
C60   C74   S    
C86   C90   D    
C84   C108  S    
C53   H94   S    
C94   O25   A    
C8    H80   S    
C79   H32   S    
C67   C71   T    
C11   H88   S    
C5    H51   S    
C41   H59   S    
C97   O56   A    
C52   H26   S    
C102  C116  S    
C25   H70   S    
O23   Zn10  S    
C19   H3    S    
C37   C55   S    
C55   H8    S    
C52   C56   S    
O24   Zn13  S    
C23   H68   S    
C38   C56   S    
C55   H12   S    
C23   C36   S    
C22   C26   S    
C49   H24   S    
O42   Zn3   S    
C51   O8    A    
C96   O55   A    
C41   C45   S    
C87   H40   S    
C6    C112  S    
C11   H89   S    
C105  O36   A    
C53   H10   S    
O56   Zn5   S    
C75   C79   D    
O11   Zn3   S    
C47   C65   S    
C7    H53   S    
C17   H102  S    
C49   C54   S    
O30   Zn4   S    
C77   C81   D    
O34   Zn8   S    
