data_mof_unit_41826.cif
_audit_creation_date              2012-12-10T18:50:49-0500
_audit_creation_method            fapswitch 2.2
_symmetry_space_group_name_H-M    P1
_symmetry_Int_Tables_number       1
_space_group_crystal_system       triclinic
_cell_length_a                    10.669501
_cell_length_b                    9.910721
_cell_length_c                    15.771309
_cell_angle_alpha                 89.874284
_cell_angle_beta                  91.452319
_cell_angle_gamma                 89.676408
_cell_volume                      1667.12994446

loop_
_atom_site_label
_atom_site_type_symbol
_atom_type_description
_atom_site_fract_x
_atom_site_fract_y
_atom_site_fract_z
_atom_type_partial_charge
C1    C     C_R   0.260299 0.500515 0.499878 1.000318
C2    C     C_R   0.930002 0.570977 0.436190 0.337216
C3    C     C_R   0.871355 0.499216 0.500093 -0.130520
C4    C     C_R   0.127134 0.502002 0.500674 -0.267879
C5    C     C_R   0.565661 0.070528 0.561183 0.482507
C6    C     C_R   0.565660 0.928288 0.561209 0.496362
C7    C     C_R   0.500226 0.500022 0.338489 0.946526
C8    C     C_R   0.433725 0.928900 0.439498 -0.112245
C9    C     C_R   0.433721 0.072303 0.439501 -0.115690
C10   C     C_R   0.739232 0.499659 0.500216 1.018638
C11   C     C_R   0.501855 0.499855 0.661441 0.950048
C12   C     C_3   0.666350 0.510663 0.953676 -0.242025
C13   C     C_3   0.416522 0.604735 0.045257 0.209868
C14   C     C_3   0.478533 0.349662 0.046708 0.247488
C15   C     C_3   0.462718 0.364855 0.947807 0.085872
C16   C     C_3   0.439157 0.617212 0.947294 0.124201
C17   C     C_1   0.510247 0.499442 0.749901 -0.016822
C18   C     C_3   0.514841 0.495674 0.082845 -0.145825
C19   C     C_3   0.525440 0.499153 0.916764 -0.055214
C20   C     C_2   0.280269 0.566953 0.064446 0.820341
C21   C     C_2   0.360121 0.289130 0.085676 0.857505
C22   C     C_2   0.682217 0.682480 0.085840 1.049268
C23   C     C_3   0.656588 0.535295 0.055818 -0.266626
C24   C     C_2   0.762128 0.458118 0.104528 1.019170
C25   C     C_2   0.744856 0.620849 0.911553 1.038573
C26   C     C_2   0.736920 0.381368 0.925316 1.052102
C27   C     C_2   0.138739 0.350461 0.630328 0.939196
C28   C     C_2   0.125137 0.666153 0.376873 0.927310
C29   C     C_1   0.518502 0.499223 0.824920 0.070486
C30   C     C_1   0.507612 0.497436 0.174803 0.207713
C31   C     C_1   0.503298 0.499494 0.249885 0.028700
C32   C     C_R   0.066695 0.427819 0.564281 -0.129927
C33   C     C_R   0.060370 0.577836 0.438194 -0.144659
C34   C     C_R   0.936104 0.429980 0.564907 0.335483
H1    H     H_    0.347785 0.609649 0.911668 0.131196
H2    H     H_    0.461459 0.767507 0.868692 0.373091
H3    H     H_    0.698534 0.881612 0.060157 0.377588
H4    H     H_    0.948607 0.428372 0.120742 0.355746
H5    H     H_    0.760978 0.765236 0.821864 0.378298
H6    H     H_    0.804435 0.275557 0.826559 0.377575
H7    H     H_    0.167084 0.172512 0.690230 0.355342
H8    H     H_    0.264178 0.687817 0.294219 0.370384
H9    H     H_    0.921511 0.356364 0.679750 0.371611
H10   H     H_    0.906008 0.640947 0.320775 0.368083
H11   H     H_    0.656005 0.223633 0.604458 0.400306
H12   H     H_    0.361024 0.374267 0.930432 0.154304
H13   H     H_    0.657051 0.774254 0.604689 0.373897
H14   H     H_    0.380587 0.875574 0.390962 0.189914
H15   H     H_    0.380583 0.126611 0.390948 0.200956
H16   H     H_    0.151587 0.539213 0.154412 0.374191
H17   H     H_    0.185950 0.213052 0.068775 0.376280
H18   H     H_    0.551157 0.165865 0.049336 0.395243
H19   H     H_    0.374280 0.796504 0.060710 0.379168
H20   H     H_    0.458885 0.236676 0.853361 0.366658
N1    N     N_R   0.499970 0.857200 0.499980 -0.181842
N2    N     N_R   0.499970 0.142800 0.499980 -0.188291
O1    O     O_R   0.316750 0.614620 0.499990 -0.607858
O2    O     O_R   0.242981 0.564043 0.148685 -0.758959
O3    O     O_2   0.359175 0.264779 0.161737 -0.579892
O4    O     O_R   0.256195 0.253079 0.034855 -0.769616
O5    O     O_3   0.576707 0.258380 0.066521 -0.637454
O6    O     O_3   0.436327 0.730807 0.084890 -0.680885
O7    O     O_3   0.509667 0.249799 0.906315 -0.680484
O8    O     O_3   0.489554 0.743947 0.927439 -0.627073
O9    O     O_2   0.698343 0.704690 0.161783 -0.601662
O10   O     O_R   0.682592 0.792632 0.030265 -0.679930
O11   O     O_2   0.740207 0.379668 0.162189 -0.544547
O12   O     O_R   0.316750 0.385380 0.499990 -0.608818
O13   O     O_R   0.887031 0.483963 0.085064 -0.750271
O14   O     O_2   0.853480 0.637886 0.935967 -0.552071
O15   O     O_R   0.697749 0.698326 0.843573 -0.733744
O16   O     O_2   0.773847 0.294261 0.974963 -0.517531
O17   O     O_R   0.758757 0.363090 0.838803 -0.785034
O18   O     O_2   0.219825 0.406271 0.673457 -0.652495
O19   O     O_R   0.112240 0.214159 0.643590 -0.750092
O20   O     O_2   0.090784 0.783248 0.367064 -0.572672
O21   O     O_R   0.225232 0.615999 0.330904 -0.797940
O22   O     O_3   0.867975 0.369933 0.628324 -0.733096
O23   O     O_R   0.499990 0.614720 0.377140 -0.594737
O24   O     O_3   0.856461 0.630397 0.372549 -0.704455
O25   O     O_3   0.635773 0.132597 0.624004 -0.672980
O26   O     O_3   0.635553 0.865079 0.624247 -0.692056
O27   O     O_R   0.499990 0.385280 0.377140 -0.607203
O28   O     O_R   0.683220 0.614710 0.500000 -0.621409
O29   O     O_R   0.683220 0.385290 0.500000 -0.626242
O30   O     O_R   0.499980 0.614620 0.622860 -0.631804
O31   O     O_R   0.499980 0.385380 0.622860 -0.610084
O32   O     O_2   0.203014 0.542670 0.007940 -0.576835
Zn1   Zn    Zn3+2 0.499980 0.653120 0.500000 1.019947
Zn2   Zn    Zn3+2 0.499980 0.346880 0.500000 1.022825

loop_
_geom_bond_atom_site_label_1
_geom_bond_atom_site_label_2
_ccdc_geom_bond_type
C7    O27   A    
C10   O29   A    
C6    O26   S    
C17   C29   T    
C14   C18   S    
C5    N2    A    
C6    N1    A    
C26   O17   S    
H9    O22   S    
C15   C19   S    
C12   C23   S    
O1    Zn1   S    
C13   C18   S    
C14   C21   S    
C21   O3    D    
H18   O5    S    
C16   H1    S    
C5    C6    A    
H20   O7    S    
C11   O30   A    
C1    O12   A    
C26   O16   D    
H6    O17   S    
H13   O26   S    
C22   O10   S    
C24   O11   D    
C13   O6    S    
C11   O31   A    
C8    C9    A    
O12   Zn2   S    
C23   C24   S    
C25   O15   S    
C27   O18   D    
N2    Zn2   S    
H4    O13   S    
C27   O19   S    
C8    N1    A    
C24   O13   S    
C7    C31   S    
C18   C23   S    
H16   O2    S    
H10   O24   S    
C9    H15   S    
C21   O4    S    
C3    C34   A    
C14   O5    S    
C12   C26   S    
C32   C34   A    
C8    H14   S    
C22   O9    D    
C1    O1    A    
H7    O19   S    
C5    O25   S    
H19   O6    S    
H3    O10   S    
C9    N2    A    
C28   O21   S    
C4    C32   A    
C18   C30   S    
C2    C33   A    
C28   C33   S    
O31   Zn2   S    
O28   Zn1   S    
C20   O2    S    
C28   O20   D    
C7    O23   A    
O27   Zn2   S    
C4    C33   A    
C11   C17   S    
H5    O15   S    
C13   C20   S    
C27   C32   S    
C14   C15   S    
H11   O25   S    
O30   Zn1   S    
O29   Zn2   S    
H17   O4    S    
C12   C25   S    
C1    C4    S    
C2    C3    A    
N1    Zn1   S    
C3    C10   S    
C34   O22   S    
C30   C31   T    
C16   C19   S    
C20   O32   D    
C12   C19   S    
C10   O28   A    
O23   Zn1   S    
C2    O24   S    
H8    O21   S    
C13   C16   S    
C15   O7    S    
C22   C23   S    
C25   O14   D    
C16   O8    S    
C15   H12   S    
H2    O8    S    
C19   C29   S    
