data_mof_unit_16978.cif
_audit_creation_date              2012-12-10T18:42:32-0500
_audit_creation_method            fapswitch 2.2
_symmetry_space_group_name_H-M    P1
_symmetry_Int_Tables_number       1
_space_group_crystal_system       triclinic
_cell_length_a                    8.61901
_cell_length_b                    10.63578
_cell_length_c                    9.896748
_cell_angle_alpha                 90.688798
_cell_angle_beta                  97.877731
_cell_angle_gamma                 90.751798
_cell_volume                      898.507268699

loop_
_atom_site_label
_atom_site_type_symbol
_atom_type_description
_atom_site_fract_x
_atom_site_fract_y
_atom_site_fract_z
_atom_type_partial_charge
C1    C     C_R   0.500654 0.260186 0.499661 0.849940
C2    C     C_R   0.501452 0.739774 0.500924 0.845081
C3    C     C_R   0.202050 0.503298 0.465288 0.879074
C4    C     C_R   0.797827 0.497161 0.534487 0.861443
C5    C     C_2   0.039032 0.523635 0.451117 0.182386
C6    C     C_2   0.960373 0.476205 0.547628 0.171213
C7    C     C_R   0.588650 0.064142 0.412555 -0.244678
C8    C     C_R   0.421798 0.935794 0.593565 -0.189075
C9    C     C_R   0.588170 0.935237 0.412612 -0.169038
C10   C     C_R   0.420205 0.064609 0.591891 -0.167814
C11   C     C_R   0.504173 0.872192 0.502696 -0.003929
C12   C     C_R   0.502467 0.127698 0.500478 -0.020177
C13   C     C_R   0.588446 0.586240 0.084733 0.331236
C14   C     C_R   0.402458 0.420973 0.913732 0.309030
C15   C     C_R   0.596259 0.580869 0.940461 0.290537
C16   C     C_R   0.410349 0.414237 0.058932 0.306009
H1    H     H_    0.656225 0.114000 0.345099 0.143413
H2    H     H_    0.356493 0.885995 0.662903 0.146528
H3    H     H_    0.654166 0.884996 0.344096 0.188582
H4    H     H_    0.353491 0.114790 0.659947 0.180191
N1    N     N_R   0.499960 0.499970 0.857200 -0.148693
N2    N     N_R   0.500040 0.500030 0.142800 -0.155715
O1    O     O_R   0.499990 0.316750 0.614620 -0.578759
O2    O     O_R   0.500010 0.683250 0.385380 -0.573512
O3    O     O_R   0.499990 0.316780 0.385290 -0.632000
O4    O     O_R   0.500010 0.683220 0.614710 -0.588066
O5    O     O_R   0.271750 0.499990 0.587840 -0.529801
O6    O     O_R   0.728250 0.500010 0.412160 -0.528770
O7    O     O_R   0.271750 0.500010 0.358510 -0.611730
O8    O     O_R   0.728250 0.499990 0.641490 -0.637632
Zn1   Zn    Zn3+2 0.500000 0.499980 0.653120 1.026147
Zn2   Zn    Zn3+2 0.500000 0.500020 0.346880 1.030801
O9    O     O_3   0.968501 0.601461 0.349496 -0.754026
H5    H     H_    0.048565 0.634577 0.295661 0.332911
O10   O     O_3   0.029818 0.395783 0.646696 -0.761910
H6    H     H_    0.949663 0.362458 0.700314 0.327100
O11   O     O_3   0.667524 0.677461 0.168301 -0.695695
H7    H     H_    0.695923 0.748040 0.111641 0.331823
O12   O     O_3   0.296230 0.350422 0.826854 -0.694411
H8    H     H_    0.209926 0.323378 0.876884 0.352495
O13   O     O_3   0.692123 0.663177 0.881626 -0.608488
C17   C     C_3   0.850134 0.627229 0.915240 0.098571
H9    H     H_    0.866671 0.528528 0.881758 0.157729
H10   H     H_    0.889023 0.634298 0.026974 0.158797
C18   C     C_3   0.954061 0.715091 0.844019 -0.318922
H11   H     H_    0.916022 0.711299 0.732103 0.232553
H12   H     H_    0.941301 0.813250 0.880302 0.220587
C19   C     C_3   0.126064 0.678945 0.872742 -0.940766
H13   H     H_    0.168273 0.685148 0.983881 0.255790
H14   H     H_    0.197876 0.743736 0.818706 0.257939
H15   H     H_    0.141305 0.581743 0.835602 0.309202
O14   O     O_3   0.319079 0.325718 0.114408 -0.619212
C20   C     C_3   0.397623 0.208899 0.127841 0.147864
H16   H     H_    0.359986 0.162660 0.218040 0.193679
H17   H     H_    0.527826 0.219788 0.147207 0.117660
C21   C     C_3   0.351250 0.119244 0.005910 -0.439807
H18   H     H_    0.221941 0.117910 0.977528 0.239791
H19   H     H_    0.407803 0.150741 0.917830 0.248976
C22   C     C_3   0.405177 0.985421 0.039083 -0.918030
H20   H     H_    0.534175 0.984100 0.069046 0.263376
H21   H     H_    0.374452 0.923755 0.947745 0.269697
H22   H     H_    0.346732 0.947394 0.123553 0.272507

loop_
_geom_bond_atom_site_label_1
_geom_bond_atom_site_label_2
_ccdc_geom_bond_type
O2    Zn2   S    
O11   H7    S    
N1    Zn1   S    
O13   C17   S    
N2    Zn2   S    
C13   O11   S    
O10   H6    S    
C21   C22   S    
C15   N1    A    
O3    Zn2   S    
C3    O5    A    
O9    H5    S    
C4    O8    A    
C22   H20   S    
C2    O4    A    
C20   H16   S    
C21   H18   S    
C1    O3    A    
C9    C11   A    
C3    O7    A    
C7    C12   A    
C1    C12   S    
C17   H10   S    
C8    C11   A    
C5    C6    D    
C2    C11   S    
C10   C12   A    
C14   N1    A    
C19   H14   S    
C19   H13   S    
C4    O6    A    
C21   H19   S    
C13   N2    A    
C1    O1    A    
O7    Zn2   S    
C20   H17   S    
C13   C15   A    
C2    O2    A    
O8    Zn1   S    
C14   C16   A    
C22   H21   S    
C4    C6    S    
C17   H9    S    
C6    O10   S    
O5    Zn1   S    
O1    Zn1   S    
O6    Zn2   S    
C18   H12   S    
O14   C20   S    
C15   O13   S    
C8    C10   A    
C20   C21   S    
O12   H8    S    
C7    C9    A    
C22   H22   S    
C16   N2    A    
C18   C19   S    
C3    C5    S    
C14   O12   S    
C18   H11   S    
O4    Zn1   S    
C9    H3    S    
C19   H15   S    
C8    H2    S    
C16   O14   S    
C10   H4    S    
C7    H1    S    
C17   C18   S    
C5    O9    S    
