data_mof_unit_19703.cif
_audit_creation_date              2012-12-11T15:54:42-0500
_audit_creation_method            fapswitch 2.2
_symmetry_space_group_name_H-M    P1
_symmetry_Int_Tables_number       1
_space_group_crystal_system       triclinic
_cell_length_a                    6.960257
_cell_length_b                    14.651209
_cell_length_c                    15.97638
_cell_angle_alpha                 90.025649
_cell_angle_beta                  90.687354
_cell_angle_gamma                 89.454427
_cell_volume                      1629.01902315

loop_
_atom_site_label
_atom_site_type_symbol
_atom_type_description
_atom_site_fract_x
_atom_site_fract_y
_atom_site_fract_z
_atom_type_partial_charge
O1    O     O_R   0.638180 0.333920 0.163320 -0.542956
O2    O     O_R   0.361820 0.666080 0.836680 -0.542920
O3    O     O_R   0.308470 0.344960 0.336080 -0.527481
O4    O     O_R   0.691530 0.655040 0.663920 -0.526741
O5    O     O_R   0.138140 0.166110 0.336680 -0.523558
O6    O     O_R   0.861860 0.833890 0.663320 -0.524083
C1    C     C_R   0.477678 0.367793 0.364426 0.729063
C2    C     C_R   0.522319 0.632269 0.635495 0.744065
O7    O     O_R   0.308460 0.344950 0.163930 -0.552740
O8    O     O_R   0.691540 0.655050 0.836070 -0.552303
O9    O     O_R   0.138140 0.166100 0.163310 -0.546192
O10   O     O_R   0.861860 0.833900 0.836690 -0.548387
C3    C     C_R   0.476902 0.371215 0.138325 0.673666
C4    C     C_R   0.524322 0.637956 0.869061 0.676447
O11   O     O_R   0.638180 0.333930 0.336700 -0.518568
O12   O     O_R   0.361820 0.666070 0.663300 -0.518214
O13   O     O_3   0.471670 0.191340 0.250000 -0.371383
O14   O     O_3   0.528330 0.808660 0.750000 -0.374490
V1    V     V_3+5 0.196830 0.260900 0.250000 1.456329
V2    V     V_3+5 0.803170 0.739100 0.750000 1.456441
O15   O     O_R   0.808420 0.155070 0.163920 -0.549263
O16   O     O_R   0.191580 0.844930 0.836080 -0.549660
C5    C     C_R   0.977343 0.132854 0.135067 0.652070
C6    C     C_R   0.022578 0.867366 0.864723 0.659380
O17   O     O_R   0.808420 0.155080 0.336070 -0.526838
O18   O     O_R   0.191580 0.844920 0.663930 -0.527300
C7    C     C_R   0.978185 0.135166 0.366190 0.823367
C8    C     C_R   0.021845 0.864583 0.633598 0.823079
V3    V     V_3+5 0.696830 0.239130 0.250000 1.462312
V4    V     V_3+5 0.303170 0.760870 0.750000 1.458689
O19   O     O_3   0.971850 0.308690 0.250010 -0.364697
O20   O     O_3   0.028150 0.691310 0.749990 -0.364242
H1    H     H_    0.035749 0.837434 0.240692 0.134904
H2    H     H_    0.962710 0.162194 0.758899 0.133884
C9    C     C_R   0.969610 0.188552 0.547823 0.349479
C10   C     C_R   0.029723 0.811140 0.451804 0.349354
C11   C     C_R   0.961819 0.210832 0.632695 -0.118244
C12   C     C_R   0.036883 0.788814 0.366909 -0.118361
C13   C     C_R   0.968803 0.143702 0.693342 -0.190740
C14   C     C_R   0.030016 0.855950 0.306262 -0.191104
C15   C     C_R   0.984362 0.052857 0.670339 -0.138517
C16   C     C_R   0.015053 0.946826 0.329302 -0.139144
C17   C     C_R   0.992617 0.026232 0.585081 0.018460
C18   C     C_R   0.007140 0.973455 0.414580 0.018408
C19   C     C_R   0.984113 0.094966 0.521427 0.005515
C20   C     C_R   0.015628 0.904719 0.478235 0.005939
C21   C     C_R   0.009227 0.932204 0.564126 -0.163667
C22   C     C_R   0.990749 0.067489 0.435568 -0.164155
H3    H     H_    0.950669 0.281523 0.652161 0.149324
H4    H     H_    0.047502 0.718099 0.347425 0.148485
H5    H     H_    0.989582 0.003831 0.720903 0.096299
H6    H     H_    0.009892 0.995883 0.278761 0.096134
C23   C     C_R   0.178357 0.975995 0.966642 -0.164747
C24   C     C_R   0.821464 0.024272 0.033058 -0.159673
H7    H     H_    0.318347 0.958294 0.942273 0.118628
H8    H     H_    0.681502 0.041769 0.057572 0.117897
C25   C     C_R   0.167173 0.039279 0.032149 -0.151269
C26   C     C_R   0.832672 0.960889 0.967620 -0.155085
H9    H     H_    0.299156 0.068654 0.055919 0.119632
H10   H     H_    0.700750 0.931280 0.944023 0.117936
C27   C     C_R   0.988539 0.064429 0.066222 -0.040594
C28   C     C_R   0.011267 0.935931 0.933417 -0.044660
C29   C     C_R   0.322039 0.466322 0.474049 -0.125392
C30   C     C_R   0.677926 0.534248 0.525357 -0.124606
H11   H     H_    0.182325 0.441601 0.455195 0.175856
H12   H     H_    0.817635 0.558898 0.544254 0.176425
C31   C     C_R   0.333518 0.527934 0.540820 -0.099212
C32   C     C_R   0.666447 0.472667 0.458547 -0.101026
H13   H     H_    0.202522 0.547135 0.572341 0.166756
H14   H     H_    0.797411 0.453455 0.426984 0.166289
C33   C     C_R   0.511401 0.563604 0.566859 -0.066731
C34   C     C_R   0.488598 0.436833 0.432682 -0.064144
C35   C     C_R   0.323210 0.490266 0.042401 -0.235078
C36   C     C_R   0.680178 0.545480 0.987133 -0.234758
H15   H     H_    0.184877 0.467824 0.062339 0.114223
H16   H     H_    0.818856 0.565995 0.965379 0.114879
C37   C     C_R   0.337759 0.565382 0.987293 0.154556
C38   C     C_R   0.665557 0.492168 0.060762 0.143483
C39   C     C_R   0.513965 0.579192 0.946109 -0.071364
C40   C     C_R   0.488896 0.449394 0.077621 -0.070823
C41   C     C_3   0.183784 0.639812 0.987514 -0.351148
C42   C     C_3   0.262263 0.730767 0.019873 -0.726783
H17   H     H_    0.336523 0.720667 0.081183 0.221673
H18   H     H_    0.364169 0.761438 0.975426 0.215826
H19   H     H_    0.141514 0.779622 0.029070 0.205849
H20   H     H_    0.109580 0.647578 0.926250 0.195333
H21   H     H_    0.070865 0.623717 0.030831 0.156926
C43   C     C_3   0.824668 0.494218 0.126626 -0.349396
C44   C     C_3   0.757124 0.533269 0.210454 -0.690464
H22   H     H_    0.697926 0.603307 0.201285 0.214276
H23   H     H_    0.645656 0.490750 0.239460 0.204607
H24   H     H_    0.880942 0.536908 0.254826 0.204670
H25   H     H_    0.896070 0.426971 0.134094 0.202191
H26   H     H_    0.936810 0.540191 0.108268 0.154643
Cl1   Cl    Cl    0.962687 0.284455 0.481688 -0.738594
Cl2   Cl    Cl    0.036893 0.715340 0.517987 -0.742153

loop_
_geom_bond_atom_site_label_1
_geom_bond_atom_site_label_2
_ccdc_geom_bond_type
C7    C22   S    
C26   C28   A    
V4    O20   S    
C29   H11   S    
C8    C21   S    
O13   V3    S    
O4    C2    A    
V1    O19   S    
C41   C42   S    
C13   C15   A    
O9    V1    S    
C36   H16   S    
C30   C32   A    
C9    C11   A    
O3    C1    A    
V2    O20   S    
C38   C40   A    
C25   H9    S    
O12   V4    S    
C30   C33   A    
O7    C3    A    
C43   H25   S    
O7    V1    S    
O6    C8    A    
O8    V2    S    
O3    V1    S    
O14   V4    S    
C44   H23   S    
C31   C33   A    
C41   H20   S    
C37   C39   A    
C3    C40   S    
C2    O12   A    
O5    C7    A    
V3    O19   S    
C15   C17   A    
C16   C18   A    
C18   C20   A    
O11   V3    S    
C26   H10   S    
C24   H8    S    
C23   H7    S    
O17   V3    S    
C29   C31   A    
H1    C14   S    
H2    C13   S    
O8    C4    A    
C1    C34   S    
C23   C25   A    
C1    O11   A    
O15   V3    S    
C31   H13   S    
C30   H12   S    
C11   H3    S    
C23   C28   A    
C10   Cl2   S    
C37   C41   S    
C32   C34   A    
O10   V2    S    
O1    V3    S    
C4    C39   S    
C43   C44   S    
C44   H24   S    
C10   C20   A    
C17   C19   A    
C41   H21   S    
O5    V1    S    
O18   V4    S    
C42   H18   S    
C36   C39   A    
O15   C5    A    
O16   C6    A    
O1    C3    A    
C35   H15   S    
C9    C19   A    
C24   C26   A    
C19   C22   A    
C38   C43   S    
C20   C21   A    
C2    C33   S    
C6    C28   S    
O16   V4    S    
C14   C16   A    
C25   C27   A    
C12   H4    S    
C24   C27   A    
C9    Cl1   S    
O17   C7    A    
C42   H19   S    
O6    V2    S    
O10   C6    A    
O18   C8    A    
O2    V4    S    
C10   C12   A    
C11   C13   A    
C12   C14   A    
O9    C5    A    
O13   V1    S    
C35   C40   A    
O14   V2    S    
O2    C4    A    
O4    V2    S    
C5    C27   S    
C29   C34   A    
C32   H14   S    
C42   H17   S    
C36   C38   A    
C43   H26   S    
C35   C37   A    
C44   H22   S    
C17   C21   A    
C15   H5    S    
C18   C22   A    
C16   H6    S    
