data_mof_unit_61763.cif
_audit_creation_date              2012-12-10T20:48:25-0500
_audit_creation_method            fapswitch 2.2
_symmetry_space_group_name_H-M    P1
_symmetry_Int_Tables_number       1
_space_group_crystal_system       triclinic
_cell_length_a                    16.052624
_cell_length_b                    19.173938
_cell_length_c                    19.213425
_cell_angle_alpha                 95.242232
_cell_angle_beta                  95.180045
_cell_angle_gamma                 90.553623
_cell_volume                      5863.99573243

loop_
_atom_site_label
_atom_site_type_symbol
_atom_type_description
_atom_site_fract_x
_atom_site_fract_y
_atom_site_fract_z
_atom_type_partial_charge
C1    C     C_R   0.508457 0.310620 0.492281 0.922205
C2    C     C_R   0.402446 0.795534 0.499201 0.308269
C3    C     C_R   0.428420 0.124060 0.484025 -0.060827
C4    C     C_R   0.490706 0.689200 0.507069 0.929493
C5    C     C_R   0.431864 0.197560 0.491095 -0.140923
C6    C     C_R   0.503009 0.085734 0.481344 0.150983
C7    C     C_R   0.508551 0.233532 0.488590 -0.196533
C8    C     C_R   0.582246 0.195550 0.477589 0.379565
C9    C     C_R   0.579075 0.121575 0.476055 -0.173992
C10   C     C_R   0.491197 0.484518 0.232598 -0.157887
C11   C     C_R   0.503062 0.546189 0.200514 -0.253112
C12   C     C_1   0.111105 0.483716 0.483418 0.146929
C13   C     C_R   0.498425 0.545286 0.127990 -0.143198
C14   C     C_R   0.479373 0.482781 0.085454 0.210433
C15   C     C_R   0.465755 0.420521 0.116541 -0.159184
C16   C     C_R   0.508547 0.508225 0.690013 0.781180
C17   C     C_R   0.476676 0.419749 0.190455 0.375619
C18   C     C_R   0.441656 0.507297 0.873583 -0.184413
C19   C     C_R   0.437790 0.504719 0.800478 -0.059420
C20   C     C_R   0.518751 0.517935 0.914432 0.288280
C21   C     C_R   0.511864 0.512210 0.767109 -0.077832
C22   C     C_R   0.589002 0.524013 0.808384 -0.049063
C23   C     C_1   0.888666 0.518542 0.519096 -0.029895
C24   C     C_R   0.591494 0.527679 0.881530 -0.200857
C25   C     C_R   0.492834 0.490353 0.309780 0.901051
C26   C     C_R   0.723959 0.509881 0.509931 0.854751
C27   C     C_R   0.275779 0.490057 0.490021 0.821470
C28   C     C_1   0.813433 0.514463 0.514732 -0.068584
C29   C     C_2   0.978621 0.523692 0.524597 0.473665
C30   C     C_2   0.021091 0.481449 0.481159 -0.316988
C31   C     C_1   0.635906 0.778327 0.539758 0.240460
C32   C     C_1   0.357346 0.492160 0.760788 0.218791
C33   C     C_1   0.440492 0.358014 0.071293 0.360825
C34   C     C_1   0.186320 0.486228 0.486026 -0.068005
C35   C     C_1   0.666156 0.534306 0.776996 0.212681
C36   C     C_1   0.355725 0.236292 0.501194 0.226688
C37   C     C_1   0.347232 0.089506 0.472516 0.315483
C38   C     C_1   0.618943 0.926105 0.558243 0.266757
C39   C     C_1   0.653836 0.081047 0.468696 0.379286
C40   C     C_R   0.482746 0.765774 0.508687 -0.246632
C41   C     C_R   0.554302 0.809054 0.526507 -0.147162
C42   C     C_R   0.546439 0.882171 0.533220 -0.095252
C43   C     C_R   0.466825 0.912423 0.522813 0.098197
C44   C     C_R   0.394347 0.868906 0.513761 0.309841
H1    H     H_    0.987560 0.443874 0.442584 0.152507
H2    H     H_    0.791540 0.216644 0.416276 0.394898
H3    H     H_    0.384539 0.501172 0.898702 0.167149
H4    H     H_    0.507416 0.593937 0.104873 0.176435
H5    H     H_    0.650615 0.536895 0.913254 0.163313
H6    H     H_    0.514937 0.595807 0.231811 0.196532
H7    H     H_    0.498977 0.229186 0.197708 0.398002
H8    H     H_    0.990106 0.661222 0.669629 0.397257
H9    H     H_    0.180696 0.871994 0.566132 0.397431
H10   H     H_    0.233195 0.669415 0.509157 0.397826
N1    N     N_2   0.459085 0.986437 0.522533 -0.091041
N2    N     N_1   0.281219 0.063959 0.462365 -0.062113
N3    N     N_1   0.676915 0.960721 0.579047 -0.160300
N4    N     N_1   0.713555 0.048562 0.462470 -0.120435
N5    N     N_2   0.504136 0.011221 0.480709 -0.163296
N6    N     N_2   0.472398 0.481471 0.011147 -0.176394
N7    N     N_2   0.525239 0.519747 0.988686 -0.168280
N8    N     N_1   0.700910 0.753814 0.550317 -0.154300
N9    N     N_1   0.292953 0.482118 0.728983 -0.128950
N10   N     N_1   0.420073 0.308269 0.034764 -0.130177
N11   N     N_1   0.727922 0.542554 0.751825 -0.146840
N12   N     N_1   0.295167 0.267114 0.509247 -0.170991
O1    O     O_3   0.500000 0.500000 0.500000 -0.526716
O2    O     O_R   0.688130 0.469010 0.547620 -0.601407
O3    O     O_R   0.315580 0.449250 0.449280 -0.634579
O4    O     O_R   0.680710 0.547310 0.468650 -0.636616
O5    O     O_R   0.315580 0.534430 0.534450 -0.602188
O6    O     O_2   0.539996 0.341870 0.292629 -0.269424
O7    O     O_2   0.391896 0.323742 0.250432 -0.270327
O8    O     O_3   0.504230 0.271661 0.172582 -0.538559
O9    O     O_2   0.090155 0.550035 0.636322 -0.270313
O10   O     O_2   0.074858 0.639055 0.552450 -0.271467
O11   O     O_3   0.957442 0.627044 0.635781 -0.526495
O12   O     O_R   0.456860 0.545290 0.655940 -0.632565
O13   O     O_2   0.306695 0.972890 0.575725 -0.287309
O14   O     O_2   0.251504 0.921189 0.458871 -0.241525
O15   O     O_3   0.236520 0.850422 0.566247 -0.448096
O16   O     O_2   0.248758 0.780466 0.425334 -0.189978
O17   O     O_2   0.342194 0.681751 0.415274 -0.356897
O18   O     O_3   0.272958 0.706317 0.531689 -0.451109
O19   O     O_2   0.659494 0.305398 0.428400 -0.286128
O20   O     O_2   0.723788 0.260169 0.535309 -0.274348
O21   O     O_3   0.738623 0.189440 0.415417 -0.534838
O22   O     O_R   0.446440 0.450430 0.339790 -0.572659
O23   O     O_R   0.557290 0.347960 0.537250 -0.597798
O24   O     O_R   0.539410 0.656320 0.467010 -0.637265
O25   O     O_R   0.456880 0.340240 0.450910 -0.608986
O26   O     O_R   0.446420 0.655480 0.544820 -0.592911
O27   O     O_R   0.557280 0.467820 0.657110 -0.636313
O28   O     O_R   0.539420 0.536460 0.347160 -0.642577
S1    S     S_3+6 0.477689 0.338262 0.229027 0.052879
S2    S     S_3+6 0.028855 0.586187 0.588490 0.068868
S3    S     S_3+6 0.295597 0.906144 0.528088 0.103033
S4    S     S_3+6 0.314559 0.740522 0.464805 0.101379
S5    S     S_3+6 0.677393 0.240229 0.464700 0.052016
Zn1   Zn    Zn3+2 0.430910 0.557800 0.557800 1.055292
Zn2   Zn    Zn3+2 0.574380 0.447110 0.559460 1.060109
Zn3   Zn    Zn3+2 0.563780 0.559000 0.446630 1.039057
Zn4   Zn    Zn3+2 0.430930 0.436090 0.436110 1.095384

loop_
_geom_bond_atom_site_label_1
_geom_bond_atom_site_label_2
_ccdc_geom_bond_type
C16   C21   S    
N1    N5    D    
O14   S3    D    
C41   C42   A    
C30   H1    S    
H7    O8    S    
C3    C6    A    
C18   H3    S    
C6    C9    A    
H10   O18   S    
O1    Zn4   S    
C7    C8    A    
C22   C35   S    
C3    C37   S    
O26   Zn1   S    
C16   O27   A    
C23   C29   S    
C19   C21   A    
C8    S5    S    
C38   C42   S    
C36   N12   T    
C35   N11   T    
C10   C17   A    
C5    C36   S    
C9    C39   S    
C18   C20   A    
H9    O15   S    
C18   C19   A    
C20   N7    S    
O24   Zn3   S    
O6    S1    D    
C4    C40   S    
C2    C44   A    
C8    C9    A    
O17   S4    D    
C17   S1    S    
C4    O24   A    
C27   O3    A    
C12   C30   S    
C25   O28   A    
C1    O25   A    
C13   C14   A    
O16   S4    D    
C31   N8    T    
C19   C32   S    
O8    S1    S    
O9    S2    D    
O21   S5    S    
O3    Zn4   S    
C27   C34   S    
C20   C24   A    
O2    Zn2   S    
O27   Zn2   S    
C5    C7    A    
C39   N4    T    
C25   O22   A    
N6    N7    D    
C43   C44   A    
C29   C30   D    
O19   S5    D    
C13   H4    S    
C38   N3    T    
C44   S3    S    
C23   C28   T    
O20   S5    D    
C2    S4    S    
O1    Zn1   S    
C10   C25   S    
C43   N1    S    
C40   C41   A    
O12   Zn1   S    
C26   O4    A    
C22   C24   A    
C42   C43   A    
O7    S1    D    
C12   C34   T    
H8    O11   S    
O22   Zn4   S    
C27   O5    A    
O1    Zn2   S    
H2    O21   S    
C24   H5    S    
C15   C17   A    
C1    O23   A    
C31   C41   S    
O23   Zn2   S    
C1    C7    S    
C6    N5    S    
O13   S3    D    
C32   N9    T    
O25   Zn4   S    
C3    C5    A    
C29   S2    S    
O4    Zn3   S    
C14   N6    S    
O5    Zn1   S    
O11   S2    S    
C26   C28   S    
O18   S4    S    
C26   O2    A    
C11   H6    S    
O10   S2    D    
C11   C13   A    
O15   S3    S    
C33   N10   T    
C16   O12   A    
C10   C11   A    
C2    C40   A    
O28   Zn3   S    
C37   N2    T    
C14   C15   A    
C21   C22   A    
C15   C33   S    
O1    Zn3   S    
C4    O26   A    
