data_mof_unit_36929.cif
_audit_creation_date              2012-12-10T19:44:26-0500
_audit_creation_method            fapswitch 2.2
_symmetry_space_group_name_H-M    P1
_symmetry_Int_Tables_number       1
_space_group_crystal_system       triclinic
_cell_length_a                    10.94428
_cell_length_b                    12.502487
_cell_length_c                    13.459379
_cell_angle_alpha                 117.437854
_cell_angle_beta                  75.523223
_cell_angle_gamma                 99.763862
_cell_volume                      1579.42004568

loop_
_atom_site_label
_atom_site_type_symbol
_atom_type_description
_atom_site_fract_x
_atom_site_fract_y
_atom_site_fract_z
_atom_type_partial_charge
C1    C     C_R   0.512305 0.855442 0.286295 0.901236
C2    C     C_R   0.703938 0.688632 0.683792 -0.135440
C3    C     C_R   0.041192 0.926443 0.538810 -0.179017
C4    C     C_R   0.127040 0.011121 0.513687 -0.066859
C5    C     C_R   0.081071 0.093127 0.489612 -0.058164
C6    C     C_R   0.961887 0.070077 0.462494 -0.066319
C7    C     C_R   0.871184 0.994524 0.499115 -0.104952
C8    C     C_R   0.912800 0.922163 0.539482 0.010397
C9    C     C_R   0.087760 0.312986 0.607304 -0.102859
C10   C     C_R   0.110934 0.429173 0.614277 -0.111922
C11   C     C_R   0.188470 0.447288 0.523453 -0.108544
C12   C     C_R   0.736939 0.998088 0.499495 0.815700
C13   C     C_R   0.246414 0.350243 0.427643 -0.112948
C14   C     C_R   0.220764 0.232585 0.418002 -0.008778
C15   C     C_R   0.141741 0.213878 0.508879 0.050290
C16   C     C_R   0.424619 0.281603 0.036260 0.292201
C17   C     C_R   0.480604 0.229836 0.834538 -0.147963
C18   C     C_R   0.603299 0.811618 0.079623 0.276660
C19   C     C_R   0.662795 0.727169 0.975044 -0.222303
C20   C     C_R   0.639624 0.604387 0.943856 -0.033024
C21   C     C_R   0.540172 0.563726 0.011669 0.024518
C22   C     C_R   0.481677 0.650182 0.120977 -0.063964
C23   C     C_R   0.486117 0.145047 0.712723 0.787006
C24   C     C_R   0.499243 0.440139 0.977715 -0.000364
C25   C     C_R   0.429636 0.403726 0.060799 -0.025982
C26   C     C_R   0.355262 0.487515 0.158420 0.233778
C27   C     C_R   0.375554 0.610535 0.183723 0.234096
C28   C     C_R   0.514134 0.353043 0.863380 -0.176977
C29   C     C_R   0.445739 0.193391 0.923104 -0.098818
C30   C     C_R   0.526068 0.773766 0.160806 -0.103331
C31   C     C_R   0.676175 0.319886 0.305043 -0.176376
C32   C     C_R   0.344544 0.775556 0.660782 0.092985
C33   C     C_R   0.337212 0.701653 0.713172 -0.244504
C34   C     C_R   0.262340 0.005748 0.506876 0.822693
C35   C     C_R   0.407481 0.600500 0.658577 -0.178998
C36   C     C_R   0.474937 0.562804 0.544612 -0.042811
C37   C     C_R   0.494258 0.649611 0.499407 0.240188
C38   C     C_R   0.531286 0.447356 0.477832 -0.085454
C39   C     C_R   0.608749 0.423947 0.369608 0.085109
C40   C     C_R   0.623023 0.504772 0.325037 -0.222002
C41   C     C_R   0.581757 0.619804 0.390736 0.246837
C42   C     C_R   0.509798 0.348697 0.506858 0.103243
C43   C     C_R   0.659316 0.232971 0.343015 0.149614
C44   C     C_R   0.683599 0.811768 0.739066 -0.109901
C45   C     C_R   0.746846 0.887879 0.689711 -0.090929
C46   C     C_R   0.830194 0.840441 0.583694 0.132303
C47   C     C_R   0.850252 0.716310 0.528919 -0.104836
C48   C     C_R   0.786926 0.640819 0.578685 -0.136146
Cu1   Cu    Cu3+1 0.529370 0.098270 0.475420 0.998119
Cu2   Cu    Cu3+1 0.470630 0.901730 0.524580 0.998079
H1    H     H_    0.654853 0.630017 0.722137 0.139501
H2    H     H_    0.205077 0.536935 0.527640 0.168437
H3    H     H_    0.310316 0.368284 0.361701 0.211690
H4    H     H_    0.542599 0.382156 0.796489 0.175580
H5    H     H_    0.732060 0.758245 0.919201 0.172882
H6    H     H_    0.620768 0.848347 0.821291 0.187153
H7    H     H_    0.708780 0.151401 0.294035 0.186489
H8    H     H_    0.680732 0.480456 0.239945 0.201275
H9    H     H_    0.740100 0.304928 0.224575 0.178036
H10   H     H_    0.293707 0.857012 0.704925 0.137145
H11   H     H_    0.411468 0.557886 0.710736 0.160039
H12   H     H_    0.281521 0.725615 0.798371 0.176189
H13   H     H_    0.733372 0.983827 0.735115 0.125826
H14   H     H_    0.916788 0.678609 0.448631 0.193917
H15   H     H_    0.802875 0.545438 0.536203 0.162860
H16   H     H_    0.072968 0.866011 0.563296 0.170413
H17   H     H_    0.022052 0.298970 0.675871 0.154676
H18   H     H_    0.067138 0.504706 0.689060 0.159155
N1    N     N_R   0.573890 0.246290 0.438210 -0.228057
N2    N     N_R   0.426890 0.754320 0.561170 -0.203030
O1    O     O_R   0.536940 0.972510 0.318130 -0.549044
O2    O     O_R   0.487330 0.806530 0.359650 -0.535510
O3    O     O_R   0.705160 0.082990 0.479250 -0.588212
O4    O     O_R   0.655550 0.917010 0.520760 -0.544829
O5    O     O_R   0.512670 0.193470 0.640350 -0.582156
O6    O     O_R   0.463060 0.027490 0.681870 -0.603553
O7    O     O_R   0.344450 0.082990 0.479240 -0.588220
O8    O     O_R   0.294840 0.917010 0.520750 -0.573615
C49   C     C_1   0.266371 0.129771 0.313160 0.378784
N3    N     N_1   0.300942 0.045247 0.230447 -0.170195
C50   C     C_1   0.430781 0.068268 0.902258 0.372195
N4    N     N_1   0.418108 0.968889 0.888123 -0.278117
Br1   Br    Br    0.201056 0.430987 0.231553 -0.473191
Br2   Br    Br    0.441146 0.241257 0.151845 -0.532556
Br3   Br    Br    0.631538 0.974988 0.099463 -0.504154
C51   C     C_1   0.727040 0.525424 0.847478 0.218462
N5    N     N_1   0.797195 0.462549 0.770317 -0.310907
Br4   Br    Br    0.240146 0.715934 0.279170 -0.464118
C52   C     C_1   0.412600 0.345946 0.600051 0.297763
N6    N     N_1   0.335153 0.343946 0.675764 -0.304127
Br5   Br    Br    0.706988 0.711732 0.326377 -0.525582
C53   C     C_1   0.939185 0.124411 0.394247 0.323632
N7    N     N_1   0.924837 0.168433 0.339298 -0.267490

loop_
_geom_bond_atom_site_label_1
_geom_bond_atom_site_label_2
_ccdc_geom_bond_type
C26   Br1   S    
C12   O4    A    
C17   C29   A    
C35   C36   A    
C23   O6    A    
C50   N4    T    
C7    C8    A    
C45   C46   A    
C26   C27   A    
C17   C23   S    
C31   C43   A    
C21   C22   A    
C36   C37   A    
C38   C42   A    
Cu2   O4    S    
C34   O7    A    
C5    C6    A    
C16   Br2   S    
C18   C19   A    
C31   H9    S    
Cu2   O2    S    
C53   N7    T    
C11   H2    S    
C19   C20   A    
C2    C44   A    
C33   H12   S    
C20   C51   S    
Cu1   O5    S    
C18   C30   A    
C13   C14   A    
C48   H15   S    
C9    C10   A    
C43   N1    A    
Cu1   N1    S    
C37   N2    A    
C37   C41   A    
Cu2   O8    S    
C25   C26   A    
C13   H3    S    
C7    C12   S    
C4    C34   S    
C1    O2    A    
C40   H8    S    
C18   Br3   S    
C24   C25   A    
C3    C8    A    
C10   C11   A    
C47   H14   S    
C28   H4    S    
C51   N5    T    
C32   N2    A    
C2    C48   A    
C16   C29   A    
C45   H13   S    
C42   N1    A    
C9    H17   S    
C29   C50   S    
Cu2   O6    S    
C44   H6    S    
C47   C48   A    
C35   H11   S    
C1    O1    A    
C14   C49   S    
C40   C41   A    
C41   Br5   S    
C22   C27   A    
Cu1   O3    S    
C3    H16   S    
C32   H10   S    
C3    C4    A    
C39   C40   A    
C44   C45   A    
C19   H5    S    
C16   C25   A    
C46   C47   A    
C22   C30   A    
C17   C28   A    
C24   C28   A    
C23   O5    A    
C4    C5    A    
C6    C7    A    
C10   H18   S    
C42   C52   S    
C32   C33   A    
C36   C38   A    
C9    C15   A    
C34   O8    A    
C11   C13   A    
C38   C39   A    
C6    C53   S    
C1    C30   S    
C33   C35   A    
Cu1   O7    S    
Cu2   N2    S    
C27   Br4   S    
C8    C46   S    
C5    C15   S    
C2    H1    S    
C43   H7    S    
C49   N3    T    
C20   C21   A    
Cu1   Cu2   S    
Cu1   O1    S    
C21   C24   A    
C31   C39   A    
C14   C15   A    
C52   N6    T    
C12   O3    A    
