data_mof_unit_52706.cif
_audit_creation_date              2012-10-26T20:19:32-0400
_audit_creation_method            fapswitch 2.2
_symmetry_space_group_name_H-M    P1
_symmetry_Int_Tables_number       1
_space_group_crystal_system       triclinic
_cell_length_a                    10.93273
_cell_length_b                    10.867878
_cell_length_c                    9.627775
_cell_angle_alpha                 92.852898
_cell_angle_beta                  92.480343
_cell_angle_gamma                 93.334135
_cell_volume                      1139.35443074

loop_
_atom_site_label
_atom_site_type_symbol
_atom_type_description
_atom_site_fract_x
_atom_site_fract_y
_atom_site_fract_z
_atom_type_partial_charge
C1    C     C_R   0.499595 0.262015 0.497703 0.550467
C2    C     C_R   0.548021 0.066722 0.608327 -0.010250
C3    C     C_R   0.492007 0.126318 0.496071 0.008851
C4    C     C_R   0.260107 0.498985 0.497485 0.543249
C5    C     C_R   0.400453 0.058007 0.410005 -0.015721
C6    C     C_R   0.393882 0.927489 0.407684 -0.041166
C7    C     C_R   0.462641 0.869311 0.511514 -0.024258
C8    C     C_R   0.661053 0.669871 0.159958 -0.043738
C9    C     C_R   0.730067 0.760911 0.095827 0.220323
C10   C     C_R   0.721811 0.764498 0.952620 -0.064969
C11   C     C_R   0.650999 0.674277 0.873430 -0.125680
C12   C     C_3   0.878588 0.492708 0.505822 -0.082899
C13   C     C_R   0.576536 0.584299 0.933957 0.142360
C14   C     C_R   0.578902 0.583046 0.083038 0.162811
C15   C     C_R   0.423114 0.423303 0.065156 0.089815
C16   C     C_R   0.485977 0.736235 0.502792 0.565910
C17   C     C_R   0.424366 0.421863 0.917688 0.052683
C18   C     C_R   0.739967 0.496968 0.502306 0.487181
C19   C     C_3   0.083611 0.528801 0.649595 -0.102488
C20   C     C_3   0.939576 0.513852 0.661018 -0.037360
C21   C     C_3   0.069125 0.594863 0.398238 -0.109219
C22   C     C_3   0.064697 0.367085 0.450913 -0.178479
C23   C     C_3   0.930548 0.602437 0.421075 -0.244952
C24   C     C_3   0.122031 0.498041 0.496043 -0.082183
C25   C     C_2   0.142080 0.654414 0.705842 0.304691
C26   C     C_2   0.091253 0.577253 0.243554 0.409217
C27   C     C_2   0.298246 0.120398 0.342274 0.249524
C28   C     C_2   0.306179 0.857717 0.304702 0.299907
C29   C     C_2   0.901054 0.408009 0.753276 0.273250
C30   C     C_2   0.897163 0.628512 0.737077 0.198192
C31   C     C_2   0.862406 0.254312 0.504107 0.314468
C32   C     C_3   0.920265 0.365083 0.435087 0.184652
C33   C     C_R   0.620681 0.130964 0.717183 -0.104433
C34   C     C_R   0.614704 0.092271 0.852312 -0.064259
C35   C     C_R   0.542176 0.986726 0.876638 0.250013
C36   C     C_R   0.499518 0.906829 0.764775 -0.088702
C37   C     C_R   0.510545 0.943326 0.627313 -0.053374
Cu1   Cu    Cu3+1 0.499990 0.499990 0.640660 0.941851
Cu2   Cu    Cu3+1 0.500010 0.500010 0.359340 1.110328
H1    H     H_    0.878107 0.610752 0.321955 0.211999
H2    H     H_    0.361870 0.357846 0.856169 0.152661
H3    H     H_    0.114220 0.686562 0.429724 0.113339
H4    H     H_    0.917382 0.692053 0.476493 0.136048
H5    H     H_    0.105142 0.330609 0.355112 0.221517
H6    H     H_    0.095852 0.304387 0.531258 0.145022
H7    H     H_    0.119746 0.738714 0.657371 0.107828
H8    H     H_    0.824546 0.424038 0.062918 0.371302
H9    H     H_    0.066062 0.648469 0.175019 0.203313
H10   H     H_    0.204651 0.096658 0.368980 0.124000
H11   H     H_    0.585323 0.001238 0.231726 0.361300
H12   H     H_    0.667805 0.219209 0.704749 0.131732
H13   H     H_    0.248774 0.905800 0.233569 0.192599
H14   H     H_    0.713373 0.892023 0.371532 0.325368
H15   H     H_    0.806852 0.396500 0.783227 0.120410
H16   H     H_    0.845793 0.695368 0.683363 0.096480
H17   H     H_    0.764140 0.247626 0.512392 0.099432
H18   H     H_    0.653888 0.152338 0.937942 0.201396
H19   H     H_    0.442435 0.826066 0.786410 0.207255
H20   H     H_    0.357777 0.362784 0.112309 0.212434
H21   H     H_    0.125907 0.460952 0.716367 0.221835
H22   H     H_    0.673365 0.673220 0.269695 0.173170
H23   H     H_    0.774770 0.834610 0.901023 0.176853
H24   H     H_    0.658517 0.676830 0.764573 0.177371
N1    N     N_R   0.501200 0.501210 0.147910 -0.234707
N2    N     N_R   0.501250 0.501290 0.852040 -0.250766
O1    O     O_R   0.499990 0.319640 0.618810 -0.543081
O2    O     O_2   0.946406 0.238106 0.187598 -0.166824
O3    O     O_2   0.737885 0.277634 0.245774 -0.249299
O4    O     O_3   0.869897 0.453977 0.150536 -0.528418
O5    O     O_2   0.136212 0.486376 0.192516 -0.420366
O6    O     O_2   0.316279 0.192505 0.251794 -0.434558
O7    O     O_2   0.350426 0.017017 0.026909 -0.220301
O8    O     O_2   0.469196 0.839172 0.073061 -0.317213
O9    O     O_3   0.560722 0.059252 0.161348 -0.460026
O10   O     O_2   0.296257 0.745797 0.295376 -0.482399
O11   O     O_2   0.958016 0.843254 0.174319 -0.254636
O12   O     O_R   0.500000 0.319660 0.381240 -0.416025
O13   O     O_2   0.808926 0.997742 0.141365 -0.186289
O14   O     O_3   0.800108 0.872076 0.364553 -0.535789
O15   O     O_2   0.973095 0.336120 0.798096 -0.446730
O16   O     O_2   0.927914 0.650576 0.859877 -0.462246
O17   O     O_2   0.921261 0.168933 0.542328 -0.449652
O18   O     O_R   0.317680 0.499970 0.618790 -0.500390
O19   O     O_R   0.317700 0.499990 0.381210 -0.423036
O20   O     O_R   0.500000 0.680340 0.618760 -0.542601
O21   O     O_R   0.500010 0.680360 0.381190 -0.469062
O22   O     O_R   0.682300 0.500010 0.618790 -0.573535
O23   O     O_R   0.682320 0.500030 0.381210 -0.480447
O24   O     O_2   0.212028 0.661697 0.808780 -0.418831
S1    S     S_3+6 0.867678 0.332514 0.251728 0.060070
S2    S     S_3+6 0.477685 0.972272 0.038069 0.010106
S3    S     S_3+6 0.827075 0.871935 0.193765 0.026773

loop_
_geom_bond_atom_site_label_1
_geom_bond_atom_site_label_2
_ccdc_geom_bond_type
C21   C26   S    
C6    C28   S    
Cu1   O18   S    
C28   H13   S    
C19   C20   S    
C28   O10   D    
C13   N2    A    
Cu2   N1    S    
C29   O15   D    
C12   C23   S    
C31   O17   D    
C22   C32   S    
Cu2   O12   S    
C36   C37   A    
H14   O14   S    
Cu2   O19   S    
C36   H19   S    
H11   O9    S    
Cu1   Cu2   S    
C4    C24   S    
C29   H15   S    
C23   H1    S    
C23   H4    S    
C34   C35   A    
H8    O4    S    
C5    C27   S    
C32   S1    S    
C35   C36   A    
C8    C9    A    
C34   H18   S    
O3    S1    D    
C15   N1    A    
C31   H17   S    
C9    C10   A    
C26   H9    S    
C8    H22   S    
C13   C14   A    
C12   C32   S    
C16   O21   A    
C10   H23   S    
C15   H20   S    
Cu2   O23   S    
C9    S3    S    
C1    O1    A    
C20   C29   S    
C22   H5    S    
Cu1   O20   S    
Cu1   O1    S    
O8    S2    D    
O7    S2    D    
C20   C30   S    
O13   S3    D    
O2    S1    D    
C18   O23   A    
C1    C3    S    
O9    S2    S    
C31   C32   S    
C4    O19   A    
Cu1   N2    S    
C14   N1    A    
C12   C20   S    
C33   C34   A    
C7    C37   A    
O14   S3    S    
O11   S3    D    
C2    C33   A    
C7    C16   S    
C21   C23   S    
C16   O20   A    
C26   O5    D    
C22   C24   S    
O4    S1    S    
C27   O6    D    
C15   C17   A    
C8    C14   A    
C25   O24   D    
C3    C5    A    
C6    C7    A    
C19   H21   S    
C33   H12   S    
C30   H16   S    
C17   N2    A    
C18   O22   A    
Cu1   O22   S    
C30   O16   D    
C2    C3    A    
C11   C13   A    
C2    C37   A    
C5    C6    A    
C4    O18   A    
C19   C24   S    
C19   C25   S    
C17   H2    S    
C10   C11   A    
C21   H3    S    
C22   H6    S    
C21   C24   S    
C12   C18   S    
C1    O12   A    
Cu2   O21   S    
C11   H24   S    
C25   H7    S    
C27   H10   S    
C35   S2    S    
