data_mof_unit_59156.cif
_audit_creation_date              2012-12-11T15:33:50-0500
_audit_creation_method            fapswitch 2.2
_symmetry_space_group_name_H-M    P1
_symmetry_Int_Tables_number       1
_space_group_crystal_system       triclinic
_cell_length_a                    27.091305
_cell_length_b                    7.199674
_cell_length_c                    22.741618
_cell_angle_alpha                 90.425031
_cell_angle_beta                  101.23702
_cell_angle_gamma                 90.46634
_cell_volume                      4350.3573114

loop_
_atom_site_label
_atom_site_type_symbol
_atom_type_description
_atom_site_fract_x
_atom_site_fract_y
_atom_site_fract_z
_atom_type_partial_charge
O1    O     O_R   0.207310 0.594030 0.676830 -0.532080
O2    O     O_R   0.792690 0.405970 0.323170 -0.532240
O3    O     O_R   0.292690 0.094030 0.823170 -0.535062
O4    O     O_R   0.707310 0.905970 0.176830 -0.529319
O5    O     O_R   0.197320 0.262370 0.795700 -0.539040
O6    O     O_R   0.802680 0.737630 0.204300 -0.539832
O7    O     O_R   0.302680 0.762370 0.704300 -0.538786
O8    O     O_R   0.697320 0.237630 0.295700 -0.540532
C1    C     C_R   0.184639 0.432416 0.811942 0.674815
C2    C     C_R   0.815361 0.567587 0.188057 0.674402
C3    C     C_R   0.315383 0.932616 0.688133 0.679525
C4    C     C_R   0.684639 0.067383 0.311896 0.676519
O9    O     O_R   0.201410 0.264250 0.675590 -0.529470
O10   O     O_R   0.798590 0.735750 0.324410 -0.530139
O11   O     O_R   0.298590 0.764250 0.824410 -0.531302
O12   O     O_R   0.701410 0.235750 0.175590 -0.534548
O13   O     O_R   0.296810 0.094940 0.702210 -0.540397
O14   O     O_R   0.703190 0.905060 0.297790 -0.537768
O15   O     O_R   0.203190 0.594940 0.797790 -0.539310
O16   O     O_R   0.796810 0.405060 0.202210 -0.539178
C5    C     C_R   0.189920 0.430999 0.653117 0.689311
C6    C     C_R   0.810079 0.569001 0.346883 0.687906
C7    C     C_R   0.310211 0.933365 0.846617 0.692936
C8    C     C_R   0.689730 0.066202 0.153458 0.690653
O17   O     O_3   0.281300 0.427390 0.758870 -0.372734
O18   O     O_3   0.718700 0.572610 0.241130 -0.369338
O19   O     O_3   0.218700 0.927390 0.741130 -0.368529
O20   O     O_3   0.781300 0.072610 0.258870 -0.369553
V1    V     V_3+5 0.244190 0.152150 0.748350 1.436669
V2    V     V_3+5 0.755810 0.847850 0.251650 1.447127
V3    V     V_3+5 0.255810 0.652150 0.751650 1.433555
V4    V     V_3+5 0.744190 0.347850 0.248350 1.434683
C9    C     C_R   0.655293 0.053330 0.094693 -0.041608
C10   C     C_R   0.344910 0.938158 0.905349 -0.045714
C11   C     C_R   0.845072 0.572566 0.405607 -0.048715
C12   C     C_R   0.154927 0.427434 0.594393 -0.049041
C13   C     C_R   0.643708 0.032439 0.986872 -0.145976
C14   C     C_R   0.360158 0.860393 0.010393 -0.147800
C15   C     C_R   0.868679 0.728783 0.501626 -0.142350
C16   C     C_R   0.131319 0.271215 0.498375 -0.142436
C17   C     C_R   0.675261 0.054158 0.042647 -0.166332
C18   C     C_R   0.327121 0.880010 0.955820 -0.163568
C19   C     C_R   0.832505 0.682025 0.451418 -0.148218
C20   C     C_R   0.167494 0.317974 0.548582 -0.148411
C21   C     C_R   0.603116 0.029497 0.090409 -0.191422
C22   C     C_R   0.396620 0.975474 0.910018 -0.198424
C23   C     C_R   0.893841 0.498659 0.412893 -0.181858
C24   C     C_R   0.106158 0.501341 0.587108 -0.181757
C25   C     C_R   0.570569 0.990345 0.034374 0.078869
C26   C     C_R   0.431976 0.937410 0.963716 0.079135
C27   C     C_R   0.930703 0.534064 0.465980 0.078533
C28   C     C_R   0.069296 0.465935 0.534020 0.078515
C29   C     C_R   0.591805 0.001528 0.982298 0.125268
C30   C     C_R   0.412136 0.887873 0.014738 0.126778
C31   C     C_R   0.918024 0.663549 0.507706 0.131371
C32   C     C_R   0.081974 0.336448 0.492294 0.131454
C33   C     C_R   0.517780 0.945187 0.027897 0.000961
C34   C     C_R   0.485920 0.948592 0.969059 0.000188
C35   C     C_R   0.980836 0.459186 0.476772 0.000617
C36   C     C_R   0.019163 0.540812 0.523228 0.000590
C37   C     C_R   0.509925 0.947838 0.918441 -0.045075
C38   C     C_R   0.495958 0.882598 0.076600 -0.045631
C39   C     C_R   0.005699 0.695325 0.556116 -0.049718
C40   C     C_R   0.994300 0.304672 0.443885 -0.049672
C41   C     C_R   0.561712 0.975996 0.925806 -0.223246
C42   C     C_R   0.444114 0.857790 0.069481 -0.225302
C43   C     C_R   0.955393 0.742047 0.551811 -0.220968
C44   C     C_R   0.044605 0.257950 0.448190 -0.221106
H1    H     H_    0.407918 0.035450 0.871411 0.123409
H2    H     H_    0.588915 0.048049 0.131109 0.119928
H3    H     H_    0.096450 0.568764 0.625726 0.120663
H4    H     H_    0.903549 0.431236 0.374274 0.120566
H5    H     H_    0.287502 0.848890 0.952848 0.108491
H6    H     H_    0.715371 0.072385 0.045223 0.107630
H7    H     H_    0.204598 0.257677 0.553681 0.110760
H8    H     H_    0.795401 0.742322 0.446319 0.110864
H9    H     H_    0.660118 0.036908 0.947072 0.120216
H10   H     H_    0.345122 0.817970 0.049084 0.119754
H11   H     H_    0.858694 0.824782 0.534254 0.117538
H12   H     H_    0.141304 0.175215 0.465746 0.117366
C45   C     C_R   0.629253 0.881494 0.367343 -0.140870
C46   C     C_R   0.370524 0.118415 0.632343 -0.152046
C47   C     C_R   0.870488 0.381996 0.132431 -0.154592
C48   C     C_R   0.129577 0.618024 0.867652 -0.155596
H13   H     H_    0.644301 0.753903 0.352862 0.126819
H14   H     H_    0.355158 0.245978 0.646384 0.124625
H15   H     H_    0.855284 0.254327 0.146821 0.125173
H16   H     H_    0.144839 0.745687 0.853338 0.125415
C49   C     C_R   0.593365 0.868524 0.403902 -0.133383
C50   C     C_R   0.406496 0.131350 0.595898 -0.132979
C51   C     C_R   0.906382 0.369028 0.095906 -0.137745
C52   C     C_R   0.093675 0.631000 0.904167 -0.137639
H17   H     H_    0.582088 0.731847 0.416218 0.134474
H18   H     H_    0.417517 0.267975 0.583229 0.134580
H19   H     H_    0.917504 0.232299 0.083541 0.134062
H20   H     H_    0.082606 0.767730 0.916600 0.134145
C53   C     C_R   0.572537 0.029092 0.424406 0.017435
C54   C     C_R   0.427706 0.970813 0.575915 0.018335
C55   C     C_R   0.927429 0.529614 0.075518 0.019385
C56   C     C_R   0.072557 0.470420 0.924464 0.019328
C57   C     C_R   0.588488 0.203381 0.406902 -0.129654
C58   C     C_R   0.412065 0.796599 0.593847 -0.126436
C59   C     C_R   0.911636 0.703985 0.093050 -0.132292
C60   C     C_R   0.088286 0.296048 0.906850 -0.132284
H21   H     H_    0.573312 0.330271 0.421705 0.140337
H22   H     H_    0.427548 0.669738 0.579464 0.139088
H23   H     H_    0.926970 0.830898 0.078313 0.139472
H24   H     H_    0.072894 0.169139 0.921513 0.139494
C61   C     C_R   0.624473 0.216492 0.370215 -0.153632
C62   C     C_R   0.376007 0.783527 0.630441 -0.138247
C63   C     C_R   0.875636 0.717099 0.129721 -0.155612
C64   C     C_R   0.124290 0.282926 0.870184 -0.154896
H25   H     H_    0.635917 0.353061 0.358012 0.123827
H26   H     H_    0.364827 0.647010 0.643008 0.120904
H27   H     H_    0.864326 0.853668 0.141983 0.121472
H28   H     H_    0.135543 0.146353 0.857850 0.121857
C65   C     C_R   0.645545 0.055601 0.350017 -0.046418
C66   C     C_R   0.354539 0.944379 0.650097 -0.040841
C67   C     C_R   0.854403 0.556125 0.149867 -0.046033
C68   C     C_R   0.145595 0.443891 0.850131 -0.046522
N1    N     N_R   0.514309 0.168413 0.483991 -0.277586
N2    N     N_R   0.485987 0.831464 0.516400 -0.277273
N3    N     N_R   0.985864 0.668672 0.015993 -0.278596
N4    N     N_R   0.014117 0.331365 0.983983 -0.278574
N5    N     N_R   0.480577 0.154552 0.519404 -0.282612
N6    N     N_R   0.519716 0.845324 0.480980 -0.282529
N7    N     N_R   0.019676 0.654563 0.980702 -0.284010
N8    N     N_R   0.980306 0.345475 0.019274 -0.284005
C69   C     C_R   0.465621 0.985806 0.536463 0.516493
C70   C     C_R   0.534668 0.014074 0.463918 0.516213
C71   C     C_R   0.034601 0.485634 0.963847 0.514719
C72   C     C_R   0.965381 0.514403 0.036130 0.514727
H29   H     H_    0.579107 0.974619 0.886614 0.132678
H30   H     H_    0.428423 0.809574 0.107182 0.132034
H31   H     H_    0.945783 0.854102 0.579665 0.130128
H32   H     H_    0.054216 0.145894 0.420336 0.130076
C73   C     C_1   0.485262 0.887570 0.859092 0.297587
N9    N     N_1   0.465909 0.838636 0.811496 -0.355011
C74   C     C_1   0.525055 0.810397 0.131680 0.298019
N10   N     N_1   0.548038 0.751495 0.175782 -0.355801
C75   C     C_1   0.041920 0.827232 0.588212 0.292831
N11   N     N_1   0.070660 0.934094 0.613635 -0.349276
C76   C     C_1   0.958078 0.172765 0.411789 0.292813
N12   N     N_1   0.929338 0.065903 0.386366 -0.349614

loop_
_geom_bond_atom_site_label_1
_geom_bond_atom_site_label_2
_ccdc_geom_bond_type
O17   V3    S    
C55   C59   A    
O1    C5    A    
N3    C72   A    
O19   V1    S    
C9    C21   A    
O3    C7    A    
C10   C18   A    
C52   H20   S    
N1    C70   A    
O15   V3    S    
C62   C66   A    
C56   C71   S    
C61   C65   A    
C33   C38   A    
C5    C12   S    
O7    C3    A    
C6    C11   S    
C35   C40   A    
C26   C30   A    
C55   C72   S    
C36   C39   A    
C40   C44   A    
O2    V4    S    
O9    V1    S    
C53   C70   S    
C14   C18   A    
O4    C8    A    
N6    C70   A    
C57   C61   A    
C76   N12   T    
C45   C65   A    
C60   H24   S    
O1    V3    S    
O13   V1    S    
C59   C63   A    
C47   C67   A    
O3    V1    S    
C22   H1    S    
C2    C67   S    
C28   C36   A    
C17   H6    S    
C42   H30   S    
C1    O15   A    
C56   C60   A    
C23   C27   A    
C2    O16   A    
C15   C31   A    
O2    C6    A    
C16   H12   S    
C58   H22   S    
C10   C22   A    
C38   C74   S    
C11   C19   A    
C62   H26   S    
N2    C69   A    
C48   C68   A    
N4    N8    A    
C13   C29   A    
C34   C37   A    
O11   C7    A    
C11   C23   A    
C35   C36   A    
O12   C8    A    
C13   C17   A    
O10   V2    S    
N8    C72   A    
C45   H13   S    
C50   H18   S    
O5    V1    S    
C57   H21   S    
C39   C43   A    
O7    V3    S    
C38   C42   A    
C26   C34   A    
C44   H32   S    
C64   C68   A    
O18   V4    S    
C15   C19   A    
C14   H10   S    
C16   C32   A    
C54   C58   A    
C13   H9    S    
O4    V2    S    
N4    C71   A    
C49   C53   A    
O8    V4    S    
N2    N6    A    
C20   H7    S    
C43   H31   S    
O5    C1    A    
C37   C41   A    
C63   H27   S    
N3    N7    A    
C14   C30   A    
C21   C25   A    
O8    C4    A    
C7    C10   S    
C39   C75   S    
O9    C5    A    
O14   V2    S    
C63   C67   A    
O6    V2    S    
C16   C20   A    
N1    N5    A    
C58   C62   A    
C27   C35   A    
C46   C66   A    
C24   H3    S    
C64   H28   S    
C29   C41   A    
C52   C56   A    
C60   C64   A    
O16   V4    S    
C19   H8    S    
C3    O13   A    
C18   H5    S    
C21   H2    S    
C48   H16   S    
C47   H15   S    
O6    C2    A    
C25   C33   A    
C31   C43   A    
C74   N10   T    
O11   V3    S    
C30   C42   A    
C40   C76   S    
C61   H25   S    
O12   V4    S    
C47   C51   A    
C73   N9    T    
C22   C26   A    
C8    C9    S    
C46   C50   A    
C9    C17   A    
O10   C6    A    
N7    C71   A    
O20   V2    S    
C45   C49   A    
C32   C44   A    
C75   N11   T    
C46   H14   S    
C37   C73   S    
C33   C34   A    
C25   C29   A    
C54   C69   S    
C12   C24   A    
C27   C31   A    
C49   H17   S    
C41   H29   S    
C23   H4    S    
C12   C20   A    
C51   H19   S    
C4    C65   S    
N5    C69   A    
C24   C28   A    
C4    O14   A    
C1    C68   S    
C59   H23   S    
C48   C52   A    
C51   C55   A    
C3    C66   S    
C50   C54   A    
C53   C57   A    
C28   C32   A    
C15   H11   S    
