data_mof_unit_26242.cif
_audit_creation_date              2012-12-10T20:45:30-0500
_audit_creation_method            fapswitch 2.2
_symmetry_space_group_name_H-M    P1
_symmetry_Int_Tables_number       1
_space_group_crystal_system       triclinic
_cell_length_a                    10.796962
_cell_length_b                    10.612666
_cell_length_c                    10.002896
_cell_angle_alpha                 88.388539
_cell_angle_beta                  90.93233
_cell_angle_gamma                 92.155775
_cell_volume                      1144.78036415

loop_
_atom_site_label
_atom_site_type_symbol
_atom_type_description
_atom_site_fract_x
_atom_site_fract_y
_atom_site_fract_z
_atom_type_partial_charge
C1    C     C_R   0.496935 0.260456 0.502080 0.946460
C2    C     C_R   0.191313 0.575228 0.986011 -0.330023
C3    C     C_R   0.932528 0.443551 0.394422 -0.055088
C4    C     C_R   0.872786 0.482065 0.508057 -0.131869
C5    C     C_R   0.942256 0.516457 0.622689 -0.005919
C6    C     C_R   0.068617 0.531867 0.613042 -0.243270
C7    C     C_R   0.126939 0.510280 0.493534 -0.109854
C8    C     C_R   0.057352 0.475800 0.378319 0.007705
C9    C     C_R   0.902390 0.602894 0.847961 -0.172247
C10   C     C_R   0.861436 0.584272 0.979021 -0.131988
C11   C     C_R   0.812247 0.466309 0.021299 -0.194477
C12   C     C_R   0.260351 0.505589 0.497947 0.867271
C13   C     C_R   0.808990 0.364876 0.934599 0.022325
C14   C     C_R   0.848103 0.384021 0.803521 -0.100835
C15   C     C_R   0.892836 0.503319 0.758853 0.128037
C16   C     C_R   0.400375 0.059174 0.453210 -0.058747
C17   C     C_R   0.500649 0.127840 0.506844 -0.156454
C18   C     C_R   0.612759 0.070273 0.538911 0.468099
C19   C     C_R   0.616453 0.939192 0.531213 -0.307353
C20   C     C_R   0.510470 0.871350 0.488669 -0.103415
C21   C     C_R   0.408436 0.931880 0.435978 0.179312
C22   C     C_3   0.275643 0.902955 0.466418 -0.536645
C23   C     C_R   0.505417 0.739113 0.497650 0.889878
C24   C     C_3   0.268941 0.040741 0.501015 -0.035341
C25   C     C_R   0.434773 0.409264 0.071857 0.079753
C26   C     C_R   0.553379 0.597663 0.069617 0.419888
C27   C     C_R   0.551508 0.598302 0.926764 -0.043606
C28   C     C_R   0.435982 0.408920 0.930877 0.084054
C29   C     C_3   0.451217 0.270667 0.928263 -0.396240
C30   C     C_3   0.449243 0.269703 0.080461 0.232196
C31   C     C_R   0.739451 0.492870 0.502279 0.899023
C32   C     C_R   0.191584 0.665578 0.085814 0.492288
C33   C     C_R   0.145179 0.630984 0.211516 -0.109067
C34   C     C_R   0.103258 0.506568 0.241304 0.023971
C35   C     C_R   0.102132 0.417533 0.140203 -0.154932
C36   C     C_R   0.144070 0.452462 0.012397 0.037797
H1    H     H_    0.228328 0.600703 0.888767 0.136575
H2    H     H_    0.776132 0.455277 0.120822 0.157434
H3    H     H_    0.847002 0.305395 0.736595 0.172107
H4    H     H_    0.699222 0.890411 0.561167 0.151315
H5    H     H_    0.222955 0.877580 0.374342 0.220985
H6    H     H_    0.262661 0.833828 0.551430 0.176710
H7    H     H_    0.369586 0.222185 0.882249 0.245582
H8    H     H_    0.540771 0.245968 0.885511 0.183693
H9    H     H_    0.536390 0.239912 0.130749 0.146481
H10   H     H_    0.142554 0.700975 0.287478 0.129557
H11   H     H_    0.068463 0.321767 0.159537 0.179139
H12   H     H_    0.122053 0.555277 0.701509 0.165728
H13   H     H_    0.940858 0.694292 0.815903 0.148941
H14   H     H_    0.866667 0.661527 0.047473 0.177932
N1    N     N_R   0.499160 0.499140 0.142800 -0.194709
N2    N     N_R   0.499160 0.499180 0.857150 -0.163283
O1    O     O_R   0.500020 0.316790 0.614690 -0.598479
O2    O     O_R   0.500000 0.316760 0.385350 -0.644504
O3    O     O_R   0.316770 0.500030 0.614670 -0.623683
O4    O     O_R   0.316750 0.499990 0.385330 -0.610431
O5    O     O_R   0.500000 0.683240 0.614650 -0.632133
O6    O     O_R   0.499980 0.683210 0.385310 -0.594558
O7    O     O_R   0.683250 0.500010 0.614670 -0.610463
O8    O     O_R   0.683230 0.499970 0.385330 -0.657843
Zn1   Zn    Zn3+2 0.500010 0.500020 0.653130 0.959170
Zn2   Zn    Zn3+2 0.499990 0.499980 0.346870 0.959414
C37   C     C_1   0.771208 0.239523 0.979424 0.139235
N3    N     N_1   0.741550 0.138018 0.014124 -0.155018
O9    O     O_3   0.714662 0.142818 0.579596 -0.790566
H15   H     H_    0.784994 0.086999 0.597733 0.336736
C38   C     C_1   0.177725 0.109470 0.420489 0.207935
N4    N     N_1   0.105026 0.162835 0.357231 -0.199260
C39   C     C_1   0.253369 0.053838 0.645721 0.175150
N5    N     N_1   0.240415 0.059621 0.759817 -0.170133
O10   O     O_3   0.616744 0.695061 0.131813 -0.757583
H16   H     H_    0.648383 0.661711 0.218095 0.371867
O11   O     O_3   0.235907 0.787835 0.063667 -0.737596
H17   H     H_    0.265860 0.796811 0.970541 0.340152
C40   C     C_1   0.615523 0.701429 0.857849 0.371289
N6    N     N_1   0.668285 0.785372 0.805443 -0.217632
O12   O     O_3   0.342323 0.206107 0.128844 -0.710594
H18   H     H_    0.337104 0.227246 0.224243 0.355456
C41   C     C_1   0.136596 0.362746 0.907483 0.222236
N7    N     N_1   0.129472 0.291286 0.822358 -0.190806
C42   C     C_1   0.876671 0.339478 0.322609 0.203901
N8    N     N_1   0.831544 0.253537 0.269591 -0.176134

loop_
_geom_bond_atom_site_label_1
_geom_bond_atom_site_label_2
_ccdc_geom_bond_type
O6    Zn2   S    
C23   O6    A    
C16   C21   A    
C26   O10   S    
C11   C13   A    
O11   H17   S    
C30   H9    S    
C35   C36   A    
C1    O2    A    
C35   H11   S    
C42   N8    T    
C7    C8    A    
O12   H18   S    
C25   C28   A    
C26   C27   A    
C6    H12   S    
O8    Zn2   S    
C28   C29   S    
C18   C19   A    
N2    Zn1   S    
C5    C6    A    
C22   H5    S    
C2    C32   A    
C34   C35   A    
C31   O7    A    
C1    O1    A    
C24   C38   S    
C14   H3    S    
C30   O12   S    
O1    Zn1   S    
C19   C20   A    
C16   C17   A    
C3    C42   S    
C9    C10   A    
C16   C24   S    
C13   C14   A    
C29   H7    S    
C33   H10   S    
N1    Zn2   S    
C27   C40   S    
C24   C39   S    
C17   C18   A    
C7    C12   S    
O7    Zn1   S    
C38   N4    T    
C12   O3    A    
C9    H13   S    
C3    C8    A    
C19   H4    S    
C32   O11   S    
O2    Zn2   S    
C41   N7    T    
C18   O9    S    
C31   O8    A    
C11   H2    S    
C40   N6    T    
C25   N1    A    
C29   C30   S    
C13   C37   S    
C20   C23   S    
C33   C34   A    
C8    C34   S    
C12   O4    A    
C29   H8    S    
C22   C24   S    
C3    C4    A    
C10   H14   S    
C27   N2    A    
C2    C36   A    
C25   C30   S    
C23   O5    A    
C4    C5    A    
C36   C41   S    
O5    Zn1   S    
C6    C7    A    
C1    C17   S    
C32   C33   A    
C9    C15   A    
O10   H16   S    
C26   N1    A    
C28   N2    A    
C2    H1    S    
C22   H6    S    
O3    Zn1   S    
O4    Zn2   S    
C39   N5    T    
C5    C15   S    
C4    C31   S    
C10   C11   A    
C37   N3    T    
C20   C21   A    
O9    H15   S    
C14   C15   A    
C21   C22   S    
