data_mof_unit_58670.cif
_audit_creation_date              2012-10-26T19:52:29-0400
_audit_creation_method            fapswitch 2.2
_symmetry_space_group_name_H-M    P1
_symmetry_Int_Tables_number       1
_space_group_crystal_system       triclinic
_cell_length_a                    9.548738
_cell_length_b                    10.839382
_cell_length_c                    13.434468
_cell_angle_alpha                 90.577657
_cell_angle_beta                  72.64266
_cell_angle_gamma                 90.604843
_cell_volume                      1327.07138398

loop_
_atom_site_label
_atom_site_type_symbol
_atom_type_description
_atom_site_fract_x
_atom_site_fract_y
_atom_site_fract_z
_atom_type_partial_charge
C1    C     C_R   0.499552 0.737563 0.502875 0.543662
C2    C     C_R   0.370480 0.495620 0.816113 -0.017631
C3    C     C_R   0.366591 0.934326 0.526245 0.022036
C4    C     C_R   0.420740 0.501061 0.700539 0.533255
C5    C     C_R   0.496311 0.870405 0.514969 0.005522
C6    C     C_R   0.621648 0.936897 0.519031 -0.164072
C7    C     C_R   0.620975 0.065611 0.518288 -0.158553
C8    C     C_R   0.495048 0.128845 0.513350 0.008310
C9    C     C_R   0.365674 0.061359 0.525478 0.033268
C10   C     C_3   0.258261 0.062813 0.464343 -0.277180
C11   C     C_3   0.259069 0.923077 0.465809 -0.263560
C12   C     C_R   0.431664 0.506353 0.980939 0.035208
C13   C     C_R   0.962193 0.466160 0.412627 0.154961
C14   C     C_R   0.892339 0.546883 0.581766 -0.002628
C15   C     C_R   0.040875 0.546857 0.581873 0.005742
C16   C     C_R   0.498738 0.262136 0.502140 0.551256
C17   C     C_R   0.109612 0.466060 0.412616 0.160323
C18   C     C_3   0.134404 0.343671 0.359242 -0.278690
C19   C     C_3   0.976277 0.344891 0.357895 -0.273560
C20   C     C_R   0.578534 0.502709 0.300077 0.542371
C21   C     C_R   0.771464 0.627499 0.034039 -0.128887
C22   C     C_R   0.622350 0.521701 0.187273 -0.004170
C23   C     C_R   0.461805 0.540738 0.875074 0.018898
C24   C     C_R   0.236718 0.434547 0.868676 -0.021991
C25   C     C_R   0.198764 0.416739 0.975773 -0.145653
C26   C     C_R   0.295109 0.449793 0.030955 -0.138450
C27   C     C_1   0.137070 0.384771 0.815587 0.212787
C28   C     C_R   0.538196 0.531905 0.033267 0.037412
C29   C     C_R   0.665363 0.602244 0.983072 0.056452
C30   C     C_R   0.682901 0.649395 0.883924 -0.139054
C31   C     C_R   0.581152 0.621045 0.831544 -0.126265
C32   C     C_R   0.522641 0.488663 0.133991 -0.127644
C33   C     C_R   0.749470 0.588211 0.136188 -0.140431
Cu1   Cu    Cu3+1 0.359330 0.500020 0.500010 0.954769
Cu2   Cu    Cu3+1 0.640670 0.499980 0.499990 0.935680
H1    H     H_    0.827870 0.614691 0.176642 0.126741
H2    H     H_    0.155509 0.272117 0.410500 0.146574
H3    H     H_    0.965306 0.353267 0.278151 0.123875
H4    H     H_    0.775688 0.708421 0.846583 0.098286
H5    H     H_    0.907687 0.271361 0.406481 0.148336
H6    H     H_    0.868932 0.681079 0.996109 0.110760
H7    H     H_    0.432466 0.430057 0.174060 0.105529
H8    H     H_    0.257398 0.432503 0.113380 0.097783
H9    H     H_    0.095362 0.372762 0.016830 0.120532
H10   H     H_    0.595298 0.665188 0.757418 0.126713
H11   H     H_    0.722231 0.890214 0.516935 0.133263
H12   H     H_    0.721200 0.114666 0.516100 0.133424
H13   H     H_    0.150933 0.101455 0.510554 0.142189
H14   H     H_    0.306360 0.100983 0.384772 0.129441
H15   H     H_    0.153002 0.882125 0.512828 0.137572
H16   H     H_    0.307059 0.880806 0.387354 0.146048
H17   H     H_    0.810380 0.583620 0.648522 0.117053
H18   H     H_    0.068674 0.583237 0.648855 0.124634
H19   H     H_    0.214626 0.347517 0.280492 0.109397
N1    N     N_R   0.852320 0.499070 0.499340 -0.232141
N2    N     N_R   0.148230 0.499110 0.499340 -0.229530
N3    N     N_1   0.057014 0.344621 0.773472 -0.299944
O1    O     O_R   0.381190 0.680360 0.500000 -0.502821
O2    O     O_R   0.618780 0.680320 0.499990 -0.513571
O3    O     O_R   0.323230 0.500000 0.650990 -0.494408
O4    O     O_R   0.560820 0.499960 0.650980 -0.506807
O5    O     O_R   0.381220 0.319680 0.500010 -0.490762
O6    O     O_R   0.618810 0.319640 0.500000 -0.505627
O7    O     O_R   0.439180 0.500040 0.349020 -0.503957
O8    O     O_R   0.676770 0.500000 0.349010 -0.502076

loop_
_geom_bond_atom_site_label_1
_geom_bond_atom_site_label_2
_ccdc_geom_bond_type
C20   O7    A    
C2    C4    S    
Cu1   N2    S    
C6    C7    A    
C3    C9    A    
C19   H3    S    
C9    C10   S    
C22   C32   A    
C26   H8    S    
C12   C23   A    
C24   C27   S    
C13   C17   A    
C30   C31   A    
C15   N2    A    
C4    O3    A    
C27   N3    T    
Cu1   O7    S    
C14   N1    A    
C7    C8    A    
C8    C16   S    
C11   H15   S    
C1    O1    A    
Cu1   O3    S    
C17   N2    A    
C29   C30   A    
C16   O5    A    
C12   C28   A    
C1    C5    S    
C15   H18   S    
C25   H9    S    
C28   C29   A    
C16   O6    A    
C18   H2    S    
C20   C22   S    
C30   H4    S    
C17   C18   S    
C10   C11   S    
C1    O2    A    
C11   H16   S    
C10   H13   S    
C5    C6    A    
Cu1   Cu2   S    
C21   H6    S    
C3    C11   S    
C19   H5    S    
C18   H19   S    
Cu2   N1    S    
C32   H7    S    
Cu1   O5    S    
C20   O8    A    
C28   C32   A    
C33   H1    S    
C21   C33   A    
C24   C25   A    
Cu2   O2    S    
C18   C19   S    
C31   H10   S    
C2    C23   A    
Cu1   O1    S    
C22   C33   A    
C13   C19   S    
C14   C15   A    
C8    C9    A    
Cu2   O6    S    
C2    C24   A    
C6    H11   S    
C3    C5    A    
C25   C26   A    
Cu2   O4    S    
C10   H14   S    
C21   C29   A    
C4    O4    A    
C14   H17   S    
C12   C26   A    
Cu2   O8    S    
C13   N1    A    
C23   C31   A    
C7    H12   S    
