data_mof_unit_55564.cif
_audit_creation_date              2012-12-10T18:43:10-0500
_audit_creation_method            fapswitch 2.2
_symmetry_space_group_name_H-M    P1
_symmetry_Int_Tables_number       1
_space_group_crystal_system       triclinic
_cell_length_a                    10.709382
_cell_length_b                    9.829495
_cell_length_c                    10.692142
_cell_angle_alpha                 89.788438
_cell_angle_beta                  90.23905
_cell_angle_gamma                 90.036445
_cell_volume                      1125.52075955

loop_
_atom_site_label
_atom_site_type_symbol
_atom_type_description
_atom_site_fract_x
_atom_site_fract_y
_atom_site_fract_z
_atom_type_partial_charge
C1    C     C_R   0.259882 0.499983 0.501076 0.839349
C2    C     C_R   0.936076 0.379934 0.530659 -0.184724
C3    C     C_R   0.872581 0.500104 0.501456 -0.011371
C4    C     C_R   0.127465 0.500296 0.502675 -0.008653
C5    C     C_R   0.936082 0.620508 0.473470 -0.211575
C6    C     C_R   0.063956 0.620567 0.473943 -0.194699
C7    C     C_R   0.576865 0.071750 0.578760 -0.086951
C8    C     C_R   0.423426 0.072274 0.420891 -0.066588
C9    C     C_R   0.576749 0.927781 0.578886 -0.086918
C10   C     C_R   0.423405 0.928290 0.420929 -0.081322
C11   C     C_3   0.473901 0.144177 0.921078 0.138979
C12   C     C_R   0.740143 0.499979 0.500306 0.862162
C13   C     C_3   0.544592 0.072611 0.027548 -0.317009
C14   C     C_3   0.479618 0.940903 0.066411 -0.966858
C15   C     C_3   0.238564 0.319677 0.091445 0.022394
C16   C     C_3   0.165990 0.396073 0.191848 -0.312251
C17   C     C_3   0.028721 0.412081 0.155947 -0.947899
C18   C     C_R   0.497852 0.499823 0.262195 0.990189
C19   C     C_R   0.495277 0.499315 0.738021 1.007156
C20   C     C_2   0.468224 0.381821 0.935340 0.407878
C21   C     C_2   0.440152 0.396623 0.068021 0.412204
C22   C     C_2   0.462840 0.496715 0.867472 -0.517575
C23   C     C_2   0.499120 0.496613 0.129540 -0.480249
C24   C     C_R   0.064008 0.380103 0.531499 -0.212938
H1    H     H_    0.425651 0.590318 0.906722 0.117810
H2    H     H_    0.362217 0.873870 0.357747 0.126951
H3    H     H_    0.478777 0.077961 0.837322 0.141743
H4    H     H_    0.372610 0.154056 0.941199 0.131158
H5    H     H_    0.640901 0.048756 0.996104 0.207363
H6    H     H_    0.551967 0.140228 0.110146 0.258103
H7    H     H_    0.384297 0.962946 0.101564 0.264638
H8    H     H_    0.533863 0.890696 0.142328 0.273686
H9    H     H_    0.473146 0.870139 0.985852 0.258663
H10   H     H_    0.197299 0.216527 0.081439 0.154822
H11   H     H_    0.226590 0.371494 0.999000 0.117814
H12   H     H_    0.555954 0.572371 0.081992 0.123313
H13   H     H_    0.172475 0.338339 0.281071 0.232649
H14   H     H_    0.207867 0.498416 0.205823 0.206519
H15   H     H_    0.019727 0.471098 0.067580 0.261809
H16   H     H_    0.978777 0.467316 0.230971 0.276790
H17   H     H_    0.984407 0.310743 0.143892 0.262286
H18   H     H_    0.112896 0.286784 0.554584 0.154395
H19   H     H_    0.887250 0.286533 0.553436 0.154321
H20   H     H_    0.887317 0.713768 0.449910 0.159639
H21   H     H_    0.112702 0.713808 0.450450 0.153471
H22   H     H_    0.638225 0.126195 0.641759 0.146716
H23   H     H_    0.362260 0.127107 0.357665 0.158243
H24   H     H_    0.638013 0.872976 0.642007 0.131373
N1    N     N_R   0.500000 0.857200 0.500000 -0.076383
N2    N     N_R   0.500000 0.142810 0.500000 -0.083338
O1    O     O_R   0.316770 0.614620 0.499990 -0.629791
O2    O     O_3   0.364423 0.303687 0.130023 -0.645589
O3    O     O_R   0.683230 0.614620 0.500010 -0.629003
O4    O     O_R   0.316800 0.385290 0.500000 -0.637646
O5    O     O_R   0.683200 0.385290 0.500000 -0.630655
O6    O     O_R   0.500000 0.614630 0.319080 -0.634327
O7    O     O_R   0.500000 0.614630 0.680920 -0.632712
O8    O     O_R   0.500030 0.385300 0.319080 -0.566409
O9    O     O_R   0.499970 0.385300 0.680920 -0.567941
O10   O     O_3   0.532631 0.268700 0.890289 -0.631101
Zn1   Zn    Zn3+2 0.500000 0.653120 0.500000 0.932727
Zn2   Zn    Zn3+2 0.500000 0.346880 0.500000 0.965164

loop_
_geom_bond_atom_site_label_1
_geom_bond_atom_site_label_2
_ccdc_geom_bond_type
O8    Zn2   S    
C1    O4    A    
O5    Zn2   S    
O7    Zn1   S    
C6    H21   S    
C11   H3    S    
C20   O10   S    
C24   H18   S    
C21   O2    S    
C2    H19   S    
C15   H10   S    
C12   O3    A    
O1    Zn1   S    
C17   H16   S    
C18   O6    A    
C16   H13   S    
C1    C4    S    
C10   H2    S    
C14   H9    S    
C2    C3    A    
C8    H23   S    
C16   H14   S    
C13   C14   S    
C19   O7    A    
C1    O1    A    
C11   H4    S    
C18   C23   S    
C4    C24   A    
C15   H11   S    
C5    H20   S    
C20   C22   D    
C21   C23   D    
C2    C24   A    
C5    C6    A    
N2    Zn2   S    
C17   H17   S    
C12   O5    A    
N1    Zn1   S    
C15   C16   S    
C7    H22   S    
C8    N2    A    
C13   H6    S    
C11   C13   S    
C19   C22   S    
C9    N1    A    
C20   C21   S    
C9    H24   S    
C4    C6    A    
C23   H12   S    
C17   H15   S    
C13   H5    S    
C7    C9    A    
C14   H7    S    
O6    Zn1   S    
O9    Zn2   S    
C3    C12   S    
O4    Zn2   S    
C19   O9    A    
C15   O2    S    
C10   N1    A    
O3    Zn1   S    
C18   O8    A    
C8    C10   A    
C11   O10   S    
C7    N2    A    
C14   H8    S    
C16   C17   S    
C3    C5    A    
C22   H1    S    
