data_mof_unit_54973.cif
_audit_creation_date              2012-12-11T14:30:07-0500
_audit_creation_method            fapswitch 2.2
_symmetry_space_group_name_H-M    P1
_symmetry_Int_Tables_number       1
_space_group_crystal_system       monoclinic
_cell_length_a                    12.746761
_cell_length_b                    12.74676
_cell_length_c                    26.95422
_cell_angle_alpha                 90.0
_cell_angle_beta                  90.0
_cell_angle_gamma                 120.000209
_cell_volume                      3792.76677257

loop_
_atom_site_label
_atom_site_type_symbol
_atom_type_description
_atom_site_fract_x
_atom_site_fract_y
_atom_site_fract_z
_atom_type_partial_charge
C1    C     C_R   0.560739 0.454852 0.823010 0.541751
C2    C     C_R   0.894113 0.439261 0.676990 0.541752
C3    C     C_R   0.545148 0.105887 0.823010 0.541751
C4    C     C_R   0.560739 0.454852 0.676990 0.541752
C5    C     C_R   0.894113 0.439261 0.823010 0.541751
C6    C     C_R   0.545148 0.105887 0.676990 0.541752
C7    C     C_R   0.455928 0.557141 0.321757 0.540382
C8    C     C_R   0.442859 0.898787 0.178243 0.540381
C9    C     C_R   0.101213 0.544072 0.321757 0.540381
C10   C     C_R   0.455928 0.557141 0.178243 0.540381
C11   C     C_R   0.442859 0.898787 0.321757 0.540381
C12   C     C_R   0.101213 0.544072 0.178243 0.540381
C13   C     C_R   0.962680 0.491224 0.978143 0.032378
C14   C     C_R   0.528543 0.037319 0.521857 0.032378
C15   C     C_R   0.508776 0.471456 0.978143 0.032377
C16   C     C_R   0.962681 0.491224 0.521857 0.032378
C17   C     C_R   0.528544 0.037320 0.978143 0.032377
C18   C     C_R   0.508776 0.471456 0.521857 0.032378
C19   C     C_R   0.524315 0.021704 0.470178 0.033525
C20   C     C_R   0.978295 0.502610 0.029823 0.033525
C21   C     C_R   0.497390 0.475685 0.470177 0.033525
C22   C     C_R   0.524315 0.021704 0.029822 0.033525
C23   C     C_R   0.978296 0.502610 0.470178 0.033525
C24   C     C_R   0.497389 0.475685 0.029823 0.033525
C25   C     C_R   0.043555 0.709655 0.970728 0.096397
C26   C     C_R   0.666102 0.956447 0.529272 0.096396
C27   C     C_R   0.290344 0.333899 0.970728 0.096398
C28   C     C_R   0.043552 0.709655 0.529271 0.096396
C29   C     C_R   0.666099 0.956444 0.970728 0.096398
C30   C     C_R   0.290345 0.333897 0.529272 0.096397
C31   C     C_R   0.665122 0.945223 0.477033 0.097071
C32   C     C_R   0.054779 0.719900 0.022967 0.097071
C33   C     C_R   0.280100 0.334877 0.477033 0.097071
C34   C     C_R   0.665120 0.945221 0.022967 0.097071
C35   C     C_R   0.054776 0.719899 0.477032 0.097070
C36   C     C_R   0.280100 0.334878 0.022967 0.097071
C37   C     C_R   0.978760 0.578542 0.896301 -0.126983
C38   C     C_R   0.599783 0.021241 0.603699 -0.126982
C39   C     C_R   0.421458 0.400217 0.896301 -0.126983
C40   C     C_R   0.978758 0.578542 0.603699 -0.126983
C41   C     C_R   0.599781 0.021240 0.896301 -0.126983
C42   C     C_R   0.421458 0.400216 0.603699 -0.126983
C43   C     C_R   0.569543 0.941756 0.397230 -0.117055
C44   C     C_R   0.058246 0.627787 0.102770 -0.117055
C45   C     C_R   0.372213 0.430457 0.397230 -0.117055
C46   C     C_R   0.569542 0.941754 0.102770 -0.117055
C47   C     C_R   0.058244 0.627787 0.397230 -0.117055
C48   C     C_R   0.372212 0.430458 0.102770 -0.117055
C49   C     C_R   0.038804 0.526189 0.130506 -0.013532
C50   C     C_R   0.487385 0.961196 0.369493 -0.013532
C51   C     C_R   0.473811 0.512615 0.130506 -0.013532
C52   C     C_R   0.038804 0.526188 0.369493 -0.013532
C53   C     C_R   0.487385 0.961196 0.130506 -0.013532
C54   C     C_R   0.473811 0.512615 0.369493 -0.013532
C55   C     C_R   0.531284 0.067942 0.624884 -0.005716
C56   C     C_R   0.932057 0.463342 0.875116 -0.005716
C57   C     C_R   0.536658 0.468716 0.624884 -0.005716
C58   C     C_R   0.531284 0.067943 0.875116 -0.005716
C59   C     C_R   0.932058 0.463342 0.624884 -0.005716
C60   C     C_R   0.536658 0.468716 0.875116 -0.005716
C61   C     C_R   0.996856 0.594596 0.948074 -0.018232
C62   C     C_R   0.597741 0.003145 0.551926 -0.018231
C63   C     C_R   0.405404 0.402260 0.948074 -0.018232
C64   C     C_R   0.996855 0.594596 0.551926 -0.018232
C65   C     C_R   0.597740 0.003144 0.948074 -0.018232
C66   C     C_R   0.405404 0.402259 0.551926 -0.018232
C67   C     C_R   0.588610 0.971043 0.447879 -0.017580
C68   C     C_R   0.028959 0.617568 0.052121 -0.017580
C69   C     C_R   0.382433 0.411390 0.447878 -0.017580
C70   C     C_R   0.588609 0.971041 0.052121 -0.017580
C71   C     C_R   0.028957 0.617567 0.447878 -0.017580
C72   C     C_R   0.382432 0.411391 0.052121 -0.017580
C73   C     C_R   0.902369 0.363087 0.905479 -0.102956
C74   C     C_R   0.460715 0.097628 0.594521 -0.102956
C75   C     C_R   0.636913 0.539282 0.905479 -0.102956
C76   C     C_R   0.902373 0.363088 0.594521 -0.102957
C77   C     C_R   0.460718 0.097632 0.905479 -0.102956
C78   C     C_R   0.636913 0.539284 0.594521 -0.102956
C79   C     C_R   0.435391 0.024436 0.390621 -0.120044
C80   C     C_R   0.975563 0.410954 0.109379 -0.120044
C81   C     C_R   0.589046 0.564610 0.390621 -0.120044
C82   C     C_R   0.435392 0.024437 0.109379 -0.120044
C83   C     C_R   0.975564 0.410954 0.390621 -0.120044
C84   C     C_R   0.589046 0.564609 0.109379 -0.120044
C85   C     C_R   0.914798 0.375630 0.956492 0.021892
C86   C     C_R   0.460829 0.085199 0.543508 0.021892
C87   C     C_R   0.624370 0.539168 0.956492 0.021893
C88   C     C_R   0.914802 0.375630 0.543508 0.021892
C89   C     C_R   0.460832 0.085202 0.956492 0.021893
C90   C     C_R   0.624370 0.539170 0.543508 0.021892
C91   C     C_R   0.453059 0.054614 0.440816 0.025113
C92   C     C_R   0.945384 0.398444 0.059184 0.025113
C93   C     C_R   0.601556 0.546941 0.440816 0.025113
C94   C     C_R   0.453060 0.054616 0.059185 0.025114
C95   C     C_R   0.945386 0.398443 0.440816 0.025112
C96   C     C_R   0.601556 0.546940 0.059185 0.025113
C97   C     C_R   0.890133 0.283864 0.037255 -0.094780
C98   C     C_R   0.393729 0.109864 0.462745 -0.094780
C99   C     C_R   0.716136 0.606269 0.037255 -0.094779
C100  C     C_R   0.890137 0.283864 0.462745 -0.094780
C101  C     C_R   0.393732 0.109867 0.037256 -0.094780
C102  C     C_R   0.716136 0.606272 0.462745 -0.094780
C103  C     C_R   0.395211 0.122194 0.513899 -0.091664
C104  C     C_R   0.877802 0.273016 0.986102 -0.091664
C105  C     C_R   0.726983 0.604789 0.513898 -0.091664
C106  C     C_R   0.395216 0.122199 0.986102 -0.091664
C107  C     C_R   0.877807 0.273017 0.513899 -0.091665
C108  C     C_R   0.726984 0.604786 0.986102 -0.091664
Cr1   Cr    Cr6+3 0.487630 0.241180 0.750000 1.056119
Cr2   Cr    Cr6+3 0.753550 0.512370 0.750000 1.056119
Cr3   Cr    Cr6+3 0.758820 0.246450 0.750000 1.056118
Cr4   Cr    Cr6+3 0.241180 0.487630 0.250000 1.044184
Cr5   Cr    Cr6+3 0.512370 0.753550 0.250000 1.044184
Cr6   Cr    Cr6+3 0.246450 0.758820 0.250000 1.044183
H1    H     H_    0.106483 0.715997 0.119936 0.175268
H2    H     H_    0.609515 0.893519 0.380064 0.175268
H3    H     H_    0.284003 0.390486 0.119935 0.175268
H4    H     H_    0.106481 0.715996 0.380064 0.175268
H5    H     H_    0.609513 0.893516 0.119935 0.175268
H6    H     H_    0.284004 0.390485 0.380064 0.175267
H7    H     H_    0.655409 0.001981 0.627986 0.162842
H8    H     H_    0.998022 0.653429 0.872014 0.162842
H9    H     H_    0.346571 0.344590 0.627986 0.162842
H10   H     H_    0.655405 0.001977 0.872014 0.162842
H11   H     H_    0.998019 0.653429 0.627985 0.162842
H12   H     H_    0.346571 0.344593 0.872014 0.162842
H13   H     H_    0.957557 0.331940 0.131030 0.147951
H14   H     H_    0.374381 0.042441 0.368970 0.147951
H15   H     H_    0.668060 0.625617 0.131031 0.147951
H16   H     H_    0.957559 0.331940 0.368970 0.147951
H17   H     H_    0.374384 0.042443 0.131031 0.147951
H18   H     H_    0.668060 0.625619 0.368970 0.147952
H19   H     H_    0.410116 0.137223 0.610317 0.154996
H20   H     H_    0.862771 0.272891 0.889683 0.154995
H21   H     H_    0.727108 0.589884 0.610317 0.154995
H22   H     H_    0.410121 0.137229 0.889684 0.154995
H23   H     H_    0.862778 0.272892 0.610317 0.154996
H24   H     H_    0.727109 0.589880 0.889684 0.154995
H25   H     H_    0.861990 0.203215 0.059427 0.159940
H26   H     H_    0.341221 0.138005 0.440573 0.159942
H27   H     H_    0.796785 0.658775 0.059427 0.159940
H28   H     H_    0.861995 0.203215 0.440573 0.159942
H29   H     H_    0.341226 0.138010 0.059428 0.159940
H30   H     H_    0.796785 0.658779 0.440573 0.159942
H31   H     H_    0.342681 0.157929 0.530574 0.157901
H32   H     H_    0.842065 0.184750 0.969426 0.157899
H33   H     H_    0.815249 0.657320 0.530574 0.157901
H34   H     H_    0.342687 0.157936 0.969426 0.157898
H35   H     H_    0.842071 0.184751 0.530575 0.157902
H36   H     H_    0.815250 0.657315 0.969426 0.157899
O1    O     O_R   0.460870 0.120930 0.805240 -0.499874
O2    O     O_R   0.660060 0.539130 0.694760 -0.499874
O3    O     O_R   0.879070 0.339940 0.805240 -0.499873
O4    O     O_R   0.460870 0.120930 0.694760 -0.499874
O5    O     O_R   0.660060 0.539130 0.805240 -0.499873
O6    O     O_R   0.879070 0.339940 0.694760 -0.499874
O7    O     O_R   0.120930 0.460870 0.305240 -0.507049
O8    O     O_R   0.539130 0.660060 0.194760 -0.507049
O9    O     O_R   0.339940 0.879070 0.305240 -0.507048
O10   O     O_R   0.120930 0.460870 0.194760 -0.507048
O11   O     O_R   0.539130 0.660060 0.305240 -0.507049
O12   O     O_R   0.339940 0.879070 0.194760 -0.507048
O13   O     O_R   0.498910 0.350470 0.801870 -0.501256
O14   O     O_R   0.851560 0.501090 0.698130 -0.501257
O15   O     O_R   0.649530 0.148440 0.801870 -0.501256
O16   O     O_R   0.498910 0.350470 0.698130 -0.501256
O17   O     O_R   0.851560 0.501090 0.801870 -0.501257
O18   O     O_R   0.649530 0.148440 0.698130 -0.501256
O19   O     O_R   0.350470 0.498910 0.301870 -0.501309
O20   O     O_R   0.501090 0.851560 0.198130 -0.501309
O21   O     O_R   0.148440 0.649530 0.301870 -0.501309
O22   O     O_R   0.350470 0.498910 0.198130 -0.501309
O23   O     O_R   0.501090 0.851560 0.301870 -0.501309
O24   O     O_R   0.148440 0.649530 0.198130 -0.501309
O25   O     O_3   0.666667 0.333333 0.750000 -0.264066
O26   O     O_3   0.333333 0.666667 0.250000 -0.246959
I1    I     I_    0.097617 0.886504 0.058463 -0.312316
I2    I     I_    0.788889 0.902386 0.441537 -0.312318
I3    I     I_    0.113495 0.211112 0.058463 -0.312315
I4    I     I_    0.097613 0.886503 0.441536 -0.312319
I5    I     I_    0.788887 0.902383 0.058463 -0.312316
I6    I     I_    0.113496 0.211110 0.441537 -0.312318
I7    I     I_    0.772664 0.904238 0.573349 -0.282041
I8    I     I_    0.095765 0.868427 0.926651 -0.282039
I9    I     I_    0.131574 0.227334 0.573349 -0.282042
I10   I     I_    0.772660 0.904234 0.926651 -0.282039
I11   I     I_    0.095761 0.868426 0.573349 -0.282042
I12   I     I_    0.131573 0.227338 0.926651 -0.282039

loop_
_geom_bond_atom_site_label_1
_geom_bond_atom_site_label_2
_ccdc_geom_bond_type
C44   C49   A    
C79   H14   S    
C74   H19   S    
C82   C94   A    
C18   C21   A    
C101  H29   S    
C5    C56   S    
C6    C55   S    
C50   C79   A    
C12   C49   S    
C11   O9    A    
C9    C52   S    
Cr2   O25   S    
C78   C90   A    
C31   C67   A    
C99   C108  A    
C20   C92   A    
C24   C72   A    
C34   I5    S    
Cr3   O25   S    
C41   H10   S    
Cr5   O23   S    
Cr1   O1    S    
C41   C58   A    
Cr2   O2    S    
C24   C96   A    
C44   C68   A    
C21   C69   A    
Cr6   O12   S    
C10   C51   S    
C10   O22   A    
C98   C103  A    
C105  H33   S    
C96   C99   A    
C16   C88   A    
C84   H15   S    
C35   I4    S    
C106  H34   S    
C29   I10   S    
C102  C105  A    
C84   C96   A    
C1    O5    A    
Cr2   O5    S    
C58   C77   A    
C37   C56   A    
C48   C51   A    
C38   C55   A    
C94   C101  A    
C4    O16   A    
C89   C106  A    
C42   H9    S    
C3    O15   A    
C19   C67   A    
Cr3   O15   S    
C77   H22   S    
Cr5   O8    S    
C78   H21   S    
C34   C70   A    
C79   C91   A    
C13   C20   A    
C25   I8    S    
C33   C69   A    
C32   C68   A    
C26   I7    S    
C25   C32   A    
Cr6   O26   S    
C35   C71   A    
C26   C31   A    
C40   C59   A    
C22   C94   A    
C36   I3    S    
C102  H30   S    
C48   C72   A    
C86   C103  A    
C14   C19   A    
C42   C57   A    
C8    O20   A    
C92   C97   A    
C44   H1    S    
Cr6   O21   S    
C4    O2    A    
C6    O18   A    
C11   O23   A    
Cr4   O7    S    
C87   C108  A    
C31   I2    S    
C45   C69   A    
C18   C90   A    
C30   I9    S    
C104  H32   S    
C17   C89   A    
C14   C86   A    
C83   H16   S    
Cr1   O13   S    
C28   I11   S    
C2    O14   A    
C88   C107  A    
Cr2   O14   S    
C2    C59   S    
C81   H18   S    
C41   C65   A    
C76   H23   S    
C29   C34   A    
C74   C86   A    
C76   C88   A    
C98   H26   S    
C53   C82   A    
C47   H4    S    
C80   C92   A    
C52   C83   A    
C23   C71   A    
C43   H2    S    
C81   C93   A    
Cr2   O17   S    
Cr4   O19   S    
C9    O7    A    
C83   C95   A    
C25   C61   A    
C12   O10   A    
C7    O11   A    
Cr1   O4    S    
Cr3   O3    S    
C47   C71   A    
C30   C66   A    
C85   C104  A    
C27   C63   A    
Cr5   O26   S    
C29   C65   A    
C39   C60   A    
C28   C64   A    
C45   H6    S    
C75   C87   A    
C15   C24   A    
Cr4   O26   S    
C45   C54   A    
C16   C23   A    
C7    O19   A    
C108  H36   S    
C32   I1    S    
C9    O21   A    
C22   C70   A    
C103  H31   S    
C12   O24   A    
Cr3   O6    S    
C101  C106  A    
C28   C35   A    
C10   O8    A    
C100  C107  A    
C2    O6    A    
C56   C73   A    
Cr4   O10   S    
C30   C33   A    
C95   C100  A    
C93   C102  A    
C3    O1    A    
C57   C78   A    
C20   C68   A    
C42   C66   A    
C90   C105  A    
C75   H24   S    
C8    C53   S    
C37   C61   A    
Cr1   O25   S    
C43   C50   A    
C99   H27   S    
Cr5   O20   S    
C77   C89   A    
C80   H13   S    
C27   C36   A    
C18   C66   A    
C39   C63   A    
C60   C75   A    
C17   C65   A    
C17   C22   A    
C40   C64   A    
C49   C80   A    
C97   C104  A    
C26   C62   A    
C73   C85   A    
C55   C74   A    
C11   C50   S    
C100  H28   S    
C6    O4    A    
Cr4   O22   S    
C21   C93   A    
C5    O3    A    
C40   H11   S    
C59   C76   A    
C46   C53   A    
C23   C95   A    
C46   H5    S    
C27   I12   S    
C5    O17   A    
C91   C98   A    
C1    C60   S    
Cr6   O9    S    
C46   C70   A    
C38   H7    S    
C19   C91   A    
Cr1   O16   S    
C48   H3    S    
Cr5   O11   S    
C37   H8    S    
C107  H35   S    
C3    C58   S    
Cr6   O24   S    
C13   C61   A    
C73   H20   S    
C1    O13   A    
C43   C67   A    
C15   C87   A    
C13   C85   A    
C33   I6    S    
C39   H12   S    
C15   C63   A    
C47   C52   A    
C8    O12   A    
Cr3   O18   S    
C16   C64   A    
C7    C54   S    
C82   H17   S    
C51   C84   A    
C97   H25   S    
C54   C81   A    
C36   C72   A    
C4    C57   S    
C38   C62   A    
C14   C62   A    
