data_mof_unit_24722.cif
_audit_creation_date              2012-12-10T18:05:57-0500
_audit_creation_method            fapswitch 2.2
_symmetry_space_group_name_H-M    P1
_symmetry_Int_Tables_number       1
_space_group_crystal_system       triclinic
_cell_length_a                    12.608199
_cell_length_b                    13.049603
_cell_length_c                    14.992563
_cell_angle_alpha                 89.947846
_cell_angle_beta                  102.766362
_cell_angle_gamma                 82.315288
_cell_volume                      2382.98547743

loop_
_atom_site_label
_atom_site_type_symbol
_atom_type_description
_atom_site_fract_x
_atom_site_fract_y
_atom_site_fract_z
_atom_type_partial_charge
C1    C     C_R   0.438534 0.691369 0.494342 0.842518
C2    C     C_R   0.597827 0.473024 0.111373 0.123466
C3    C     C_R   0.297947 0.529525 0.006399 -0.221824
C4    C     C_R   0.299117 0.526980 0.914125 -0.223606
C5    C     C_R   0.399231 0.510804 0.887304 0.122660
C6    C     C_R   0.499151 0.492273 0.953039 0.091403
C7    C     C_R   0.600347 0.474541 0.926004 0.114773
C8    C     C_R   0.699048 0.453843 0.991660 -0.221245
C9    C     C_R   0.697710 0.452146 0.084146 -0.195044
C10   C     C_R   0.401099 0.513336 0.795574 -0.257584
C11   C     C_R   0.501411 0.498018 0.768992 -0.066178
C12   C     C_R   0.500801 0.499562 0.673031 0.889534
C13   C     C_R   0.600803 0.478356 0.833609 -0.237004
C14   C     C_R   0.707573 0.062427 0.632871 -0.171124
C15   C     C_R   0.597865 0.198824 0.530586 -0.060868
C16   C     C_R   0.293865 0.839340 0.442030 -0.170444
C17   C     C_R   0.264399 0.945006 0.425082 -0.147921
C18   C     C_R   0.340645 0.011818 0.456618 -0.176154
C19   C     C_R   0.445149 0.973780 0.511977 0.046095
C20   C     C_R   0.464972 0.870059 0.543993 -0.030836
C21   C     C_R   0.530120 0.035314 0.537258 0.070130
C22   C     C_R   0.625438 0.998879 0.605128 0.085219
C23   C     C_R   0.561244 0.308354 0.511025 0.849515
C24   C     C_R   0.634623 0.901938 0.647435 -0.259961
C25   C     C_R   0.553372 0.838744 0.620169 0.422415
C26   C     C_R   0.523077 0.132102 0.495858 -0.228257
C27   C     C_R   0.692648 0.163378 0.597068 -0.190712
C28   C     C_R   0.397009 0.801058 0.496974 -0.124531
C29   C     C_R   0.089745 0.339932 0.381649 -0.421143
C30   C     C_R   0.799699 0.626654 0.611032 -0.035973
C31   C     C_R   0.906183 0.647378 0.642289 -0.371969
C32   C     C_R   0.991601 0.595140 0.606557 0.458840
C33   C     C_R   0.966216 0.525620 0.533786 -0.014147
C34   C     C_R   0.498861 0.500816 0.326795 0.905734
C35   C     C_R   0.856301 0.503005 0.508990 0.155263
C36   C     C_R   0.044282 0.474441 0.486575 0.010674
C37   C     C_R   0.013915 0.394562 0.425525 0.121213
C38   C     C_R   0.907608 0.370214 0.407603 -0.263101
C39   C     C_R   0.829731 0.425190 0.447181 -0.185717
C40   C     C_R   0.150607 0.500354 0.494669 -0.108116
C41   C     C_R   0.195281 0.367107 0.395143 0.646173
C42   C     C_R   0.596182 0.473745 0.203278 -0.340439
C43   C     C_R   0.497127 0.500675 0.230264 -0.183744
C44   C     C_R   0.398045 0.529044 0.165490 0.422333
C45   C     C_R   0.397055 0.516912 0.072672 -0.001733
C46   C     C_R   0.497930 0.493306 0.045764 -0.000875
H1    H     H_    0.672373 0.454224 0.253951 0.178338
H2    H     H_    0.703462 0.876204 0.703708 0.161604
H3    H     H_    0.780106 0.036022 0.685521 0.134816
H4    H     H_    0.456439 0.159858 0.439042 0.170752
H5    H     H_    0.238105 0.787506 0.408751 0.158121
H6    H     H_    0.314689 0.092861 0.439069 0.155884
H7    H     H_    0.184850 0.974627 0.382795 0.135051
H8    H     H_    0.883608 0.309764 0.360846 0.150161
H9    H     H_    0.067313 0.276499 0.338076 0.150751
H10   H     H_    0.179154 0.565340 0.531646 0.221539
H11   H     H_    0.735352 0.664570 0.641047 0.214163
H12   H     H_    0.922538 0.701443 0.696774 0.149097
H13   H     H_    0.749201 0.403858 0.429057 0.210219
H14   H     H_    0.219446 0.542730 0.025641 0.173467
H15   H     H_    0.221954 0.539254 0.863794 0.161497
H16   H     H_    0.324336 0.528590 0.744877 0.197324
H17   H     H_    0.677987 0.464896 0.811986 0.159374
H18   H     H_    0.776984 0.439277 0.971495 0.145392
H19   H     H_    0.774690 0.436102 0.134361 0.144443
H20   H     H_    0.751423 0.214975 0.624797 0.156842
N1    N     N_R   0.222190 0.444670 0.452360 -0.149411
N2    N     N_R   0.776970 0.554790 0.547140 -0.129374
O1    O     O_R   0.366740 0.627160 0.477250 -0.630769
O2    O     O_R   0.544830 0.662520 0.507680 -0.579582
O3    O     O_R   0.410940 0.482340 0.616930 -0.621301
O4    O     O_R   0.589030 0.517700 0.647360 -0.600368
O5    O     O_R   0.455170 0.337480 0.492320 -0.561603
O6    O     O_R   0.633260 0.372840 0.522750 -0.648044
O7    O     O_R   0.410970 0.482300 0.352640 -0.549672
O8    O     O_R   0.589060 0.517660 0.383070 -0.648535
Zn1   Zn    Zn3+2 0.381090 0.476390 0.479680 0.995980
Zn2   Zn    Zn3+2 0.618910 0.523610 0.520320 0.946539
O9    O     O_3   0.558302 0.751781 0.674148 -0.771731
H21   H     H_    0.483028 0.733906 0.667235 0.319342
O10   O     O_3   0.276536 0.310913 0.359225 -0.639422
C47   C     C_3   0.244516 0.302719 0.263086 0.085709
H22   H     H_    0.305474 0.335772 0.232306 0.191196
H23   H     H_    0.162731 0.346679 0.230891 0.123914
C48   C     C_3   0.247420 0.188474 0.239476 -0.391002
H24   H     H_    0.330922 0.146694 0.268103 0.230293
H25   H     H_    0.188088 0.153401 0.270684 0.213418
C49   C     C_3   0.218865 0.175088 0.136240 -0.936821
H26   H     H_    0.134654 0.214287 0.106325 0.261497
H27   H     H_    0.222337 0.091454 0.121584 0.267190
H28   H     H_    0.278393 0.208070 0.103707 0.268374
O11   O     O_3   0.303887 0.569219 0.194228 -0.647331
C50   C     C_3   0.279183 0.677387 0.174100 0.057049
H29   H     H_    0.196624 0.702905 0.187456 0.167661
H30   H     H_    0.273190 0.696872 0.100799 0.138941
C51   C     C_3   0.361803 0.739107 0.234342 -0.360533
H31   H     H_    0.368533 0.718148 0.307057 0.228603
H32   H     H_    0.444101 0.719809 0.218637 0.212905
C52   C     C_3   0.326510 0.855423 0.218464 -0.942688
H33   H     H_    0.324145 0.878104 0.146553 0.262415
H34   H     H_    0.386135 0.897841 0.264683 0.277181
H35   H     H_    0.243952 0.877842 0.232818 0.259613
O12   O     O_3   0.098897 0.605105 0.647652 -0.824542
H36   H     H_    0.100587 0.655173 0.697526 0.328369

loop_
_geom_bond_atom_site_label_1
_geom_bond_atom_site_label_2
_ccdc_geom_bond_type
C16   C28   A    
C21   C26   A    
C51   C52   S    
C50   H29   S    
O2    Zn2   S    
O1    Zn1   S    
C19   C20   A    
N1    Zn1   S    
C16   H5    S    
O10   C47   S    
C18   H6    S    
C7    C8    A    
C41   N1    A    
C45   C46   A    
C2    C46   A    
C31   H12   S    
C36   C37   A    
C19   C21   A    
O8    Zn2   S    
C26   H4    S    
C30   C31   A    
C14   H3    S    
C20   C25   A    
C30   H11   S    
C33   C36   A    
C18   C19   A    
O4    Zn2   S    
C31   C32   A    
C8    C9    A    
C40   H10   S    
C40   N1    A    
C51   H32   S    
C1    C28   S    
C14   C27   A    
C44   O11   S    
C34   O7    A    
C3    H14   S    
C15   C23   S    
C12   O4    A    
C39   H13   S    
C38   H8    S    
C50   H30   S    
C21   C22   A    
C10   H16   S    
C23   O5    A    
C48   H25   S    
N2    Zn2   S    
C38   C39   A    
C24   H2    S    
C36   C40   A    
C24   C25   A    
C16   C17   A    
C15   C26   A    
C29   H9    S    
C48   H24   S    
C4    H15   S    
C3    C45   A    
C1    O1    A    
C35   C39   A    
C43   C44   A    
C37   C38   A    
C15   C27   A    
C52   H33   S    
C13   H17   S    
C49   H28   S    
C41   O10   S    
C51   H31   S    
C17   C18   A    
C32   O12   S    
O7    Zn1   S    
C8    H18   S    
C52   H34   S    
C12   O3    A    
C49   H27   S    
C50   C51   S    
C47   H23   S    
C22   C24   A    
C42   C43   A    
C23   O6    A    
C3    C4    A    
C17   H7    S    
O3    Zn1   S    
C44   C45   A    
C48   C49   S    
C6    C46   A    
C29   C41   A    
C25   O9    S    
C34   C43   S    
C4    C5    A    
C11   C12   S    
C6    C7    A    
C47   C48   S    
C20   C28   A    
C1    O2    A    
C32   C33   A    
C14   C22   A    
C5    C10   A    
C27   H20   S    
C11   C13   A    
C5    C6    A    
C35   N2    A    
C2    C42   A    
O11   C50   S    
C33   C35   A    
C42   H1    S    
C9    H19   S    
C10   C11   A    
O9    H21   S    
C7    C13   A    
C52   H35   S    
C49   H26   S    
C47   H22   S    
O6    Zn2   S    
C29   C37   A    
O12   H36   S    
O5    Zn1   S    
C2    C9    A    
C30   N2    A    
C34   O8    A    
