data_mof_unit_16310.cif
_audit_creation_date              2012-12-10T19:29:33-0500
_audit_creation_method            fapswitch 2.2
_symmetry_space_group_name_H-M    P1
_symmetry_Int_Tables_number       1
_space_group_crystal_system       triclinic
_cell_length_a                    22.276188
_cell_length_b                    22.261709
_cell_length_c                    14.98783
_cell_angle_alpha                 89.999946
_cell_angle_beta                  90.121435
_cell_angle_gamma                 89.998236
_cell_volume                      7432.53834993

loop_
_atom_site_label
_atom_site_type_symbol
_atom_type_description
_atom_site_fract_x
_atom_site_fract_y
_atom_site_fract_z
_atom_type_partial_charge
C1    C     C_R   0.418846 0.918821 0.499909 0.884781
C2    C     C_1   0.662984 0.836901 0.500664 0.204665
C3    C     C_3   0.598706 0.364764 0.330908 -0.807614
C4    C     C_3   0.159235 0.159661 0.360969 0.181989
C5    C     C_3   0.098736 0.135270 0.330836 -0.807767
C6    C     C_3   0.840551 0.840157 0.639612 0.181874
C7    C     C_3   0.901001 0.864501 0.670056 -0.807199
C8    C     C_3   0.840789 0.159638 0.638994 0.182065
C9    C     C_3   0.901296 0.135236 0.669090 -0.807544
C10   C     C_3   0.159459 0.840142 0.360350 0.181816
C11   C     C_3   0.099012 0.864480 0.329881 -0.806924
C12   C     C_1   0.662994 0.163089 0.500667 0.204669
C13   C     C_1   0.337014 0.836902 0.499336 0.204674
C14   C     C_1   0.837015 0.663098 0.499336 0.204671
C15   C     C_1   0.162994 0.336911 0.500666 0.204679
C16   C     C_1   0.162986 0.663098 0.500664 0.204667
C17   C     C_1   0.837006 0.336911 0.499334 0.204664
C18   C     C_1   0.500017 1.000000 0.190061 0.424440
C19   C     C_1   0.499983 0.000000 0.809938 0.424438
C20   C     C_1   0.000017 0.500000 0.190061 0.424449
C21   C     C_R   0.581155 0.081177 0.500091 0.884801
C22   C     C_1   0.999983 0.500000 0.809939 0.424450
C23   C     C_3   0.472201 0.950849 0.969917 0.478692
C24   C     C_3   0.527798 0.049151 0.030083 0.478698
C25   C     C_3   0.528644 0.951335 0.030086 0.478641
C26   C     C_3   0.471355 0.048664 0.969914 0.478650
C27   C     C_3   0.973517 0.450127 0.969921 0.478781
C28   C     C_3   0.026483 0.549873 0.030079 0.478774
C29   C     C_3   0.029927 0.452114 0.030089 0.478566
C30   C     C_3   0.970073 0.547886 0.969911 0.478560
C31   C     C_3   0.733274 0.760515 0.585351 0.434259
C32   C     C_R   0.581153 0.918821 0.500091 0.884791
C33   C     C_3   0.266601 0.239360 0.414627 0.434261
C34   C     C_3   0.266733 0.760507 0.414651 0.434204
C35   C     C_3   0.733410 0.239350 0.585372 0.434194
C36   C     C_3   0.233398 0.260639 0.585373 0.434210
C37   C     C_3   0.766725 0.739484 0.414650 0.434208
C38   C     C_3   0.766590 0.260649 0.414629 0.434249
C39   C     C_3   0.233266 0.739494 0.585349 0.434261
C40   C     C_3   0.227833 0.199968 0.536717 0.256935
C41   C     C_3   0.772212 0.800088 0.463511 0.256908
C42   C     C_3   0.772164 0.199970 0.463263 0.256927
C43   C     C_R   0.418845 0.081177 0.499909 0.884807
C44   C     C_3   0.227782 0.800092 0.536473 0.256874
C45   C     C_3   0.727787 0.699911 0.536489 0.256910
C46   C     C_3   0.272166 0.300031 0.463283 0.256937
C47   C     C_3   0.272218 0.699908 0.463527 0.256869
C48   C     C_3   0.727837 0.300029 0.536737 0.256921
C49   C     C_1   0.374537 0.125528 0.499645 -0.123660
C50   C     C_1   0.625455 0.874465 0.500355 -0.123678
C51   C     C_1   0.625462 0.125529 0.500356 -0.123674
C52   C     C_1   0.374544 0.874465 0.499645 -0.123692
C53   C     C_1   0.874545 0.625535 0.499645 -0.123680
C54   C     C_R   0.918845 0.418823 0.499909 0.884801
C55   C     C_1   0.125462 0.374471 0.500355 -0.123661
C56   C     C_1   0.125456 0.625535 0.500355 -0.123690
C57   C     C_1   0.874539 0.374471 0.499644 -0.123673
C58   C     C_3   0.297039 0.269296 0.547581 0.257835
C59   C     C_3   0.703031 0.730762 0.452207 0.257871
C60   C     C_3   0.702954 0.269305 0.452436 0.257840
C61   C     C_3   0.296964 0.730768 0.547807 0.257856
C62   C     C_3   0.796968 0.769237 0.547793 0.257883
C63   C     C_3   0.202960 0.230703 0.452419 0.257849
C64   C     C_3   0.203035 0.769233 0.452194 0.257843
C65   C     C_R   0.081153 0.581179 0.500091 0.884782
C66   C     C_3   0.797046 0.230694 0.547565 0.257827
C67   C     C_3   0.291703 0.208381 0.499183 -0.233172
C68   C     C_3   0.708289 0.791610 0.500813 -0.233164
C69   C     C_3   0.708298 0.208382 0.500815 -0.233140
C70   C     C_3   0.291709 0.791610 0.499187 -0.233095
C71   C     C_3   0.791710 0.708390 0.499188 -0.233139
C72   C     C_3   0.208296 0.291618 0.500817 -0.233146
C73   C     C_3   0.208290 0.708390 0.500813 -0.233123
C74   C     C_3   0.791703 0.291617 0.499186 -0.233166
C75   C     C_3   0.443565 0.999513 0.029834 0.479106
C76   C     C_R   0.081155 0.418823 0.500091 0.884808
C77   C     C_3   0.556434 0.000487 0.970166 0.479104
C78   C     C_3   0.943599 0.498012 0.029835 0.479088
C79   C     C_3   0.056401 0.501988 0.970165 0.479090
C80   C     C_3   0.500008 0.999999 0.090257 -0.531099
C81   C     C_3   0.499991 0.000000 0.909743 -0.531099
C82   C     C_3   0.000009 0.500000 0.090257 -0.531084
C83   C     C_3   0.999991 0.500001 0.909743 -0.531084
C84   C     C_3   0.151165 0.150322 0.609182 0.183851
C85   C     C_3   0.125417 0.088097 0.626160 -0.822203
C86   C     C_3   0.848974 0.849859 0.391444 0.183875
C87   C     C_R   0.918847 0.581179 0.499909 0.884789
C88   C     C_3   0.874711 0.912117 0.374680 -0.822436
C89   C     C_3   0.848822 0.150326 0.390751 0.183913
C90   C     C_3   0.874581 0.088100 0.373787 -0.822227
C91   C     C_3   0.151012 0.849869 0.608516 0.183772
C92   C     C_3   0.125270 0.912128 0.625263 -0.822484
C93   C     C_3   0.651026 0.650140 0.608556 0.183886
C94   C     C_3   0.625288 0.587882 0.625322 -0.822416
C95   C     C_3   0.348834 0.349677 0.390817 0.183863
C96   C     C_3   0.374581 0.411902 0.373840 -0.822184
C97   C     C_3   0.348987 0.650131 0.391485 0.183757
C98   C     C_1   0.337005 0.163088 0.499334 0.204673
C99   C     C_3   0.374729 0.587873 0.374738 -0.822496
C100  C     C_3   0.651179 0.349673 0.609252 0.183896
C101  C     C_3   0.625422 0.411899 0.626219 -0.822236
C102  C     C_3   0.659448 0.659843 0.360388 0.181813
C103  C     C_3   0.598999 0.635499 0.329943 -0.807120
C104  C     C_3   0.340763 0.340338 0.639031 0.181931
C105  C     C_3   0.401262 0.364729 0.669165 -0.807690
C106  C     C_3   0.340540 0.659858 0.639650 0.181881
C107  C     C_3   0.400987 0.635520 0.670121 -0.807001
C108  C     C_3   0.659213 0.340362 0.361007 0.182113
F1    F     F_    0.615207 0.000994 0.940762 -0.546201
F2    F     F_    0.785283 0.727184 0.328590 -0.636877
F3    F     F_    0.785007 0.273082 0.328546 -0.636710
F4    F     F_    0.214701 0.727202 0.671408 -0.636742
F5    F     F_    0.558476 0.900653 0.059751 -0.543382
F6    F     F_    0.441523 0.099346 0.940249 -0.543365
F7    F     F_    0.443250 0.899660 0.940254 -0.543459
F8    F     F_    0.556749 0.100339 0.059746 -0.543439
F9    F     F_    0.061095 0.402245 0.059762 -0.543262
F10   F     F_    0.938905 0.597755 0.940237 -0.543280
F11   F     F_    0.945936 0.398188 0.940257 -0.543562
F12   F     F_    0.384792 0.999005 0.059238 -0.546204
F13   F     F_    0.054064 0.601812 0.059742 -0.543583
F14   F     F_    0.115140 0.504059 0.940756 -0.546192
F15   F     F_    0.884861 0.495941 0.059244 -0.546188
F16   F     F_    0.714716 0.772816 0.671411 -0.636796
F17   F     F_    0.285033 0.226932 0.328546 -0.636768
F18   F     F_    0.285298 0.772799 0.328593 -0.636835
F19   F     F_    0.714994 0.226917 0.671455 -0.636804
F20   F     F_    0.214966 0.273067 0.671454 -0.636849
H1    H     H_    0.119770 0.174421 0.563658 0.161809
H2    H     H_    0.845302 0.937363 0.327951 0.281535
H3    H     H_    0.880222 0.174441 0.436251 0.161778
H4    H     H_    0.846279 0.174646 0.326079 0.218137
H5    H     H_    0.845118 0.062869 0.327117 0.281535
H6    H     H_    0.920013 0.092073 0.343993 0.216279
H7    H     H_    0.878097 0.062961 0.437615 0.247938
H8    H     H_    0.153427 0.825606 0.673244 0.218109
H9    H     H_    0.119675 0.825739 0.562941 0.161772
H10   H     H_    0.121884 0.937213 0.561374 0.247952
H11   H     H_    0.079785 0.908215 0.654894 0.216163
H12   H     H_    0.153691 0.174653 0.673845 0.218207
H13   H     H_    0.154675 0.937376 0.671994 0.281535
H14   H     H_    0.619683 0.674267 0.562984 0.161745
H15   H     H_    0.653444 0.674409 0.673280 0.218144
H16   H     H_    0.654698 0.562636 0.672051 0.281553
H17   H     H_    0.579806 0.591799 0.654963 0.216168
H18   H     H_    0.621896 0.562791 0.561439 0.247927
H19   H     H_    0.346307 0.325346 0.326155 0.218208
H20   H     H_    0.380229 0.325578 0.436342 0.161789
H21   H     H_    0.378077 0.437049 0.437663 0.247934
H22   H     H_    0.420019 0.407932 0.344064 0.216302
H23   H     H_    0.154884 0.062880 0.672845 0.281567
H24   H     H_    0.345115 0.437118 0.327155 0.281585
H25   H     H_    0.380324 0.674262 0.437060 0.161791
H26   H     H_    0.346573 0.674395 0.326757 0.218105
H27   H     H_    0.345324 0.562624 0.328007 0.281521
H28   H     H_    0.420215 0.591785 0.345107 0.216177
H29   H     H_    0.378115 0.562787 0.438627 0.247957
H30   H     H_    0.653723 0.325352 0.673923 0.218135
H31   H     H_    0.619779 0.325560 0.563752 0.161796
H32   H     H_    0.621905 0.437040 0.562392 0.247942
H33   H     H_    0.579990 0.407927 0.656014 0.216295
H34   H     H_    0.079980 0.092067 0.655936 0.216319
H35   H     H_    0.654886 0.437129 0.672889 0.281521
H36   H     H_    0.680639 0.625335 0.404088 0.161842
H37   H     H_    0.687998 0.666949 0.300574 0.221286
H38   H     H_    0.576786 0.668180 0.284643 0.284918
H39   H     H_    0.605440 0.592445 0.293784 0.217941
H40   H     H_    0.569718 0.627447 0.388655 0.244066
H41   H     H_    0.312316 0.333315 0.698976 0.221244
H42   H     H_    0.319495 0.374780 0.595302 0.161859
H43   H     H_    0.430438 0.372692 0.610309 0.244163
H44   H     H_    0.394883 0.407835 0.705209 0.217892
H45   H     H_    0.121922 0.062950 0.562336 0.247940
H46   H     H_    0.423555 0.332112 0.714478 0.284837
H47   H     H_    0.319359 0.625345 0.595951 0.161866
H48   H     H_    0.311980 0.666971 0.699453 0.221407
H49   H     H_    0.423189 0.668208 0.715419 0.284962
H50   H     H_    0.394544 0.592470 0.706287 0.217967
H51   H     H_    0.430277 0.627464 0.611419 0.244042
H52   H     H_    0.687644 0.333333 0.301045 0.221339
H53   H     H_    0.680493 0.374799 0.404732 0.161860
H54   H     H_    0.569539 0.372728 0.389772 0.244132
H55   H     H_    0.605083 0.407876 0.294877 0.217883
H56   H     H_    0.846555 0.825591 0.326720 0.218144
H57   H     H_    0.576401 0.332162 0.285583 0.284837
H58   H     H_    0.180503 0.125219 0.404699 0.161869
H59   H     H_    0.187682 0.166683 0.301024 0.221290
H60   H     H_    0.076444 0.167887 0.285521 0.284783
H61   H     H_    0.105115 0.092164 0.294792 0.217921
H62   H     H_    0.069560 0.127307 0.389691 0.244169
H63   H     H_    0.812001 0.833050 0.699427 0.221333
H64   H     H_    0.819359 0.874664 0.595912 0.161853
H65   H     H_    0.930281 0.872553 0.611343 0.244073
H66   H     H_    0.894559 0.907554 0.706215 0.217970
H67   H     H_    0.880316 0.825731 0.437016 0.161766
H68   H     H_    0.923214 0.831820 0.715355 0.284863
H69   H     H_    0.819505 0.125202 0.595271 0.161852
H70   H     H_    0.812358 0.166667 0.698958 0.221286
H71   H     H_    0.923604 0.167839 0.714408 0.284888
H72   H     H_    0.894920 0.092126 0.705125 0.217861
H73   H     H_    0.930460 0.127269 0.610222 0.244123
H74   H     H_    0.188019 0.833029 0.300547 0.221357
H75   H     H_    0.180640 0.874655 0.404049 0.161861
H76   H     H_    0.069723 0.872537 0.388583 0.244037
H77   H     H_    0.105455 0.907530 0.293713 0.217943
H78   H     H_    0.878104 0.937207 0.438564 0.247933
H79   H     H_    0.076810 0.831793 0.284583 0.285012
H80   H     H_    0.920194 0.908200 0.345039 0.216186
N1    N     N_1   0.500020 0.000000 0.268010 -0.090293
N2    N     N_1   0.499980 0.000000 0.731990 -0.090294
N3    N     N_1   0.000020 0.500000 0.268010 -0.090294
N4    N     N_1   0.999980 0.500000 0.731990 -0.090294
O1    O     O_R   0.438390 0.938390 0.574460 -0.596446
O2    O     O_R   0.561600 0.061610 0.574480 -0.603257
O3    O     O_R   0.561600 0.938390 0.574480 -0.603276
O4    O     O_R   0.438400 0.061610 0.425520 -0.603272
O5    O     O_R   0.938400 0.438390 0.425520 -0.603232
O6    O     O_R   0.061600 0.561610 0.574480 -0.603235
O7    O     O_R   0.061600 0.438390 0.574480 -0.603295
O8    O     O_R   0.938400 0.561610 0.425520 -0.603298
O9    O     O_3   0.209071 0.144399 0.572337 -0.584841
O10   O     O_3   0.791013 0.855712 0.428122 -0.584840
O11   O     O_3   0.790924 0.144405 0.427622 -0.584840
O12   O     O_R   0.561610 0.061610 0.425540 -0.596442
O13   O     O_3   0.208976 0.855719 0.571848 -0.584842
O14   O     O_3   0.708987 0.644287 0.571878 -0.584807
O15   O     O_3   0.290928 0.355600 0.427663 -0.584808
O16   O     O_3   0.291023 0.644281 0.428153 -0.584872
O17   O     O_3   0.709077 0.355595 0.572379 -0.584871
O18   O     O_3   0.650475 0.714829 0.405151 -0.585853
O19   O     O_3   0.349665 0.285287 0.594415 -0.585865
O20   O     O_3   0.349517 0.714839 0.594878 -0.585888
O21   O     O_3   0.650320 0.285306 0.405619 -0.585881
O22   O     O_3   0.150334 0.214712 0.405585 -0.585888
O23   O     O_R   0.561610 0.938390 0.425540 -0.596434
O24   O     O_3   0.849524 0.785170 0.594849 -0.585877
O25   O     O_3   0.849681 0.214694 0.594381 -0.585865
O26   O     O_3   0.150483 0.785161 0.405123 -0.585870
O27   O     O_R   0.438390 0.061610 0.574460 -0.596434
O28   O     O_R   0.938390 0.438390 0.574460 -0.596467
O29   O     O_R   0.061610 0.561610 0.425540 -0.596470
O30   O     O_R   0.061610 0.438390 0.425540 -0.596412
O31   O     O_R   0.938390 0.561610 0.574460 -0.596413
O32   O     O_R   0.438400 0.938390 0.425520 -0.603259
Zn1   Zn    Zn3+2 0.500000 0.000000 0.599450 1.061030
Zn2   Zn    Zn3+2 0.500000 0.000000 0.400550 1.061031
Zn3   Zn    Zn3+2 0.000000 0.500000 0.599450 1.061032
Zn4   Zn    Zn3+2 0.000000 0.500000 0.400550 1.061030

loop_
_geom_bond_atom_site_label_1
_geom_bond_atom_site_label_2
_ccdc_geom_bond_type
C61   C70   S    
C94   H18   S    
C12   C69   S    
C103  H39   S    
C93   C94   S    
C33   C46   S    
C105  H44   S    
C20   C82   S    
C45   C71   S    
C19   N2    T    
C14   C71   S    
C6    C7    S    
C8    H70   S    
C95   C96   S    
C100  H31   S    
O5    Zn4   S    
C88   H2    S    
C27   C78   S    
C92   H10   S    
C85   H23   S    
C3    H54   S    
C8    O25   S    
C44   C64   S    
C15   C72   S    
C89   H4    S    
C108  H53   S    
C25   C77   S    
C4    H59   S    
C100  O17   S    
C21   O12   A    
C24   C26   S    
C5    H62   S    
C38   C42   S    
C36   C58   S    
C84   O9    S    
C102  H36   S    
C38   C74   S    
C65   O6    A    
C59   C68   S    
C86   C88   S    
C21   C51   S    
C27   C29   S    
C106  C107  S    
C43   O4    A    
C76   O7    A    
O4    Zn2   S    
C56   C65   S    
C96   H24   S    
C84   H1    S    
C61   O20   S    
C108  H52   S    
C20   N3    T    
C4    H58   S    
C30   C83   S    
C28   C79   S    
C36   C40   S    
C58   O19   S    
C2    C50   T    
C67   C98   S    
C49   C98   T    
C91   H9    S    
C32   O3    A    
C93   O14   S    
C24   C80   S    
C91   H8    S    
C101  H32   S    
O32   Zn2   S    
C8    C9    S    
C40   C67   S    
C22   N4    T    
C6    H63   S    
O28   Zn3   S    
C85   H45   S    
C64   C73   S    
C44   C70   S    
C97   H25   S    
C7    H65   S    
C105  H43   S    
C10   H75   S    
C34   C70   S    
O23   Zn2   S    
C64   O26   S    
C41   O10   S    
C93   H15   S    
C9    H72   S    
C33   C63   S    
C11   H76   S    
C94   H17   S    
C39   C73   S    
O8    Zn4   S    
C103  H40   S    
C25   C80   S    
C107  H49   S    
C84   H12   S    
C86   H56   S    
C85   H34   S    
C31   C62   S    
C8    H69   S    
C36   F20   S    
C11   H79   S    
C41   C62   S    
C88   H80   S    
N4    Zn3   S    
C35   C48   S    
C3    H57   S    
C33   F17   S    
C104  C105  S    
C97   C99   S    
C48   C60   S    
C41   C68   S    
C31   C68   S    
C39   C61   S    
C79   F14   S    
C86   O10   S    
C62   O24   S    
C95   H20   S    
C28   C82   S    
C16   C73   S    
C16   C56   T    
C48   C74   S    
C47   C61   S    
C101  H35   S    
C18   N1    T    
C95   H19   S    
C84   C85   S    
C47   C73   S    
C23   C75   S    
C91   C92   S    
C36   C72   S    
C90   H5    S    
C28   F13   S    
C43   C49   S    
C104  O19   S    
C54   O28   A    
C30   F10   S    
C35   C66   S    
C97   H26   S    
C29   F9    S    
C42   C69   S    
O30   Zn4   S    
C99   H27   S    
C15   C55   T    
N3    Zn4   S    
C76   O30   A    
C101  H33   S    
C26   F6    S    
C89   O11   S    
C92   H13   S    
C1    O32   A    
C25   F5    S    
C86   H67   S    
C13   C52   T    
C10   H74   S    
C78   C82   S    
C46   O15   S    
C87   O31   A    
C29   C79   S    
C77   C81   S    
C34   F18   S    
C96   H22   S    
C99   H28   S    
C14   C53   T    
C34   C64   S    
C26   C75   S    
C53   C87   S    
C87   O8    A    
C7    H66   S    
C77   F1    S    
C78   F15   S    
C40   C63   S    
C32   C50   S    
C37   F2    S    
C37   C59   S    
C9    H73   S    
C38   C60   S    
C48   O17   S    
O12   Zn2   S    
C39   F4    S    
C13   C70   S    
C10   O26   S    
C102  H37   S    
O31   Zn3   S    
C105  H46   S    
C37   C71   S    
C107  H50   S    
C1    O1    A    
C17   C74   S    
C43   O27   A    
O7    Zn3   S    
C55   C76   S    
N2    Zn1   S    
C42   O11   S    
C35   F19   S    
C12   C51   T    
C33   C67   S    
C54   O5    A    
C104  H42   S    
C44   O13   S    
C75   C80   S    
C6    O24   S    
C108  O21   S    
C45   C59   S    
C23   C81   S    
C107  H51   S    
C4    O22   S    
C7    H68   S    
C75   F12   S    
C88   H78   S    
C4    C5    S    
C31   F16   S    
C106  H47   S    
C24   F8    S    
C39   C44   S    
C27   F11   S    
C3    C108  S    
C26   C81   S    
C11   H77   S    
C2    C68   S    
C89   H3    S    
O27   Zn1   S    
C40   O9    S    
C47   O16   S    
O29   Zn4   S    
C94   H16   S    
O6    Zn3   S    
C99   H29   S    
C89   C90   S    
C5    H61   S    
C29   C82   S    
C66   O25   S    
C22   C83   S    
C63   O22   S    
C79   C83   S    
C90   H7    S    
C59   O18   S    
O3    Zn1   S    
C65   O29   A    
C60   C69   S    
C90   H6    S    
C96   H21   S    
N1    Zn2   S    
C28   C30   S    
C100  C101  S    
C106  O20   S    
C62   C71   S    
O2    Zn1   S    
C45   O14   S    
C23   C25   S    
C37   C41   S    
C102  C103  S    
C91   O13   S    
C1    C52   S    
C95   O15   S    
C10   C11   S    
C23   F7    S    
C27   C83   S    
C30   C78   S    
C100  H30   S    
C58   C67   S    
C97   O16   S    
C63   C72   S    
C35   C69   S    
C103  H38   S    
C18   C80   S    
C31   C45   S    
C6    H64   S    
C24   C77   S    
C42   C66   S    
C106  H48   S    
C21   O2    A    
O1    Zn1   S    
C102  O18   S    
C34   C47   S    
C46   C72   S    
C5    H60   S    
C38   F3    S    
C19   C81   S    
C92   H11   S    
C3    H55   S    
C60   O21   S    
C32   O23   A    
C46   C58   S    
C93   H14   S    
C9    H71   S    
C17   C57   T    
C104  H41   S    
C54   C57   S    
C66   C74   S    
