data_mof_unit_35394.cif
_audit_creation_date              2012-10-26T20:13:50-0400
_audit_creation_method            fapswitch 2.2
_symmetry_space_group_name_H-M    P1
_symmetry_Int_Tables_number       1
_space_group_crystal_system       triclinic
_cell_length_a                    8.715952
_cell_length_b                    10.8862
_cell_length_c                    9.569675
_cell_angle_alpha                 90.956374
_cell_angle_beta                  98.009948
_cell_angle_gamma                 90.396707
_cell_volume                      898.982096355

loop_
_atom_site_label
_atom_site_type_symbol
_atom_type_description
_atom_site_fract_x
_atom_site_fract_y
_atom_site_fract_z
_atom_type_partial_charge
C1    C     C_R   0.501903 0.262310 0.498455 0.551606
C2    C     C_R   0.581097 0.587117 0.939539 0.184874
C3    C     C_3   0.753535 0.611957 0.968575 -0.140382
C4    C     C_R   0.204036 0.498009 0.463807 0.550277
C5    C     C_3   0.733383 0.635712 0.121815 -0.256224
C6    C     C_R   0.500100 0.737339 0.500765 0.561147
C7    C     C_R   0.796192 0.500182 0.536163 0.538182
C8    C     C_2   0.038322 0.491627 0.444329 -0.155323
C9    C     C_2   0.962405 0.503456 0.555557 -0.169382
C10   C     C_R   0.459895 0.066123 0.610421 -0.061462
C11   C     C_R   0.495658 0.128550 0.492374 0.004662
C12   C     C_R   0.514583 0.930636 0.374088 -0.153152
C13   C     C_R   0.519037 0.058826 0.369506 -0.035685
C14   C     C_3   0.857633 0.499488 0.956668 -0.395688
C15   C     C_3   0.558815 0.115215 0.235642 -0.375108
C16   C     C_3   0.419713 0.886123 0.860553 -0.328921
C17   C     C_3   0.800270 0.940263 0.732408 -0.014547
C18   C     C_3   0.921153 0.845195 0.707237 -0.380146
C19   C     C_R   0.493806 0.870088 0.498373 -0.005943
C20   C     C_R   0.460668 0.939322 0.613928 0.025793
C21   C     C_3   0.531248 0.940237 0.766615 0.273860
C22   C     C_3   0.526760 0.081312 0.762912 -0.219793
C23   C     C_R   0.570561 0.593336 0.084703 0.141822
C24   C     C_R   0.411217 0.419035 0.061504 -0.024330
C25   C     C_R   0.410092 0.419766 0.912574 -0.028002
Cu1   Cu    Cu3+1 0.499990 0.499980 0.640670 0.938523
Cu2   Cu    Cu3+1 0.500010 0.500020 0.359330 0.919560
H1    H     H_    0.979301 0.474827 0.338400 0.109717
H2    H     H_    0.340685 0.352630 0.106855 0.106492
H3    H     H_    0.962631 0.506377 0.037008 0.114367
H4    H     H_    0.795781 0.412196 0.972225 0.149350
H5    H     H_    0.901096 0.496449 0.854376 0.155838
H6    H     H_    0.661810 0.176504 0.259656 0.153724
H7    H     H_    0.588056 0.044835 0.158526 0.106612
H8    H     H_    0.458043 0.166356 0.183217 0.142025
H9    H     H_    0.468859 0.898774 0.973261 0.117197
H10   H     H_    0.304578 0.930945 0.842361 0.078155
H11   H     H_    0.402073 0.786500 0.837762 0.158071
H12   H     H_    0.339039 0.353603 0.846680 0.112910
H13   H     H_    0.857323 0.011467 0.806957 0.126400
H14   H     H_    0.760467 0.983178 0.629459 0.134705
H15   H     H_    0.866048 0.769071 0.638968 0.166722
H16   H     H_    0.012747 0.888488 0.654116 0.098231
H17   H     H_    0.976107 0.807718 0.809103 0.137343
H18   H     H_    0.791169 0.694962 0.917142 0.190063
H19   H     H_    0.803144 0.576408 0.197541 0.164677
H20   H     H_    0.740016 0.734858 0.152203 0.109081
H21   H     H_    0.023233 0.518095 0.661462 0.113600
H22   H     H_    0.535484 0.877933 0.281625 0.136269
H23   H     H_    0.441384 0.123300 0.825176 0.099722
H24   H     H_    0.639804 0.130556 0.778197 0.120806
N1    N     N_R   0.500980 0.500930 0.148050 -0.233045
N2    N     N_R   0.500990 0.500890 0.852140 -0.235737
O1    O     O_R   0.500000 0.319640 0.618810 -0.508056
O2    O     O_R   0.500020 0.319680 0.381230 -0.510088
O3    O     O_R   0.274830 0.499980 0.591380 -0.506368
O4    O     O_R   0.274850 0.500020 0.353800 -0.500608
O5    O     O_R   0.499980 0.680320 0.618770 -0.474668
O6    O     O_R   0.500000 0.680360 0.381190 -0.513636
O7    O     O_R   0.725150 0.499980 0.646200 -0.500043
O8    O     O_R   0.725170 0.500020 0.408620 -0.508823
O9    O     O_3   0.679287 0.882646 0.792988 -0.557221

loop_
_geom_bond_atom_site_label_1
_geom_bond_atom_site_label_2
_ccdc_geom_bond_type
C4    O4    A    
C24   N1    A    
C1    O1    A    
C24   C25   A    
C16   C21   S    
C18   H17   S    
C17   O9    S    
C5    H20   S    
C5    H19   S    
C16   H10   S    
C15   H7    S    
C19   C20   A    
C5    C23   S    
C17   H13   S    
C22   H23   S    
C14   H4    S    
C4    C8    S    
C10   C22   S    
C18   H15   S    
C17   C18   S    
C23   N1    A    
C4    O3    A    
Cu2   O6    S    
C18   H16   S    
C25   H12   S    
C6    C19   S    
Cu1   O5    S    
Cu1   Cu2   S    
C3    C14   S    
Cu1   O3    S    
C14   H3    S    
Cu1   O1    S    
C12   C19   A    
C15   H8    S    
C3    H18   S    
C12   H22   S    
C2    C3    S    
C13   C15   S    
C1    O2    A    
Cu2   N1    S    
C8    H1    S    
C17   H14   S    
C22   H24   S    
C10   C11   A    
Cu2   O2    S    
C12   C13   A    
Cu1   N2    S    
C7    O7    A    
C11   C13   A    
C14   H5    S    
C20   C21   S    
C9    H21   S    
Cu2   O4    S    
C16   H11   S    
C2    C23   A    
C7    C9    S    
C6    O5    A    
C24   H2    S    
C7    O8    A    
Cu2   O8    S    
C21   O9    S    
C21   C22   S    
Cu1   O7    S    
C6    O6    A    
C15   H6    S    
C16   H9    S    
C25   N2    A    
C10   C20   A    
C8    C9    D    
C3    C5    S    
C2    N2    A    
C1    C11   S    
