data_mof_unit_44410.cif
_audit_creation_date              2013-03-05T16:43:53-0500
_audit_creation_method            fapswitch 2.2
_symmetry_space_group_name_H-M    P1
_symmetry_Int_Tables_number       1
_space_group_crystal_system       triclinic
_cell_length_a                    9.882069
_cell_length_b                    10.680006
_cell_length_c                    16.919112
_cell_angle_alpha                 90.150783
_cell_angle_beta                  83.359733
_cell_angle_gamma                 89.565593
_cell_volume                      1773.61183305

loop_
_atom_site_label
_atom_site_type_symbol
_atom_site_description
_atom_site_fract_x
_atom_site_fract_y
_atom_site_fract_z
_atom_type_partial_charge
O1    O     O_R   0.385310 0.683210 0.499990 -0.602869
O2    O     O_R   0.614650 0.683240 0.500000 -0.642114
C1    C     C_R   0.500236 0.740109 0.497542 0.906539
O3    O     O_R   0.371780 0.500000 0.615800 -0.624058
O4    O     O_R   0.601120 0.500040 0.615800 -0.591264
C2    C     C_R   0.479114 0.493769 0.652534 0.893008
Zn1   Zn    Zn3+2 0.346870 0.499980 0.499990 1.011076
Zn2   Zn    Zn3+2 0.653130 0.500020 0.500010 1.053072
O5    O     O_R   0.385350 0.316760 0.500000 -0.620485
O6    O     O_R   0.614690 0.316790 0.500010 -0.550351
O7    O     O_R   0.398880 0.499960 0.384200 -0.601352
O8    O     O_R   0.628220 0.500000 0.384200 -0.587872
C3    C     C_R   0.501107 0.260075 0.496561 0.937333
C4    C     C_R   0.520725 0.501659 0.347315 0.962956
C5    C     C_R   0.460897 0.463341 0.736519 -0.158566
C6    C     C_R   0.548149 0.376385 0.768436 0.287892
C7    C     C_R   0.527364 0.349997 0.849162 -0.192599
C8    C     C_R   0.422372 0.409754 0.898135 0.108389
C9    C     C_R   0.330625 0.488904 0.865487 -0.120986
C10   C     C_R   0.349867 0.515726 0.784787 -0.220412
C11   C     C_R   0.449434 0.529245 0.136623 -0.230740
C12   C     C_R   0.449126 0.559970 0.216503 0.311134
C13   C     C_R   0.626910 0.402677 0.225622 -0.229415
C14   C     C_R   0.627801 0.372046 0.145577 0.336000
C15   C     C_R   0.535434 0.434290 0.101532 -0.009429
C16   C     C_2   0.418736 0.404101 0.984231 -0.175420
C17   C     C_2   0.535331 0.409559 0.017066 -0.097270
C18   C     C_R   0.536341 0.492968 0.261494 -0.213243
H1    H     H_    0.690431 0.349416 0.261271 0.250725
H2    H     H_    0.321155 0.413833 0.020729 0.182059
H3    H     H_    0.594451 0.283745 0.873923 0.195982
C19   C     C_R   0.383651 0.937213 0.476291 0.160567
C20   C     C_R   0.503501 0.871484 0.484064 -0.098371
C21   C     C_R   0.628628 0.934307 0.475335 -0.187567
H4    H     H_    0.724835 0.884906 0.475116 0.188665
C22   C     C_R   0.629167 0.063649 0.474878 -0.076845
H5    H     H_    0.725462 0.111309 0.474961 0.242660
C23   C     C_R   0.504655 0.128816 0.482542 -0.173526
C24   C     C_R   0.384360 0.065159 0.474765 0.099145
C25   C     C_3   0.247486 0.074562 0.523105 0.140213
C26   C     C_3   0.247609 0.932479 0.525030 -0.551535
H6    H     H_    0.249790 0.120208 0.582128 0.122173
H7    H     H_    0.253922 0.894468 0.585626 0.176631
H8    H     H_    0.169433 0.888904 0.491660 0.244141
C27   C     C_R   0.915163 0.526014 0.567998 0.230755
N1    N     N_R   0.857140 0.500860 0.500530 -0.178626
C28   C     C_R   0.942419 0.459468 0.435324 0.338164
C29   C     C_R   0.085987 0.462306 0.435120 -0.075126
H9    H     H_    0.151314 0.431746 0.382842 0.213413
N2    N     N_R   0.142780 0.500820 0.500530 -0.147989
C30   C     C_R   0.057349 0.524960 0.568237 0.216918
C31   C     C_3   0.052332 0.641848 0.616788 -0.503300
C32   C     C_3   0.898688 0.643181 0.616054 -0.467242
H10   H     H_    0.083850 0.625276 0.676859 0.211305
H11   H     H_    0.841749 0.627245 0.675719 0.225500
H12   H     H_    0.861158 0.723092 0.582387 0.213058
N3    N     N_R   0.654938 0.311343 0.719825 0.213889
O9    O     O_R   0.774323 0.298655 0.744332 -0.372098
O10   O     O_R   0.625894 0.244350 0.659872 -0.394165
N4    N     N_R   0.717927 0.274371 0.111554 0.213760
O11   O     O_R   0.679802 0.197900 0.058499 -0.356890
O12   O     O_R   0.832409 0.252313 0.140224 -0.301145
N5    N     N_R   0.141133 0.125134 0.478450 0.245117
O13   O     O_R   0.170249 0.169380 0.406924 -0.343207
O14   O     O_R   0.015651 0.128887 0.511552 -0.369891
N6    N     N_R   0.888516 0.407319 0.368073 0.227220
O15   O     O_R   0.823139 0.302185 0.376372 -0.362544
O16   O     O_R   0.935762 0.443744 0.296942 -0.351344
N7    N     N_R   0.361820 0.659567 0.250522 0.222737
O17   O     O_R   0.248314 0.685343 0.221719 -0.333055
O18   O     O_R   0.402097 0.733687 0.304190 -0.379406
H13   H     H_    0.103723 0.720831 0.583799 0.214008
H14   H     H_    0.633585 0.404257 0.981008 0.181000
H15   H     H_    0.248860 0.535124 0.903066 0.158638
H16   H     H_    0.384601 0.581878 0.101047 0.195268
H17   H     H_    0.280666 0.580386 0.760447 0.161207

loop_
_geom_bond_atom_site_label_1
_geom_bond_atom_site_label_2
_geom_bond_distance
_ccdc_geom_bond_type
N6    O16   1.301130 A    
N5    O14   1.300544 A    
C9    C10   1.387549 A    
C8    C16   1.454374 S    
C27   N1    1.362375 A    
Zn1   O7    1.967034 S    
C16   C17   1.337330 D    
C25   N5    1.464348 S    
C13   H1    1.079514 S    
C22   H5    1.082714 S    
C8    C9    1.395845 A    
O4    C2    1.293271 A    
O7    C4    1.290810 A    
N3    O10   1.299948 A    
C1    C20   1.422099 S    
C5    C6    1.412680 A    
C10   H17   1.083329 S    
N4    O12   1.301594 A    
C21   H4    1.083426 S    
C19   C24   1.366836 A    
N7    O18   1.301592 A    
O5    C3    1.285438 A    
C2    C5    1.449580 S    
C6    C7    1.387479 A    
C13   C14   1.391419 A    
C12   N7    1.440519 S    
C14   N4    1.441166 S    
C25   H6    1.112774 S    
N6    O15   1.299507 A    
C27   C32   1.488077 S    
C12   C18   1.406958 A    
C11   C12   1.389587 A    
C26   H7    1.111936 S    
O3    Zn1   2.002847 S    
C31   H10   1.111132 S    
C20   C21   1.404217 A    
C32   H11   1.111578 S    
C5    C10   1.401722 A    
C30   C31   1.489930 S    
C14   C15   1.407515 A    
O3    C2    1.291264 A    
C24   C25   1.500065 S    
N2    C30   1.364896 A    
N4    O11   1.301440 A    
O1    C1    1.288625 A    
C31   H13   1.106543 S    
C28   C29   1.418907 A    
Zn2   O8    2.002847 S    
C7    C8    1.399535 A    
C13   C18   1.399101 A    
C3    C23   1.420657 S    
C25   C26   1.517870 S    
O8    C4    1.292777 A    
C16   H2    1.087391 S    
C7    H3    1.083674 S    
C26   H8    1.112251 S    
C19   C26   1.494917 S    
C31   C32   1.519765 S    
C32   H12   1.112198 S    
Zn1   O5    1.990568 S    
C11   C15   1.403659 A    
N1    C28   1.378218 A    
C29   H9    1.081123 S    
C28   N6    1.424758 S    
O1    Zn1   1.996251 S    
C9    H15   1.083647 S    
O2    Zn2   1.990567 S    
Zn1   N2    2.015747 S    
O6    C3    1.286634 A    
O4    Zn2   1.967034 S    
C15   C17   1.452733 S    
C11   H16   1.083638 S    
C19   C20   1.391646 A    
C22   C23   1.401717 A    
O2    C1    1.284356 A    
N3    O9    1.301200 A    
C23   C24   1.393055 A    
C29   N2    1.361495 A    
C21   C22   1.381470 A    
C6    N3    1.434490 S    
N7    O17   1.301488 A    
Zn2   N1    2.017165 S    
N5    O13   1.301962 A    
Zn2   O6    1.996252 S    
C27   C30   1.405525 A    
C4    C18   1.445014 S    
C17   H14   1.086338 S    
