data_mof_unit_63745.cif
_audit_creation_date              2012-12-10T18:44:26-0500
_audit_creation_method            fapswitch 2.2
_symmetry_space_group_name_H-M    P1
_symmetry_Int_Tables_number       1
_space_group_crystal_system       triclinic
_cell_length_a                    12.967479
_cell_length_b                    19.410042
_cell_length_c                    18.202489
_cell_angle_alpha                 90.327206
_cell_angle_beta                  96.052894
_cell_angle_gamma                 90.265181
_cell_volume                      4555.87435762

loop_
_atom_site_label
_atom_site_type_symbol
_atom_type_description
_atom_site_fract_x
_atom_site_fract_y
_atom_site_fract_z
_atom_type_partial_charge
C1    C     C_R   0.501162 0.367315 0.499764 0.875957
C2    C     C_R   0.501614 0.632444 0.500279 0.892311
C3    C     C_R   0.493219 0.852084 0.509052 0.000919
C4    C     C_R   0.488891 0.146977 0.507194 0.004600
C5    C     C_R   0.546739 0.820356 0.454711 0.298254
C6    C     C_R   0.520383 0.178178 0.443633 0.293784
C7    C     C_R   0.551458 0.748019 0.451058 0.227825
C8    C     C_R   0.525407 0.250530 0.439378 0.247948
C9    C     C_R   0.500870 0.708113 0.501527 -0.138743
C10   C     C_R   0.498667 0.291196 0.499709 -0.128838
C11   C     C_R   0.573121 0.965295 0.551079 0.384342
C12   C     C_R   0.398145 0.033835 0.480265 0.382356
C13   C     C_R   0.570790 0.037230 0.549326 0.295443
C14   C     C_R   0.401353 0.961863 0.480754 0.294739
C15   C     C_R   0.484707 0.071682 0.513378 -0.220398
C16   C     C_R   0.488686 0.927423 0.514914 -0.220505
C17   C     C_R   0.579051 0.467844 0.724944 -0.045770
C18   C     C_R   0.584473 0.527859 0.288384 0.014131
C19   C     C_R   0.586793 0.469159 0.802412 0.161917
C20   C     C_R   0.592685 0.529071 0.211994 0.188578
C21   C     C_R   0.508549 0.500740 0.838924 -0.003695
C22   C     C_R   0.509789 0.505067 0.161925 -0.154009
C23   C     C_R   0.300918 0.497662 0.486395 0.927719
C24   C     C_R   0.699066 0.502214 0.513692 0.927230
C25   C     C_R   0.425642 0.532537 0.795237 0.110148
C26   C     C_R   0.421098 0.479430 0.191419 0.199360
C27   C     C_R   0.425691 0.534623 0.716982 0.551217
C28   C     C_R   0.419846 0.473936 0.268489 0.537407
C29   C     C_R   0.523598 0.564127 0.961016 0.434653
C30   C     C_R   0.514892 0.440417 0.040414 0.434637
C31   C     C_R   0.519161 0.566521 0.038766 0.340978
C32   C     C_R   0.506569 0.438935 0.962684 0.396048
C33   C     C_R   0.516250 0.504214 0.079559 -0.163735
C34   C     C_R   0.513013 0.500867 0.922165 -0.128465
C35   C     C_R   0.811177 0.508702 0.521278 -0.238932
C36   C     C_R   0.188914 0.490195 0.479289 -0.222345
C37   C     C_R   0.036297 0.418186 0.452405 0.475673
C38   C     C_R   0.964999 0.579122 0.550794 0.475537
C39   C     C_R   0.143924 0.427367 0.454969 0.095031
C40   C     C_R   0.857525 0.569584 0.550371 0.102557
C41   C     C_R   0.129015 0.543479 0.504175 0.283841
C42   C     C_R   0.869985 0.455890 0.494269 0.260983
C43   C     C_R   0.023523 0.530975 0.513612 -0.108665
C44   C     C_R   0.976248 0.467551 0.486653 -0.109615
C45   C     C_R   0.448770 0.741007 0.555561 -0.145591
C46   C     C_R   0.467464 0.258368 0.562413 -0.170908
C47   C     C_R   0.444952 0.812328 0.559254 -0.135171
C48   C     C_R   0.462438 0.187128 0.566005 -0.134701
Cu1   Cu    Cu3+1 0.499970 0.500000 0.573360 1.050828
Cu2   Cu    Cu3+1 0.500030 0.500000 0.426640 1.052678
H1    H     H_    0.638256 0.442085 0.697579 0.195335
H2    H     H_    0.647578 0.548691 0.325405 0.208612
H3    H     H_    0.409927 0.711346 0.594835 0.212248
H4    H     H_    0.445843 0.287898 0.609032 0.190825
H5    H     H_    0.404155 0.836751 0.601305 0.192546
H6    H     H_    0.438134 0.163052 0.614954 0.188802
N1    N     N_R   0.499990 0.500020 0.683620 -0.225564
N2    N     N_R   0.500010 0.499980 0.316380 -0.271769
O1    O     O_R   0.499960 0.400180 0.561970 -0.599511
O2    O     O_R   0.500040 0.599820 0.438030 -0.556004
O3    O     O_R   0.500010 0.400190 0.438070 -0.564782
O4    O     O_R   0.499990 0.599810 0.561930 -0.539701
O5    O     O_R   0.348980 0.499990 0.551890 -0.520144
O6    O     O_R   0.651020 0.500010 0.448110 -0.575368
O7    O     O_R   0.349030 0.499990 0.427990 -0.558704
O8    O     O_R   0.650970 0.500010 0.572010 -0.571268
Br1   Br    Br    0.800837 0.367345 0.475987 -0.314482
Br2   Br    Br    0.194939 0.633509 0.517671 -0.339691
Br3   Br    Br    0.706718 0.428444 0.855577 -0.328569
Br4   Br    Br    0.719455 0.562430 0.179191 -0.311397
Br5   Br    Br    0.309238 0.567721 0.841831 -0.361294
Br6   Br    Br    0.300815 0.449511 0.127915 -0.254151
O9    O     O_3   0.352752 0.571312 0.672795 -0.660308
H7    H     H_    0.316683 0.603776 0.703207 0.359685
O10   O     O_3   0.337654 0.440115 0.293774 -0.631091
H8    H     H_    0.366271 0.413389 0.337012 0.380390
O11   O     O_3   0.535124 0.623311 0.920523 -0.644419
H9    H     H_    0.547980 0.663473 0.953994 0.399973
O12   O     O_3   0.517881 0.377505 0.075887 -0.580469
H10   H     H_    0.543939 0.383794 0.128559 0.351110
O13   O     O_3   0.516185 0.630633 0.072171 -0.654840
H11   H     H_    0.494349 0.626224 0.122331 0.369341
O14   O     O_3   0.492949 0.375098 0.928798 -0.588939
H12   H     H_    0.469852 0.380781 0.875675 0.336976
Br7   Br    Br    0.772368 0.642381 0.584520 -0.423521
Br8   Br    Br    0.230148 0.350559 0.432833 -0.455998
O15   O     O_3   0.989283 0.361431 0.416948 -0.609688
H13   H     H_    0.032431 0.344155 0.379140 0.386201
O16   O     O_3   0.014247 0.634072 0.588372 -0.622563
H14   H     H_    0.972385 0.650693 0.627175 0.378075
Br9   Br    Br    0.613097 0.876367 0.385940 -0.242035
Br10  Br    Br    0.558001 0.121087 0.363516 -0.238819
Br11  Br    Br    0.633127 0.705544 0.380613 -0.333755
Br12  Br    Br    0.572313 0.290762 0.351736 -0.293756
O17   O     O_3   0.660134 0.934388 0.587000 -0.616712
H15   H     H_    0.649503 0.884073 0.590071 0.351753
O18   O     O_3   0.310449 0.064784 0.445393 -0.611866
H16   H     H_    0.313482 0.115183 0.453500 0.354703
Br13  Br    Br    0.689111 0.087923 0.594867 -0.262968
Br14  Br    Br    0.285566 0.911089 0.431698 -0.241970

loop_
_geom_bond_atom_site_label_1
_geom_bond_atom_site_label_2
_ccdc_geom_bond_type
C38   C40   A    
O15   H13   S    
C9    C45   A    
Cu1   O5    S    
C26   Br6   S    
O9    H7    S    
O17   H15   S    
C43   C44   A    
C17   H1    S    
O18   H16   S    
C18   H2    S    
O11   H9    S    
C38   O16   S    
Cu2   O6    S    
C19   C21   A    
C1    O1    A    
C2    O2    A    
Cu1   N1    S    
C7    C9    A    
C32   O14   S    
C35   C42   A    
C18   N2    A    
C10   C46   A    
C31   C33   A    
C25   Br5   S    
C24   O8    A    
C23   O5    A    
C45   H3    S    
C24   O6    A    
C41   C43   A    
C20   Br4   S    
C36   C41   A    
C42   C44   A    
O13   H11   S    
C41   Br2   S    
C45   C47   A    
C7    Br11  S    
C46   C48   A    
C24   C35   S    
Cu1   O8    S    
Cu2   N2    S    
C2    C9    S    
C8    Br12  S    
C4    C6    A    
C27   N1    A    
C5    C7    A    
C6    C8    A    
C21   C34   S    
C29   C34   A    
C1    O3    A    
C32   C34   A    
C40   Br7   S    
C13   Br13  S    
O10   H8    S    
C11   C16   A    
O14   H12   S    
C12   C15   A    
C46   H4    S    
C12   O18   S    
C5    Br9   S    
C30   O12   S    
C8    C10   A    
C20   C22   A    
Cu1   Cu2   S    
C13   C15   A    
C42   Br1   S    
C14   C16   A    
C19   Br3   S    
C47   H5    S    
C4    C48   A    
C11   O17   S    
C48   H6    S    
C22   C33   S    
C21   C25   A    
Cu1   O4    S    
C30   C33   A    
C37   O15   S    
C36   C39   A    
C1    C10   S    
C12   C14   A    
C3    C5    A    
C31   O13   S    
C14   Br14  S    
C28   N2    A    
C25   C27   A    
C26   C28   A    
Cu1   O1    S    
Cu2   O2    S    
C23   O7    A    
C37   C44   A    
C35   C40   A    
C38   C43   A    
C29   C31   A    
C30   C32   A    
C11   C13   A    
C4    C15   S    
C6    Br10  S    
C3    C47   A    
C17   C19   A    
C18   C20   A    
Cu2   O7    S    
O12   H10   S    
C29   O11   S    
C37   C39   A    
C23   C36   S    
C22   C26   A    
Cu2   O3    S    
C39   Br8   S    
O16   H14   S    
C27   O9    S    
C28   O10   S    
C3    C16   S    
C2    O4    A    
C17   N1    A    
