data_mof_unit_7420.cif
_audit_creation_date              2012-12-10T17:50:13-0500
_audit_creation_method            fapswitch 2.2
_symmetry_space_group_name_H-M    P1
_symmetry_Int_Tables_number       1
_space_group_crystal_system       triclinic
_cell_length_a                    10.610866
_cell_length_b                    14.708807
_cell_length_c                    14.557791
_cell_angle_alpha                 65.373487
_cell_angle_beta                  103.409159
_cell_angle_gamma                 102.535834
_cell_volume                      1990.3984538

loop_
_atom_site_label
_atom_site_type_symbol
_atom_type_description
_atom_site_fract_x
_atom_site_fract_y
_atom_site_fract_z
_atom_type_partial_charge
C1    C     C_R   0.482390 0.119157 0.311397 0.795782
C2    C     C_R   0.515144 0.880996 0.688216 0.789601
C3    C     C_R   0.469799 0.287372 0.174489 -0.294568
C4    C     C_R   0.520759 0.713253 0.825821 -0.286492
C5    C     C_R   0.476491 0.359611 0.074608 0.088881
C6    C     C_R   0.493303 0.639491 0.920839 0.089001
C7    C     C_R   0.491424 0.326240 0.000087 0.127687
C8    C     C_R   0.467131 0.672274 0.992197 0.122998
C9    C     C_R   0.472111 0.464225 0.047309 0.073836
C10   C     C_R   0.490567 0.534356 0.946637 0.073423
C11   C     C_R   0.501287 0.496799 0.874080 -0.220582
C12   C     C_R   0.448920 0.501112 0.116746 -0.216808
C13   C     C_R   0.501393 0.394836 0.900549 -0.222710
C14   C     C_R   0.445639 0.602894 0.089147 -0.221973
C15   C     C_R   0.719776 0.285386 0.668432 -0.328050
C16   C     C_R   0.282066 0.715572 0.330097 -0.326279
C17   C     C_R   0.686347 0.204294 0.637766 0.082672
C18   C     C_R   0.316458 0.797176 0.359990 0.072034
C19   C     C_R   0.516726 0.284433 0.509986 0.006564
C20   C     C_R   0.481049 0.714459 0.491712 0.009088
C21   C     C_R   0.547503 0.370657 0.536099 -0.022905
C22   C     C_R   0.450233 0.628243 0.465588 -0.023030
C23   C     C_R   0.259487 0.000698 0.499855 0.774860
C24   C     C_R   0.740467 0.999380 0.500002 0.774749
C25   C     C_R   0.650459 0.368463 0.618378 0.164678
C26   C     C_R   0.348656 0.631121 0.382257 0.168817
C27   C     C_R   0.480336 0.457891 0.484528 0.081724
C28   C     C_R   0.516603 0.540615 0.517759 0.079049
C29   C     C_R   0.617882 0.532870 0.601886 -0.243769
C30   C     C_R   0.379012 0.465591 0.400450 -0.239218
C31   C     C_R   0.683550 0.448842 0.650488 -0.206123
C32   C     C_R   0.314619 0.550248 0.350884 -0.211166
C33   C     C_3   0.015695 0.010099 0.406892 -0.170862
C34   C     C_3   0.984119 0.990163 0.592510 -0.173139
C35   C     C_3   0.960742 0.086985 0.428665 -0.169153
C36   C     C_3   0.039024 0.913268 0.570732 -0.168601
C37   C     C_3   0.877003 0.998771 0.499522 0.022645
C38   C     C_3   0.122824 0.001484 0.499919 0.023750
C39   C     C_3   0.929582 0.921848 0.477710 -0.134274
C40   C     C_3   0.070200 0.078425 0.521681 -0.136801
C41   C     C_R   0.480100 0.185618 0.201767 -0.085372
C42   C     C_R   0.507498 0.814698 0.796429 -0.091251
C43   C     C_R   0.497898 0.224392 0.025437 -0.231572
C44   C     C_R   0.459914 0.774244 0.965639 -0.225968
C45   C     C_R   0.494384 0.153148 0.125683 0.151825
C46   C     C_R   0.474960 0.845870 0.867292 0.151583
Cu1   Cu    Cu3+1 0.465750 0.918270 0.475680 0.926008
Cu2   Cu    Cu3+1 0.534250 0.081730 0.524320 0.925425
H1    H     H_    0.925192 0.157809 0.370409 0.132353
H2    H     H_    0.074457 0.842383 0.628952 0.130675
H3    H     H_    0.558561 0.719944 0.552356 0.120271
H4    H     H_    0.437665 0.278119 0.450604 0.120246
H5    H     H_    0.265759 0.862683 0.319316 0.118166
H6    H     H_    0.739957 0.140277 0.676152 0.120888
H7    H     H_    0.799290 0.283080 0.731083 0.138462
H8    H     H_    0.204231 0.718683 0.266173 0.135278
H9    H     H_    0.649365 0.590855 0.632372 0.128073
H10   H     H_    0.347111 0.407362 0.370319 0.125428
H11   H     H_    0.031840 0.018445 0.330938 0.125215
H12   H     H_    0.967849 0.981825 0.668428 0.123009
H13   H     H_    0.869202 0.857813 0.459671 0.139156
H14   H     H_    0.130494 0.142537 0.539624 0.137130
H15   H     H_    0.510705 0.369633 0.842508 0.151773
H16   H     H_    0.425427 0.627430 0.144321 0.150001
H17   H     H_    0.552537 0.693792 0.772074 0.148114
H18   H     H_    0.459868 0.308697 0.234318 0.154549
H19   H     H_    0.510078 0.200883 0.966931 0.130338
H20   H     H_    0.437704 0.797743 0.020924 0.132733
H21   H     H_    0.506638 0.543770 0.794891 0.144587
H22   H     H_    0.429192 0.453495 0.192729 0.138832
H23   H     H_    0.761301 0.446757 0.714270 0.143179
H24   H     H_    0.237500 0.552614 0.286641 0.140352
N1    N     N_R   0.585750 0.204560 0.560800 -0.172951
N2    N     N_R   0.414250 0.795440 0.439200 -0.171761
O1    O     O_R   0.454850 0.022100 0.338110 -0.584614
O2    O     O_R   0.545150 0.977900 0.661890 -0.580828
O3    O     O_R   0.512700 0.160150 0.379180 -0.583686
O4    O     O_R   0.487300 0.839850 0.620820 -0.582916
O5    O     O_R   0.287930 0.931000 0.479440 -0.579258
O6    O     O_R   0.712070 0.069000 0.520560 -0.579024
O7    O     O_R   0.345780 0.069050 0.520520 -0.595526
O8    O     O_R   0.654220 0.930950 0.479480 -0.590115
C47   C     C_3   0.449458 0.951900 0.841653 -0.386921
C48   C     C_3   0.574683 0.016740 0.867077 -0.810959
H25   H     H_    0.653138 0.016177 0.828594 0.254725
H26   H     H_    0.555714 0.095693 0.841329 0.233796
H27   H     H_    0.608651 0.987386 0.951059 0.239584
H28   H     H_    0.403967 0.987839 0.760741 0.217881
H29   H     H_    0.376541 0.949484 0.886851 0.178244
C49   C     C_3   0.512647 0.046157 0.147232 -0.392394
C50   C     C_3   0.650271 0.023797 0.202999 -0.789673
H30   H     H_    0.672810 0.036196 0.275454 0.254387
H31   H     H_    0.658656 0.943987 0.220974 0.234202
H32   H     H_    0.723663 0.073558 0.153538 0.234582
H33   H     H_    0.436888 0.990162 0.189775 0.213769
H34   H     H_    0.498568 0.034616 0.074513 0.184631

loop_
_geom_bond_atom_site_label_1
_geom_bond_atom_site_label_2
_ccdc_geom_bond_type
C25   C31   A    
C17   N1    A    
C26   C32   A    
C34   C37   S    
C1    O3    A    
Cu2   O2    S    
C48   H27   S    
Cu1   O5    S    
C36   H2    S    
C49   H33   S    
C32   H24   S    
C33   C39   S    
C34   C40   S    
C28   C29   A    
C35   C37   S    
C48   H26   S    
C20   H3    S    
C4    H17   S    
C15   C25   A    
C40   H14   S    
Cu2   O7    S    
C42   C46   A    
Cu1   O8    S    
C24   O8    A    
C12   H22   S    
C18   H5    S    
C33   H11   S    
C19   H4    S    
C24   O6    A    
C47   C48   S    
C35   H1    S    
C7    C43   A    
C9    C10   A    
C31   H23   S    
C47   H28   S    
C21   C27   A    
C18   N2    A    
C38   C40   S    
C22   C28   A    
C27   C30   A    
C34   H12   S    
C47   H29   S    
C44   C46   A    
C16   C26   A    
C39   H13   S    
C1    O1    A    
C19   N1    A    
C48   H25   S    
C4    C6    A    
C50   H30   S    
C5    C7    A    
C6    C8    A    
C15   H7    S    
Cu2   O3    S    
C16   H8    S    
C43   H19   S    
C5    C9    A    
C2    O4    A    
C50   H31   S    
Cu1   Cu2   S    
C13   H15   S    
C29   C31   A    
C14   H16   S    
C24   C37   S    
C20   N2    A    
C45   C49   S    
C43   C45   A    
C1    C41   S    
C29   H9    S    
C44   H20   S    
C3    H18   S    
C2    O2    A    
C15   C17   A    
C21   C25   A    
C3    C41   A    
C8    C14   A    
C23   O7    A    
C19   C21   A    
Cu2   N1    S    
C36   C39   S    
C8    C44   A    
Cu1   N2    S    
C20   C22   A    
C3    C5    A    
C6    C10   A    
C11   H21   S    
C49   H34   S    
C23   C38   S    
C33   C38   S    
Cu2   O6    S    
C36   C38   S    
C35   C40   S    
C12   C14   A    
Cu1   O1    S    
C37   C39   S    
C50   H32   S    
C30   C32   A    
C11   C13   A    
C49   C50   S    
C4    C42   A    
C2    C42   S    
C30   H10   S    
C33   C35   S    
C34   C36   S    
C9    C12   A    
C10   C11   A    
C46   C47   S    
C7    C13   A    
C16   C18   A    
C22   C26   A    
C27   C28   A    
C41   C45   A    
Cu1   O4    S    
C23   O5    A    
C17   H6    S    
