data_mof_unit_37122.cif
_audit_creation_date              2012-12-10T16:47:19-0500
_audit_creation_method            fapswitch 2.2
_symmetry_space_group_name_H-M    P1
_symmetry_Int_Tables_number       1
_space_group_crystal_system       triclinic
_cell_length_a                    11.862813
_cell_length_b                    12.381565
_cell_length_c                    7.950692
_cell_angle_alpha                 89.553014
_cell_angle_beta                  94.286299
_cell_angle_gamma                 89.91976
_cell_volume                      1164.49511836

loop_
_atom_site_label
_atom_site_type_symbol
_atom_type_description
_atom_site_fract_x
_atom_site_fract_y
_atom_site_fract_z
_atom_type_partial_charge
C1    C     C_R   0.354334 0.851889 0.456149 0.945219
C2    C     C_2   0.725802 0.768274 0.567241 -0.377072
C3    C     C_2   0.729066 0.228052 0.567450 -0.373165
C4    C     C_2   0.270934 0.771948 0.432550 -0.373164
C5    C     C_2   0.774198 0.731726 0.432759 -0.377072
C6    C     C_2   0.225802 0.268273 0.567241 -0.377072
C7    C     C_2   0.229066 0.728052 0.567450 -0.373165
C8    C     C_2   0.770934 0.271948 0.432550 -0.373164
C9    C     C_3   0.740474 0.023639 0.104712 -0.705557
C10   C     C_3   0.259526 0.976361 0.895288 -0.705556
C11   C     C_3   0.240474 0.523639 0.104712 -0.705556
C12   C     C_R   0.645666 0.148111 0.543851 0.945218
C13   C     C_3   0.759526 0.476361 0.895288 -0.705556
C14   C     C_R   0.645180 0.851264 0.544227 0.942085
C15   C     C_R   0.354820 0.148736 0.455773 0.942086
C16   C     C_R   0.854334 0.351888 0.456149 0.945219
C17   C     C_R   0.145666 0.648111 0.543851 0.945218
C18   C     C_R   0.145180 0.351263 0.544227 0.942085
C19   C     C_R   0.854820 0.648736 0.455773 0.942086
C20   C     C_2   0.274198 0.231726 0.432759 -0.377072
H1    H     H_    0.755000 0.762552 0.305312 0.194806
H2    H     H_    0.821041 0.003903 0.048875 0.196517
H3    H     H_    0.746131 0.988896 0.232968 0.276498
H4    H     H_    0.732418 0.112796 0.108448 0.224280
H5    H     H_    0.343320 0.002124 0.120775 0.280668
H6    H     H_    0.178959 0.996096 0.951125 0.196517
H7    H     H_    0.267582 0.887204 0.891551 0.224280
H8    H     H_    0.253869 0.011104 0.767032 0.276498
H9    H     H_    0.156680 0.497876 0.879225 0.280668
H10   H     H_    0.321041 0.503904 0.048875 0.196517
H11   H     H_    0.246131 0.488896 0.232968 0.276498
H12   H     H_    0.245000 0.237448 0.694688 0.194806
H13   H     H_    0.232418 0.612796 0.108449 0.224280
H14   H     H_    0.843320 0.502124 0.120775 0.280668
H15   H     H_    0.678959 0.496097 0.951125 0.196517
H16   H     H_    0.767582 0.387204 0.891551 0.224280
H17   H     H_    0.753869 0.511104 0.767032 0.276498
H18   H     H_    0.257030 0.749300 0.696022 0.174522
H19   H     H_    0.742970 0.250700 0.303978 0.174522
H20   H     H_    0.255000 0.262552 0.305312 0.194806
H21   H     H_    0.745000 0.737448 0.694688 0.194806
H22   H     H_    0.757030 0.249300 0.696022 0.174522
H23   H     H_    0.242970 0.750700 0.303978 0.174522
H24   H     H_    0.656680 0.997876 0.879225 0.280668
N1    N     N_2   0.541470 0.000000 0.055820 0.022673
N2    N     N_2   0.458530 1.000000 0.944180 0.022673
N3    N     N_2   0.041470 0.500000 0.055820 0.022673
N4    N     N_2   0.958530 0.500000 0.944180 0.022673
N5    N     N_2   0.647184 0.978858 0.001335 -0.224771
N6    N     N_2   0.352816 0.021142 0.998665 -0.224771
N7    N     N_2   0.147184 0.478858 0.001335 -0.224771
N8    N     N_2   0.852816 0.521142 0.998665 -0.224771
O1    O     O_R   0.375700 0.885870 0.609240 -0.616576
O2    O     O_R   0.597720 0.114130 0.675960 -0.652382
O3    O     O_R   0.597720 0.885870 0.675960 -0.645391
O4    O     O_R   0.402280 0.114130 0.324040 -0.645391
O5    O     O_R   0.902280 0.385870 0.324040 -0.652383
O6    O     O_R   0.097720 0.614130 0.675960 -0.652382
O7    O     O_R   0.097720 0.385870 0.675960 -0.645391
O8    O     O_R   0.902280 0.614130 0.324040 -0.645391
O9    O     O_R   0.624300 0.114130 0.390760 -0.616576
O10   O     O_R   0.624300 0.885870 0.390760 -0.612716
O11   O     O_R   0.375700 0.114130 0.609240 -0.612717
O12   O     O_R   0.875700 0.385870 0.609240 -0.616576
O13   O     O_R   0.124300 0.614130 0.390760 -0.616576
O14   O     O_R   0.124300 0.385870 0.390760 -0.612716
O15   O     O_R   0.875700 0.614130 0.609240 -0.612717
O16   O     O_R   0.402280 0.885870 0.324040 -0.652383
Zn1   Zn    Zn3+2 0.482250 0.000000 0.690430 0.950363
Zn2   Zn    Zn3+2 0.517750 0.000000 0.309570 0.950363
Zn3   Zn    Zn3+2 0.982250 0.500000 0.690430 0.950363
Zn4   Zn    Zn3+2 0.017750 0.500000 0.309570 0.950363

loop_
_geom_bond_atom_site_label_1
_geom_bond_atom_site_label_2
_ccdc_geom_bond_type
H24   N5    S    
C10   H7    S    
C6    H12   S    
C9    H4    S    
C19   O15   A    
C5    C19   S    
C4    H23   S    
N3    N7    S    
C19   O8    A    
C18   O14   A    
O13   Zn4   S    
C6    C20   D    
N2    N6    S    
H14   N8    S    
N3    N4    D    
N4    Zn3   S    
C20   H20   S    
N1    N5    S    
C17   O6    A    
C1    C4    S    
O1    Zn1   S    
C15   O4    A    
C10   H6    S    
C13   H17   S    
C14   O3    A    
C11   H11   S    
C8    C16   S    
O9    Zn2   S    
N1    N2    D    
C12   O9    A    
O3    Zn1   S    
O2    Zn1   S    
C13   N8    S    
C4    C7    D    
C6    C18   S    
C8    H19   S    
C7    H18   S    
C13   H15   S    
O15   Zn3   S    
C16   O5    A    
O5    Zn4   S    
C15   C20   S    
C2    C14   S    
O14   Zn4   S    
C9    H2    S    
C2    C5    D    
C11   N7    S    
O6    Zn3   S    
O8    Zn4   S    
C2    H21   S    
C10   H8    S    
C10   N6    S    
O4    Zn2   S    
O11   Zn1   S    
C18   O7    A    
N4    N8    S    
C3    H22   S    
C5    H1    S    
N3    Zn4   S    
O10   Zn2   S    
C13   H16   S    
O16   Zn2   S    
C3    C8    D    
H9    N7    S    
O12   Zn3   S    
C11   H13   S    
C1    O16   A    
C15   O11   A    
H5    N6    S    
C9    H3    S    
N2    Zn1   S    
C1    O1    A    
C3    C12   S    
C16   O12   A    
N1    Zn2   S    
C17   O13   A    
C12   O2    A    
C9    N5    S    
C11   H10   S    
O7    Zn3   S    
C7    C17   S    
C14   O10   A    
