data_mof_unit_57731.cif
_audit_creation_date              2012-12-10T17:22:57-0500
_audit_creation_method            fapswitch 2.2
_symmetry_space_group_name_H-M    P1
_symmetry_Int_Tables_number       1
_space_group_crystal_system       triclinic
_cell_length_a                    10.203315
_cell_length_b                    10.536968
_cell_length_c                    10.916072
_cell_angle_alpha                 90.776734
_cell_angle_beta                  96.689029
_cell_angle_gamma                 80.913692
_cell_volume                      1150.97927885

loop_
_atom_site_label
_atom_site_type_symbol
_atom_type_description
_atom_site_fract_x
_atom_site_fract_y
_atom_site_fract_z
_atom_type_partial_charge
C1    C     C_R   0.442127 0.509286 0.267855 0.798005
C2    C     C_3   0.498973 0.123106 0.494786 -0.185751
C3    C     C_3   0.617228 0.944943 0.558636 -0.083305
C4    C     C_3   0.382772 0.055058 0.441363 -0.083305
C5    C     C_2   0.405771 0.505466 0.134572 0.283462
C6    C     C_2   0.594231 0.494493 0.865427 0.283468
C7    C     C_2   0.496721 0.530161 0.061516 -0.133132
C8    C     C_2   0.503272 0.469805 0.938476 -0.133108
C9    C     C_2   0.071682 0.492424 0.488025 0.094972
C10   C     C_2   0.928319 0.507573 0.511977 0.094949
C11   C     C_3   0.482634 0.980696 0.176738 -0.326690
C12   C     C_R   0.557873 0.490708 0.732144 0.797989
C13   C     C_3   0.517316 0.019332 0.823250 -0.326740
C14   C     C_1   0.744845 0.883798 0.623707 0.193395
C15   C     C_1   0.255148 0.116200 0.376300 0.193355
C16   C     C_1   0.412596 0.379726 0.896126 0.331121
C17   C     C_1   0.587394 0.620249 0.103858 0.331100
C18   C     C_3   0.753204 0.629295 0.859079 -0.193875
C19   C     C_3   0.246849 0.370600 0.140913 -0.193907
C20   C     C_3   0.830021 0.275262 0.330229 -0.073584
C21   C     C_3   0.169980 0.724747 0.669759 -0.073606
C22   C     C_R   0.498956 0.258020 0.496018 0.929743
C23   C     C_R   0.501043 0.741981 0.503981 0.929746
C24   C     C_3   0.602910 0.023519 0.438317 -0.368329
C25   C     C_3   0.397091 0.976482 0.561681 -0.368350
C26   C     C_3   0.485111 0.955258 0.386205 0.586630
C27   C     C_3   0.514888 0.044743 0.613793 0.586629
C28   C     C_3   0.501027 0.876895 0.505212 -0.185757
H1    H     H_    0.685279 0.046028 0.388472 0.154746
H2    H     H_    0.544837 0.062661 0.913902 0.187538
H3    H     H_    0.665293 0.701979 0.825439 0.086066
H4    H     H_    0.812943 0.596499 0.782861 0.199711
H5    H     H_    0.817813 0.677797 0.927167 0.199956
H6    H     H_    0.187127 0.403344 0.217148 0.199702
H7    H     H_    0.334793 0.297933 0.174513 0.086032
H8    H     H_    0.182235 0.322087 0.072835 0.199921
H9    H     H_    0.723806 0.294116 0.291336 0.171844
H10   H     H_    0.844692 0.218508 0.417405 0.144728
H11   H     H_    0.883402 0.215232 0.261754 0.144164
H12   H     H_    0.314722 0.953973 0.611525 0.154744
H13   H     H_    0.155320 0.781493 0.582580 0.144745
H14   H     H_    0.276193 0.705888 0.708660 0.171849
H15   H     H_    0.116596 0.784785 0.738226 0.144158
H16   H     H_    0.894309 0.568118 0.586568 0.132519
H17   H     H_    0.105693 0.431874 0.413438 0.132531
H18   H     H_    0.588817 0.994520 0.180889 0.163196
H19   H     H_    0.416550 0.074664 0.181085 0.146754
H20   H     H_    0.455140 0.937353 0.086083 0.187519
H21   H     H_    0.583346 0.925336 0.818902 0.146759
H22   H     H_    0.411121 0.005572 0.819097 0.163233
N1    N     N_2   0.157310 0.552180 0.551120 0.054547
N2    N     N_2   0.842690 0.447820 0.448880 0.054544
N3    N     N_1   0.845688 0.836044 0.675097 -0.234672
N4    N     N_1   0.154297 0.163950 0.324917 -0.234694
N5    N     N_1   0.340787 0.308599 0.861903 -0.152352
N6    N     N_1   0.659204 0.691380 0.138073 -0.152321
O1    O     O_R   0.568940 0.489500 0.307530 -0.621575
O2    O     O_3   0.534513 0.103908 0.729822 -0.599690
O3    O     O_3   0.717863 0.522724 0.917218 -0.598393
O4    O     O_3   0.282141 0.477215 0.082794 -0.598354
O5    O     O_3   0.884045 0.389707 0.345929 -0.553235
O6    O     O_3   0.115948 0.610306 0.654063 -0.553257
O7    O     O_R   0.431060 0.510500 0.692470 -0.621577
O8    O     O_R   0.348880 0.522990 0.340350 -0.612049
O9    O     O_R   0.651120 0.477010 0.659650 -0.612079
O10   O     O_R   0.610000 0.297210 0.483560 -0.643069
O11   O     O_R   0.390000 0.702790 0.516440 -0.643072
O12   O     O_R   0.389940 0.330700 0.516390 -0.610456
O13   O     O_R   0.610060 0.669300 0.483610 -0.610446
O14   O     O_3   0.465494 0.896094 0.270176 -0.599679
Zn1   Zn    Zn3+2 0.646930 0.477640 0.478080 0.987168
Zn2   Zn    Zn3+2 0.353070 0.522360 0.521920 0.987172

loop_
_geom_bond_atom_site_label_1
_geom_bond_atom_site_label_2
_ccdc_geom_bond_type
C2    C22   S    
C4    C26   S    
C15   N4    T    
C9    H17   S    
C2    C27   S    
C13   O2    S    
C1    O1    A    
C19   O4    S    
C25   C27   S    
C20   H10   S    
C9    C10   S    
C13   H2    S    
C26   C28   S    
O10   Zn1   S    
C9    N1    D    
O12   Zn2   S    
C10   N2    D    
C4    C15   S    
C3    C27   S    
C4    C25   S    
C21   O6    S    
C11   O14   S    
C7    C8    S    
C8    C16   S    
N2    Zn1   S    
C19   H7    S    
C23   C28   S    
O1    Zn1   S    
C25   C28   S    
C6    C12   S    
C20   H9    S    
N1    O6    S    
C17   N6    T    
C22   O12   A    
C3    C24   S    
C3    C14   S    
C13   H21   S    
C2    C4    S    
C3    C28   S    
C24   C26   S    
N2    O5    S    
O8    Zn2   S    
C25   H12   S    
C2    C24   S    
C26   O14   S    
C18   H5    S    
C21   H13   S    
C16   N5    T    
C18   H4    S    
N1    Zn2   S    
C20   H11   S    
C10   H16   S    
C21   H14   S    
C1    O8    A    
C11   H20   S    
C18   O3    S    
C1    C5    S    
C14   N3    T    
O7    Zn2   S    
C5    C7    D    
O11   Zn2   S    
C12   O9    A    
C23   O11   A    
C20   O5    S    
O13   Zn1   S    
C12   O7    A    
C23   O13   A    
C24   H1    S    
C22   O10   A    
C11   H18   S    
C6    C8    D    
C18   H3    S    
C5    O4    S    
C19   H8    S    
C21   H15   S    
C11   H19   S    
C6    O3    S    
C19   H6    S    
C13   H22   S    
O9    Zn1   S    
C7    C17   S    
C27   O2    S    
