data_mof_unit_40178.cif
_audit_creation_date              2013-03-05T15:45:12-0500
_audit_creation_method            fapswitch 2.2
_symmetry_space_group_name_H-M    P1
_symmetry_Int_Tables_number       1
_space_group_crystal_system       triclinic
_cell_length_a                    24.942217
_cell_length_b                    17.235032
_cell_length_c                    15.620211
_cell_angle_alpha                 89.999979
_cell_angle_beta                  50.218427
_cell_angle_gamma                 90.000081
_cell_volume                      5160.26371945

loop_
_atom_site_label
_atom_site_type_symbol
_atom_site_description
_atom_site_fract_x
_atom_site_fract_y
_atom_site_fract_z
_atom_type_partial_charge
C1    C     C_R   0.351783 0.142887 0.754249 -0.150125
C2    C     C_R   0.667496 0.894063 0.197156 -0.169812
C3    C     C_R   0.648217 0.142888 0.245751 -0.150136
C4    C     C_R   0.332503 0.894064 0.802845 -0.169818
C5    C     C_R   0.851783 0.642888 0.754249 -0.150124
C6    C     C_R   0.167493 0.394054 0.197161 -0.169803
C7    C     C_R   0.148216 0.642889 0.245754 -0.150122
C8    C     C_R   0.832504 0.394062 0.802844 -0.169829
H1    H     H_    0.304350 0.156655 0.768973 0.135010
H2    H     H_    0.719557 0.897290 0.170053 0.135539
H3    H     H_    0.695650 0.156656 0.231028 0.135005
H4    H     H_    0.280442 0.897292 0.829948 0.135542
H5    H     H_    0.804349 0.656655 0.768975 0.135006
H6    H     H_    0.219555 0.397282 0.170054 0.135544
H7    H     H_    0.195649 0.656656 0.231030 0.135005
H8    H     H_    0.780443 0.397290 0.829948 0.135555
N1    N     N_R   0.388930 0.078160 0.705470 -0.044459
N2    N     N_R   0.611070 0.921840 0.294530 -0.049965
N3    N     N_R   0.611070 0.078160 0.294530 -0.044457
N4    N     N_R   0.388930 0.921840 0.705470 -0.049966
N5    N     N_R   0.888930 0.578160 0.705470 -0.044459
N6    N     N_R   0.111070 0.421840 0.294530 -0.049966
N7    N     N_R   0.111070 0.578160 0.294530 -0.044458
N8    N     N_R   0.888930 0.421840 0.705470 -0.049971
C9    C     C_R   0.612049 0.109814 0.591927 0.475447
C10   C     C_R   0.405672 0.857113 0.411659 0.500197
C11   C     C_R   0.387949 0.109813 0.408074 0.475428
C12   C     C_R   0.594328 0.857112 0.588340 0.500203
C13   C     C_R   0.112050 0.609814 0.591925 0.475433
C14   C     C_R   0.905673 0.357115 0.411655 0.500171
C15   C     C_R   0.887950 0.609820 0.408077 0.475416
C16   C     C_R   0.094327 0.357113 0.588342 0.500203
N9    N     N_R   0.580500 0.077840 0.556650 -0.131699
N10   N     N_R   0.419500 0.922160 0.443350 -0.119222
N11   N     N_R   0.419500 0.077840 0.443350 -0.131697
N12   N     N_R   0.580500 0.922160 0.556650 -0.119220
N13   N     N_R   0.080500 0.577840 0.556650 -0.131699
N14   N     N_R   0.919500 0.422160 0.443350 -0.119215
N15   N     N_R   0.919500 0.577840 0.443350 -0.131699
N16   N     N_R   0.080500 0.422160 0.556650 -0.119219
C17   C     C_R   0.686047 0.110016 0.406670 -0.115031
C18   C     C_R   0.336176 0.858215 0.596979 -0.068880
C19   C     C_R   0.313952 0.110015 0.593330 -0.115032
C20   C     C_R   0.663825 0.858217 0.403020 -0.068883
C21   C     C_R   0.186048 0.610015 0.406669 -0.115034
C22   C     C_R   0.836184 0.358210 0.596976 -0.068865
C23   C     C_R   0.813953 0.610019 0.593333 -0.115017
C24   C     C_R   0.163823 0.358215 0.403022 -0.068892
H9    H     H_    0.733969 0.110988 0.321212 0.170762
H10   H     H_    0.293323 0.846645 0.683721 0.160627
H11   H     H_    0.266030 0.110987 0.678789 0.170747
H12   H     H_    0.706680 0.846648 0.316278 0.160622
H13   H     H_    0.233970 0.610986 0.321210 0.170742
H14   H     H_    0.793334 0.346635 0.683717 0.160647
H15   H     H_    0.766031 0.610990 0.678792 0.170737
H16   H     H_    0.206676 0.346644 0.316281 0.160634
N17   N     N_R   0.626210 0.077590 0.443410 -0.093833
N18   N     N_R   0.373790 0.922410 0.556590 -0.085145
N19   N     N_R   0.373790 0.077590 0.556590 -0.093830
N20   N     N_R   0.626210 0.922410 0.443410 -0.085144
N21   N     N_R   0.126210 0.577590 0.443410 -0.093832
N22   N     N_R   0.873790 0.422410 0.556590 -0.085140
N23   N     N_R   0.873790 0.577590 0.556590 -0.093831
N24   N     N_R   0.126210 0.422410 0.443410 -0.085146
C25   C     C_R   0.557171 0.145410 0.249727 0.070304
C26   C     C_R   0.419397 0.897836 0.807024 0.116479
C27   C     C_R   0.442828 0.145409 0.750275 0.070295
C28   C     C_R   0.580602 0.897832 0.192978 0.116442
C29   C     C_R   0.057169 0.645414 0.249736 0.070329
C30   C     C_R   0.919399 0.397828 0.807020 0.116433
C31   C     C_R   0.942829 0.645411 0.750271 0.070309
C32   C     C_R   0.080595 0.397810 0.192989 0.116323
H17   H     H_    0.519413 0.167105 0.243745 0.201064
H18   H     H_    0.442836 0.908484 0.844178 0.197069
H19   H     H_    0.480585 0.167102 0.756262 0.201069
H20   H     H_    0.557162 0.908478 0.155824 0.197032
H21   H     H_    0.019409 0.667115 0.243764 0.201050
H22   H     H_    0.942840 0.408469 0.844174 0.197275
H23   H     H_    0.980588 0.667108 0.756251 0.201059
H24   H     H_    0.057155 0.408438 0.155834 0.197316
N25   N     N_R   0.554800 0.077270 0.294580 -0.066343
N26   N     N_R   0.445200 0.922730 0.705420 -0.080014
N27   N     N_R   0.445200 0.077270 0.705420 -0.066345
N28   N     N_R   0.554800 0.922730 0.294580 -0.080011
N29   N     N_R   0.054800 0.577270 0.294580 -0.066335
N30   N     N_R   0.945200 0.422730 0.705420 -0.080024
N31   N     N_R   0.945200 0.577270 0.705420 -0.066342
N32   N     N_R   0.054800 0.422730 0.294580 -0.080021
C33   C     C_R   0.385285 0.187103 0.781465 -0.138396
C34   C     C_R   0.649800 0.878085 0.131678 -0.122705
C35   C     C_R   0.614714 0.187104 0.218537 -0.138397
C36   C     C_R   0.350199 0.878089 0.868325 -0.122729
C37   C     C_R   0.885286 0.687104 0.781462 -0.138396
C38   C     C_R   0.149794 0.378062 0.131691 -0.122727
C39   C     C_R   0.114713 0.687107 0.218545 -0.138408
C40   C     C_R   0.850200 0.378082 0.868321 -0.122753
C41   C     C_R   0.677227 0.131292 0.499060 0.202336
C42   C     C_R   0.355370 0.815633 0.507968 0.138648
C43   C     C_R   0.322770 0.131288 0.500942 0.202363
C44   C     C_R   0.644631 0.815633 0.492030 0.138651
C45   C     C_R   0.177229 0.631289 0.499057 0.202369
C46   C     C_R   0.855376 0.315630 0.507962 0.138605
C47   C     C_R   0.822772 0.631297 0.500946 0.202355
C48   C     C_R   0.144629 0.315632 0.492033 0.138629
Ni1   Ni    Ni4+2 0.382710 0.000000 0.629850 0.246389
Ni2   Ni    Ni4+2 0.617290 0.000000 0.370150 0.246391
Ni3   Ni    Ni4+2 0.882710 0.500000 0.629850 0.246394
Ni4   Ni    Ni4+2 0.117290 0.500000 0.370150 0.246389
Ni5   Ni    Ni4+2 0.513020 0.000000 0.629850 0.324206
Ni6   Ni    Ni4+2 0.486980 0.000000 0.370150 0.324200
Ni7   Ni    Ni4+2 0.013020 0.500000 0.629850 0.324224
Ni8   Ni    Ni4+2 0.986980 0.500000 0.370150 0.324235
C49   C     C_R   0.214358 0.142815 0.530527 0.707824
C50   C     C_R   0.755049 0.794636 0.447824 0.681512
C51   C     C_R   0.785658 0.142824 0.469420 0.707793
C52   C     C_R   0.244946 0.794624 0.552198 0.681516
C53   C     C_R   0.714371 0.642815 0.530499 0.707817
C54   C     C_R   0.255057 0.294620 0.447790 0.681512
C55   C     C_R   0.285637 0.642814 0.469484 0.707819
C56   C     C_R   0.744933 0.294604 0.552261 0.681509
C57   C     C_R   0.671908 0.687362 0.521760 0.686126
C58   C     C_R   0.296536 0.250771 0.457561 0.678994
C59   C     C_R   0.328101 0.687362 0.478219 0.686125
C60   C     C_R   0.703451 0.250760 0.542491 0.679026
C61   C     C_R   0.171893 0.187363 0.521794 0.686122
C62   C     C_R   0.796527 0.750788 0.457600 0.679011
C63   C     C_R   0.828126 0.187370 0.478150 0.686131
C64   C     C_R   0.203467 0.750776 0.542426 0.679001
C65   C     C_R   0.692387 0.763219 0.481607 -0.553808
C66   C     C_R   0.275880 0.175551 0.499150 -0.567712
C67   C     C_R   0.307615 0.763214 0.518392 -0.553813
C68   C     C_R   0.724119 0.175552 0.500854 -0.567711
C69   C     C_R   0.192383 0.263213 0.481609 -0.553774
C70   C     C_R   0.775880 0.675561 0.499158 -0.567699
C71   C     C_R   0.807622 0.263206 0.518389 -0.553777
C72   C     C_R   0.224120 0.675553 0.500848 -0.567705
H25   H     H_    0.210913 0.876887 0.011746 0.172905
H26   H     H_    0.711251 0.282396 0.182717 0.171156
H27   H     H_    0.789086 0.876887 0.988257 0.172904
H28   H     H_    0.288750 0.282394 0.817281 0.171156
H29   H     H_    0.710915 0.376889 0.011744 0.172909
H30   H     H_    0.211255 0.782396 0.182714 0.171167
H31   H     H_    0.289080 0.376890 0.988256 0.172908
H32   H     H_    0.788748 0.782395 0.817285 0.171165
C73   C     C_2   0.638465 0.261229 0.158660 0.769091
C74   C     C_2   0.303523 0.853441 0.985294 0.744343
C75   C     C_2   0.361533 0.261227 0.841343 0.769101
C76   C     C_2   0.696476 0.853436 0.014709 0.744327
C77   C     C_2   0.138462 0.761234 0.158671 0.769078
C78   C     C_2   0.803525 0.353432 0.985289 0.744350
C79   C     C_2   0.861535 0.761229 0.841339 0.769079
C80   C     C_2   0.196469 0.353408 0.014725 0.744352
C81   C     C_2   0.691496 0.299763 0.140673 -0.211812
C82   C     C_2   0.234269 0.851612 0.044624 -0.232005
C83   C     C_2   0.308502 0.299760 0.859329 -0.211806
C84   C     C_2   0.765730 0.851610 0.955379 -0.232009
C85   C     C_2   0.191496 0.799765 0.140676 -0.211787
C86   C     C_2   0.734271 0.351609 0.044621 -0.232014
C87   C     C_2   0.808504 0.799763 0.859328 -0.211791
C88   C     C_2   0.265723 0.351600 0.955385 -0.232035
S1    S     S_3+6 0.588294 0.098219 0.724815 0.004433
O1    O     O_2   0.585084 0.176568 0.770138 -0.232409
O2    O     O_2   0.518605 0.059254 0.804473 -0.287138
O3    O     O_3   0.649810 0.044746 0.711049 -0.454707
H33   H     H_    0.636743 0.045272 0.785749 0.396923
S2    S     S_3+6 0.426985 0.837122 0.281054 0.020476
O4    O     O_2   0.487430 0.781637 0.216844 -0.229064
O5    O     O_2   0.366399 0.799481 0.298248 -0.275164
O6    O     O_3   0.446332 0.917448 0.206278 -0.477464
H34   H     H_    0.458553 0.899148 0.135565 0.396093
S3    S     S_3+6 0.411705 0.098227 0.275184 0.004436
O7    O     O_2   0.414913 0.176581 0.229874 -0.232453
O8    O     O_2   0.481396 0.059266 0.195520 -0.287135
O9    O     O_3   0.350192 0.044757 0.288942 -0.454663
H35   H     H_    0.363258 0.045291 0.214241 0.396932
S4    S     S_3+6 0.573007 0.837113 0.718950 0.020465
O10   O     O_2   0.512557 0.781636 0.783156 -0.229048
O11   O     O_2   0.633587 0.799461 0.701762 -0.275216
O12   O     O_3   0.553667 0.917437 0.793727 -0.477476
H36   H     H_    0.541488 0.899137 0.864412 0.396106
S5    S     S_3+6 0.088295 0.598235 0.724816 0.004398
O13   O     O_2   0.085091 0.676591 0.770118 -0.232459
O14   O     O_2   0.018602 0.559278 0.804487 -0.287060
O15   O     O_3   0.149807 0.544764 0.711063 -0.454792
H37   H     H_    0.136742 0.545305 0.785762 0.396868
S6    S     S_3+6 0.926951 0.337160 0.281068 0.020409
O16   O     O_2   0.987361 0.281627 0.216836 -0.228757
O17   O     O_2   0.866323 0.299593 0.298308 -0.275438
O18   O     O_3   0.946342 0.417497 0.206290 -0.477614
H38   H     H_    0.958161 0.399248 0.135835 0.396264
S7    S     S_3+6 0.911705 0.598256 0.275183 0.004403
O19   O     O_2   0.914900 0.676618 0.229903 -0.232485
O20   O     O_2   0.981402 0.559309 0.195498 -0.287000
O21   O     O_3   0.850197 0.544784 0.288927 -0.454803
H39   H     H_    0.863251 0.545347 0.214237 0.396850
S8    S     S_3+6 0.073021 0.337131 0.718944 0.020425
O22   O     O_2   0.012584 0.281637 0.783164 -0.228837
O23   O     O_2   0.133618 0.299507 0.701735 -0.275422
O24   O     O_3   0.053663 0.417461 0.793718 -0.477586
H40   H     H_    0.041791 0.399198 0.864207 0.396244
F1    F     F_    0.196080 0.068850 0.569052 -0.544845
F2    F     F_    0.773306 0.869475 0.413121 -0.567691
F3    F     F_    0.803950 0.068872 0.430844 -0.544858
F4    F     F_    0.226682 0.869459 0.586918 -0.567694
F5    F     F_    0.696104 0.568842 0.568991 -0.544855
F6    F     F_    0.273324 0.369453 0.413060 -0.567702
F7    F     F_    0.303912 0.568846 0.430971 -0.544848
F8    F     F_    0.726651 0.369428 0.587038 -0.567716
F9    F     F_    0.610231 0.658561 0.556179 -0.573411
F10   F     F_    0.356326 0.281798 0.428479 -0.590737
F11   F     F_    0.389785 0.658568 0.443779 -0.573406
F12   F     F_    0.643648 0.281782 0.571616 -0.590721
F13   F     F_    0.110206 0.158572 0.556246 -0.573417
F14   F     F_    0.856307 0.781822 0.428548 -0.590737
F15   F     F_    0.889829 0.158588 0.443644 -0.573406
F16   F     F_    0.143681 0.781804 0.571496 -0.590735
F17   F     F_    0.332643 0.822542 0.027417 -0.639650
F18   F     F_    0.612918 0.283665 0.107237 -0.630634
F19   F     F_    0.667357 0.822534 0.972587 -0.639668
F20   F     F_    0.387077 0.283661 0.892772 -0.630633
F21   F     F_    0.832644 0.322527 0.027410 -0.639656
F22   F     F_    0.112911 0.783672 0.107255 -0.630634
F23   F     F_    0.167349 0.322489 0.972612 -0.639650
F24   F     F_    0.887083 0.783665 0.892761 -0.630640

loop_
_geom_bond_atom_site_label_1
_geom_bond_atom_site_label_2
_geom_bond_distance
_ccdc_geom_bond_type
S7    O20   1.500934 D    
N5    N31   1.403085 A    
C27   N27   1.349276 A    
C8    N8    1.335649 A    
N4    N26   1.403085 A    
C2    N2    1.335649 A    
O6    H34   0.990737 S    
C29   H21   1.071484 S    
C8    C40   1.376378 A    
C24   H16   1.079217 S    
C16   S8    1.781952 S    
N29   Ni8   1.863616 S    
C19   H11   1.081209 S    
C18   N18   1.320931 A    
C31   H23   1.071491 S    
S1    O1    1.502835 D    
C25   H17   1.071491 S    
H31   C88   1.084335 S    
C28   C34   1.377210 A    
S5    O13   1.502836 D    
C79   F24   1.362249 S    
S3    O8    1.500934 D    
C11   C43   1.366108 A    
N19   Ni1   1.863624 S    
C13   S5    1.768001 S    
C22   N22   1.320931 A    
N15   Ni8   1.864736 S    
C14   S6    1.781952 S    
N11   N19   1.359360 A    
O3    H33   0.990536 S    
C54   F6    1.359788 S    
C47   C70   1.411555 S    
C19   C43   1.363530 A    
C53   F5    1.357921 S    
N15   N23   1.359360 A    
C18   C42   1.359833 A    
C23   N23   1.331566 A    
C50   C62   1.366340 A    
C7    N7    1.334208 A    
C80   C88   1.339754 D    
C24   N24   1.320931 A    
C49   C61   1.383782 A    
C38   C80   1.466953 S    
C6    N6    1.335646 A    
C15   S7    1.768011 S    
C27   C33   1.385213 A    
C51   C63   1.383784 A    
O15   H37   0.990535 S    
C14   N14   1.356202 A    
C3    C35   1.383573 A    
C54   C58   1.366339 A    
C81   C86   1.462632 S    
C2    C34   1.376378 A    
N21   Ni4   1.863623 S    
C53   C57   1.383778 A    
O9    H35   0.990536 S    
C34   C76   1.466958 S    
C75   F20   1.362249 S    
C62   F14   1.359895 S    
C52   F4    1.359789 S    
C46   C71   1.418906 S    
C74   F17   1.362217 S    
C61   F13   1.357776 S    
C10   N10   1.356222 A    
S4    O12   1.671062 S    
C78   C86   1.339753 D    
C73   F18   1.362249 S    
C9    S1    1.767996 S    
C6    C38   1.376384 A    
C59   F11   1.357775 S    
C42   C67   1.418891 S    
N2    N28   1.403080 A    
C16   C48   1.390304 A    
C3    N3    1.334205 A    
C39   C77   1.465882 S    
C57   F9    1.357776 S    
C4    H4    1.079339 S    
C75   C83   1.339400 D    
C5    H5    1.077348 S    
C19   N19   1.331571 A    
C32   C38   1.377212 A    
C5    C37   1.383573 A    
C12   C44   1.390302 A    
C7    H7    1.077348 S    
N17   Ni2   1.863623 S    
C32   N32   1.345361 A    
C21   H13   1.081208 S    
O24   H40   0.990875 S    
C8    H8    1.079337 S    
S2    O5    1.502393 D    
C14   C46   1.390309 A    
S8    O24   1.671058 S    
C53   C70   1.396693 A    
N23   Ni3   1.863624 S    
C17   H9    1.081208 S    
S1    O2    1.500932 D    
C60   C68   1.392789 A    
N24   Ni4   1.863624 S    
N16   Ni7   1.864739 S    
C51   C68   1.396701 A    
S5    O14   1.500933 D    
S3    O9    1.681525 S    
C1    C33   1.383575 A    
C23   C47   1.363519 A    
C48   C69   1.418895 S    
C36   C74   1.466960 S    
S7    O19   1.502836 D    
C28   N28   1.345353 A    
N26   Ni5   1.863615 S    
C1    H1    1.077347 S    
C82   C85   1.462640 S    
S8    O23   1.502404 D    
C49   C66   1.396694 A    
C44   C65   1.418882 S    
C12   S4    1.781964 S    
C26   C36   1.377204 A    
N22   Ni3   1.863626 S    
C60   F12   1.359902 S    
C29   C39   1.385211 A    
N6    N32   1.403080 A    
N28   Ni6   1.863622 S    
C51   F3    1.357928 S    
N1    N27   1.403085 A    
C5    N5    1.334205 A    
C79   C87   1.339403 D    
C15   C47   1.366108 A    
C30   C40   1.377210 A    
N2    Ni2   1.862385 S    
N1    Ni1   1.862381 S    
C26   N26   1.345351 A    
C26   H18   1.070736 S    
C22   C46   1.359848 A    
C25   N25   1.349276 A    
C74   C82   1.339751 D    
C18   H10   1.079218 S    
C40   C78   1.466959 S    
C22   H14   1.079218 S    
C58   F10   1.359894 S    
C13   C45   1.366108 A    
N8    Ni3   1.862382 S    
H32   C87   1.085262 S    
C33   C75   1.465876 S    
N11   Ni6   1.864736 S    
S3    O7    1.502834 D    
C62   C70   1.392779 A    
N5    Ni3   1.862381 S    
C54   C69   1.399616 A    
C21   C45   1.363526 A    
C64   F16   1.359895 S    
C30   N30   1.345355 A    
C31   N31   1.349277 A    
N32   Ni8   1.863622 S    
H26   C81   1.085262 S    
C9    C41   1.366113 A    
S4    O10   1.502755 D    
C10   C42   1.390301 A    
C49   F1    1.357921 S    
C52   C64   1.366338 A    
S2    O4    1.502758 D    
N10   Ni6   1.864733 S    
C50   C65   1.399615 A    
C17   C41   1.363539 A    
C37   C79   1.465879 S    
C27   H19   1.071495 S    
C77   F22   1.362251 S    
H30   C85   1.085262 S    
S6    O17   1.502446 D    
C2    H2    1.079335 S    
C11   S3    1.767997 S    
C50   F2    1.359787 S    
C35   C73   1.465878 S    
S1    O3    1.681525 S    
C29   N29   1.349284 A    
C23   H15   1.081208 S    
N4    Ni1   1.862382 S    
C30   H22   1.070736 S    
C61   C69   1.397711 A    
C45   C72   1.411561 S    
C25   C35   1.385215 A    
C10   S2    1.781958 S    
N9    N17   1.359360 A    
S5    O15   1.681525 S    
C43   C66   1.411565 S    
C59   C67   1.397712 A    
C83   C88   1.462625 S    
C84   C87   1.462636 S    
C41   C68   1.411571 S    
C57   C65   1.397708 A    
S8    O22   1.502755 D    
N12   N20   1.359360 A    
C20   H12   1.079217 S    
C56   F8    1.359795 S    
N13   N21   1.359360 A    
C31   C37   1.385213 A    
N20   Ni2   1.863624 S    
C55   C59   1.383782 A    
C28   H20   1.070732 S    
C7    C39   1.383566 A    
N27   Ni5   1.863618 S    
C1    N1    1.334200 A    
C55   C72   1.396692 A    
N16   N24   1.359360 A    
N18   Ni1   1.863626 S    
C11   N11   1.334712 A    
C56   C71   1.399629 A    
S6    O18   1.671065 S    
C64   C72   1.392781 A    
N30   Ni7   1.863615 S    
S7    O21   1.681525 S    
C73   C81   1.339403 D    
C6    H6    1.079335 S    
C32   H24   1.070725 S    
N31   Ni7   1.863618 S    
C20   C44   1.359830 A    
C63   F15   1.357781 S    
C52   C67   1.399616 A    
N8    N30   1.403085 A    
H27   C84   1.084331 S    
C20   N20   1.320930 A    
N6    Ni4   1.862385 S    
N7    Ni4   1.862383 S    
C21   N21   1.331571 A    
C78   F21   1.362215 S    
C15   N15   1.334729 A    
H25   C82   1.084332 S    
O21   H39   0.990520 S    
N9    Ni5   1.864733 S    
C16   N16   1.356218 A    
O18   H38   0.990862 S    
C63   C71   1.397723 A    
C76   F19   1.362216 S    
N13   Ni7   1.864733 S    
C3    H3    1.077349 S    
H28   C83   1.085263 S    
C17   N17   1.331572 A    
O12   H36   0.990760 S    
C4    N4    1.335651 A    
N3    Ni2   1.862383 S    
H29   C86   1.084332 S    
N14   Ni8   1.864733 S    
C55   F7    1.357922 S    
N25   Ni6   1.863616 S    
C12   N12   1.356227 A    
S2    O6    1.671063 S    
N7    N29   1.403080 A    
C80   F23   1.362220 S    
C13   N13   1.334716 A    
N12   Ni5   1.864739 S    
N10   N18   1.359360 A    
C76   C84   1.339754 D    
C4    C36   1.376376 A    
S6    O16   1.502788 D    
N3    N25   1.403080 A    
C77   C85   1.339403 D    
C58   C66   1.392782 A    
C56   C60   1.366333 A    
C9    N9    1.334706 A    
S4    O11   1.502391 D    
N14   N22   1.359360 A    
C24   C48   1.359835 A    
