data_mof_unit_13316.cif
_audit_creation_date              2012-12-10T16:32:39-0500
_audit_creation_method            fapswitch 2.2
_symmetry_space_group_name_H-M    P1
_symmetry_Int_Tables_number       1
_space_group_crystal_system       triclinic
_cell_length_a                    16.944292
_cell_length_b                    16.956841
_cell_length_c                    16.968872
_cell_angle_alpha                 65.492362
_cell_angle_beta                  65.512238
_cell_angle_gamma                 65.529876
_cell_volume                      3860.55385048

loop_
_atom_site_label
_atom_site_type_symbol
_atom_type_description
_atom_site_fract_x
_atom_site_fract_y
_atom_site_fract_z
_atom_type_partial_charge
C1    C     C_R   0.589889 0.034493 0.590875 0.070636
C2    C     C_R   0.821745 0.564568 0.032405 0.902218
C3    C     C_R   0.435514 0.967325 0.178215 0.902316
C4    C     C_R   0.564485 0.032675 0.821785 0.902316
C5    C     C_R   0.564442 0.821768 0.032746 0.902419
C6    C     C_R   0.435558 0.178232 0.967253 0.902419
C7    C     C_R   0.032644 0.564499 0.821804 0.902110
C8    C     C_R   0.967356 0.435501 0.178196 0.902110
C9    C     C_R   0.821763 0.032378 0.564580 0.902033
C10   C     C_R   0.178237 0.967622 0.435420 0.902033
C11   C     C_R   0.543083 0.017542 0.544461 0.118405
C12   C     C_R   0.410111 0.965507 0.409125 0.070636
C13   C     C_R   0.456917 0.982458 0.455539 0.118405
C14   C     C_R   0.017403 0.543218 0.544443 0.116376
C15   C     C_R   0.982597 0.456782 0.455557 0.116376
C16   C     C_R   0.543121 0.544388 0.017578 0.117977
C17   C     C_R   0.456879 0.455612 0.982422 0.117977
C18   C     C_R   0.552312 0.060255 0.451581 -0.182054
C19   C     C_R   0.447688 0.939744 0.548419 -0.182054
C20   C     C_R   0.957026 0.490173 0.592299 -0.176722
C21   C     C_R   0.042974 0.509827 0.407700 -0.176722
C22   C     C_R   0.490502 0.592301 0.956896 -0.179959
C23   C     C_R   0.034302 0.590048 0.590883 0.070598
C24   C     C_R   0.509498 0.407699 0.043104 -0.179959
C25   C     C_R   0.509676 0.043083 0.407721 -0.178048
C26   C     C_R   0.490324 0.956917 0.592279 -0.178048
C27   C     C_R   0.447815 0.548508 0.939689 -0.183809
C28   C     C_R   0.552185 0.451492 0.060310 -0.183809
C29   C     C_R   0.939997 0.447410 0.548466 -0.180803
C30   C     C_R   0.060003 0.552590 0.451534 -0.180803
C31   C     C_R   0.548864 0.038854 0.680110 -0.202250
C32   C     C_R   0.451136 0.961146 0.319890 -0.202250
C33   C     C_R   0.038192 0.679576 0.549560 -0.201363
C34   C     C_R   0.965698 0.409952 0.409117 0.070597
C35   C     C_R   0.961808 0.320424 0.450440 -0.201363
C36   C     C_R   0.679442 0.549411 0.038485 -0.203947
C37   C     C_R   0.320558 0.450589 0.961515 -0.203947
C38   C     C_R   0.320567 0.961577 0.450481 -0.202361
C39   C     C_R   0.679433 0.038423 0.549519 -0.202361
C40   C     C_R   0.451173 0.320013 0.960936 -0.203382
C41   C     C_R   0.548827 0.679987 0.039064 -0.203382
C42   C     C_R   0.961247 0.451006 0.319892 -0.200936
C43   C     C_R   0.038753 0.548994 0.680108 -0.200936
C44   C     C_R   0.597249 0.046940 0.725741 -0.054400
C45   C     C_R   0.589897 0.590754 0.034614 0.070944
C46   C     C_R   0.402751 0.953060 0.274259 -0.054400
C47   C     C_R   0.046601 0.725580 0.597437 -0.054897
C48   C     C_R   0.953399 0.274419 0.402563 -0.054897
C49   C     C_R   0.725495 0.597327 0.046832 -0.055020
C50   C     C_R   0.274505 0.402673 0.953167 -0.055020
C51   C     C_R   0.274489 0.953236 0.402620 -0.055135
C52   C     C_R   0.725511 0.046764 0.597380 -0.055135
C53   C     C_R   0.402807 0.274323 0.952898 -0.054579
C54   C     C_R   0.597193 0.725677 0.047102 -0.054578
C55   C     C_R   0.953143 0.402690 0.274241 -0.054362
C56   C     C_R   0.410103 0.409245 0.965386 0.070943
C57   C     C_R   0.046857 0.597310 0.725759 -0.054362
C58   C     C_R   0.682252 0.057038 0.682238 -0.264060
C59   C     C_R   0.317748 0.942962 0.317762 -0.264060
C60   C     C_R   0.056918 0.682285 0.682287 -0.265015
C61   C     C_R   0.943082 0.317715 0.317713 -0.265015
C62   C     C_R   0.682204 0.682206 0.057156 -0.263101
C63   C     C_R   0.317795 0.317794 0.942843 -0.263101
C64   C     C_R   0.967688 0.178219 0.435379 0.901930
C65   C     C_R   0.032312 0.821781 0.564621 0.901929
C66   C     C_R   0.178255 0.435432 0.967595 0.902218
H1    H     H_    0.480796 0.032779 0.714905 0.149998
H2    H     H_    0.480752 0.714756 0.033038 0.149582
H3    H     H_    0.967245 0.519064 0.285115 0.150357
H4    H     H_    0.032754 0.480936 0.714885 0.150357
H5    H     H_    0.483292 0.921290 0.663427 0.130243
H6    H     H_    0.516708 0.078710 0.336573 0.130243
H7    H     H_    0.107593 0.592052 0.412909 0.131497
H8    H     H_    0.892407 0.407948 0.587091 0.131498
H9    H     H_    0.591349 0.412865 0.108110 0.129940
H10   H     H_    0.408651 0.587134 0.891890 0.129940
H11   H     H_    0.408425 0.891979 0.586995 0.129635
H12   H     H_    0.519204 0.967221 0.285095 0.149998
H13   H     H_    0.591575 0.108021 0.413005 0.129635
H14   H     H_    0.516387 0.336529 0.078734 0.130585
H15   H     H_    0.483613 0.663471 0.921266 0.130585
H16   H     H_    0.078523 0.517002 0.336527 0.133017
H17   H     H_    0.921477 0.482998 0.663472 0.133017
H18   H     H_    0.718298 0.063737 0.718045 0.179035
H19   H     H_    0.281702 0.936263 0.281955 0.179035
H20   H     H_    0.063653 0.718272 0.718100 0.178759
H21   H     H_    0.936347 0.281728 0.281900 0.178759
H22   H     H_    0.718242 0.718063 0.063833 0.179333
H23   H     H_    0.029063 0.714905 0.482745 0.152027
H24   H     H_    0.281758 0.281936 0.936167 0.179333
H25   H     H_    0.970937 0.285095 0.517254 0.152027
H26   H     H_    0.714756 0.482584 0.029339 0.151095
H27   H     H_    0.285244 0.517416 0.970661 0.151095
H28   H     H_    0.285265 0.970666 0.517296 0.151852
H29   H     H_    0.714735 0.029334 0.482704 0.151852
H30   H     H_    0.519247 0.285244 0.966962 0.149582
O1    O     O_R   0.982940 0.138950 0.510160 -0.636969
O2    O     O_R   0.982940 0.510160 0.138950 -0.638023
O3    O     O_R   0.861050 0.017060 0.489840 -0.637201
O4    O     O_R   0.138950 0.982940 0.510160 -0.637201
O5    O     O_R   0.867700 0.025880 0.612340 -0.630842
O6    O     O_R   0.132300 0.974120 0.387660 -0.630843
O7    O     O_R   0.025880 0.612340 0.867700 -0.630980
O8    O     O_R   0.974120 0.387660 0.132300 -0.630980
O9    O     O_R   0.612340 0.867700 0.025880 -0.630127
O10   O     O_R   0.387660 0.132300 0.974120 -0.630127
O11   O     O_R   0.387660 0.974120 0.132300 -0.630418
O12   O     O_R   0.017060 0.861050 0.489840 -0.636969
O13   O     O_R   0.612340 0.025880 0.867700 -0.630418
O14   O     O_R   0.132300 0.387660 0.974120 -0.630228
O15   O     O_R   0.867700 0.612340 0.025880 -0.630227
O16   O     O_R   0.974120 0.132300 0.387660 -0.631097
O17   O     O_R   0.025880 0.867700 0.612340 -0.631097
O18   O     O_R   0.138950 0.510160 0.982940 -0.638291
O19   O     O_R   0.861050 0.489840 0.017060 -0.638291
O20   O     O_R   0.510160 0.982940 0.138950 -0.639021
O21   O     O_R   0.489840 0.017060 0.861050 -0.639021
O22   O     O_R   0.489840 0.861050 0.017060 -0.639305
O23   O     O_R   0.510160 0.138950 0.982940 -0.639305
O24   O     O_R   0.017060 0.489840 0.861050 -0.638023
Zn1   Zn    Zn3+2 0.004880 0.004880 0.583590 0.942446
Zn2   Zn    Zn3+2 0.995120 0.995120 0.416410 0.942446
Zn3   Zn    Zn3+2 0.004880 0.583590 0.004880 0.941214
Zn4   Zn    Zn3+2 0.995120 0.416410 0.995120 0.941214
Zn5   Zn    Zn3+2 0.583590 0.004880 0.004880 0.940127
Zn6   Zn    Zn3+2 0.416410 0.995120 0.995120 0.940126

loop_
_geom_bond_atom_site_label_1
_geom_bond_atom_site_label_2
_ccdc_geom_bond_type
C16   C28   A    
C4    O13   A    
C11   C18   A    
C26   H5    S    
C46   C59   A    
C40   C56   A    
C34   C42   A    
O7    Zn3   S    
C5    O9    A    
C31   H1    S    
C18   C25   A    
C40   H30   S    
C34   C35   A    
C33   H23   S    
C3    O20   A    
C48   C64   S    
C35   C48   A    
C1    C31   A    
C23   C43   A    
O4    Zn1   S    
C19   H11   S    
C19   C26   A    
C8    O2    A    
O1    Zn1   S    
C61   H21   S    
O14   Zn4   S    
C47   C60   A    
C37   C56   A    
C24   H14   S    
C44   C58   A    
C18   H13   S    
C23   C33   A    
C1    C11   S    
C49   C62   A    
O21   Zn6   S    
C15   C34   S    
C36   H26   S    
C39   C52   A    
C9    O3    A    
C7    O7    A    
C12   C32   A    
C50   C63   A    
C13   C25   A    
C9    C52   S    
C32   C46   A    
C14   C30   A    
C10   C51   S    
C8    C55   S    
C15   C29   A    
C41   H2    S    
C20   C29   A    
O2    Zn3   S    
C2    O15   A    
C17   C24   A    
C31   C44   A    
C13   C19   A    
O15   Zn3   S    
C17   C27   A    
C22   H15   S    
C14   C20   A    
C5    C54   S    
C10   O6    A    
C30   H7    S    
C60   H20   S    
C57   C60   A    
C29   H8    S    
C4    C44   S    
C11   C26   A    
C3    O11   A    
C62   H22   S    
C42   H3    S    
O5    Zn1   S    
C14   C23   S    
C59   H19   S    
O16   Zn2   S    
C2    C49   S    
C58   H18   S    
C42   C55   A    
C8    O8    A    
C2    O19   A    
C1    C39   A    
C38   H28   S    
C6    O10   A    
C37   H27   S    
C36   C45   A    
C25   H6    S    
C66   O14   A    
C10   O4    A    
C50   C66   S    
C17   C56   S    
C39   H29   S    
C52   C58   A    
O3    Zn2   S    
O8    Zn4   S    
O18   Zn3   S    
O23   Zn5   S    
O13   Zn5   S    
C64   O1    A    
C43   H4    S    
O20   Zn5   S    
C33   C47   A    
C4    O21   A    
C51   C59   A    
C6    C53   S    
C27   H10   S    
C6    O23   A    
C16   C22   A    
O19   Zn4   S    
C66   O18   A    
C65   O17   A    
C7    O24   A    
C24   C28   A    
O11   Zn6   S    
O12   Zn2   S    
C16   C45   S    
C38   C51   A    
C54   C62   A    
C21   C30   A    
O10   Zn6   S    
C3    C46   S    
O9    Zn5   S    
C5    O22   A    
C22   C27   A    
C65   O12   A    
C37   C50   A    
C53   C63   A    
C48   C61   A    
C55   C61   A    
C63   H24   S    
C47   C65   S    
C12   C38   A    
C41   C54   A    
C64   O16   A    
C43   C57   A    
C32   H12   S    
C15   C21   A    
O17   Zn1   S    
C12   C13   S    
C21   H16   S    
C9    O5    A    
C40   C53   A    
C20   H17   S    
C41   C45   A    
O22   Zn6   S    
O6    Zn2   S    
C28   H9    S    
C7    C57   S    
C36   C49   A    
O24   Zn4   S    
C35   H25   S    
