data_mof_unit_46443.cif
_audit_creation_date              2012-12-10T16:55:03-0500
_audit_creation_method            fapswitch 2.2
_symmetry_space_group_name_H-M    P1
_symmetry_Int_Tables_number       1
_space_group_crystal_system       triclinic
_cell_length_a                    9.839513
_cell_length_b                    10.916767
_cell_length_c                    15.343308
_cell_angle_alpha                 88.018145
_cell_angle_beta                  73.848508
_cell_angle_gamma                 88.7537
_cell_volume                      1581.98674288

loop_
_atom_site_label
_atom_site_type_symbol
_atom_type_description
_atom_site_fract_x
_atom_site_fract_y
_atom_site_fract_z
_atom_type_partial_charge
C1    C     C_R   0.000379 0.265649 0.501490 0.839774
C2    C     C_R   0.666376 0.553864 0.903511 0.109963
C3    C     C_R   0.761091 0.590274 0.951947 0.167588
C4    C     C_R   0.517564 0.554788 0.946229 -0.008380
C5    C     C_R   0.469734 0.562878 0.042510 0.057024
C6    C     C_R   0.567972 0.597965 0.089092 -0.206090
C7    C     C_R   0.709956 0.615362 0.043719 -0.229166
C8    C     C_R   0.414486 0.548433 0.896944 -0.043002
C9    C     C_R   0.276000 0.515772 0.942835 -0.285784
C10   C     C_R   0.231510 0.507010 0.037234 0.135438
C11   C     C_R   0.325604 0.536010 0.088353 0.091415
C12   C     C_R   0.916836 0.502725 0.672323 0.796946
C13   C     C_R   0.091202 0.474337 0.081053 -0.189689
C14   C     C_R   0.041911 0.471224 0.175406 -0.200116
C15   C     C_R   0.272582 0.533166 0.183688 -0.234181
C16   C     C_2   0.885176 0.934869 0.506019 -0.150855
C17   C     C_2   0.002882 0.866439 0.493828 -0.316331
C18   C     C_2   0.888280 0.069143 0.502141 -0.144490
C19   C     C_2   0.001417 0.133023 0.506366 -0.319320
C20   C     C_2   0.406775 0.417124 0.543889 0.189785
C21   C     C_2   0.553730 0.435123 0.555843 -0.004921
C22   C     C_R   0.999628 0.734194 0.498744 0.847549
C23   C     C_R   0.083301 0.499913 0.327511 0.785768
C24   C     C_R   0.868727 0.522150 0.770768 -0.059422
C25   C     C_R   0.131678 0.502136 0.227410 -0.053425
C26   C     C_R   0.906491 0.598830 0.908254 -0.217391
C27   C     C_R   0.959684 0.567063 0.817622 -0.191426
C28   C     C_R   0.724424 0.510106 0.815700 -0.175823
Cu1   Cu    Cu3+1 0.138640 0.500020 0.499980 0.920011
Cu2   Cu    Cu3+1 0.861360 0.499980 0.500020 0.956442
H1    H     H_    0.781303 0.643357 0.081736 0.144236
H2    H     H_    0.019440 0.450529 0.042216 0.141733
H3    H     H_    0.782802 0.891887 0.517796 0.173926
H4    H     H_    0.106855 0.906366 0.478646 0.148566
H5    H     H_    0.792312 0.116217 0.496917 0.165787
H6    H     H_    0.096421 0.089558 0.515752 0.143367
H7    H     H_    0.367085 0.587623 0.511233 0.188564
H8    H     H_    0.585561 0.380721 0.607198 0.159132
H9    H     H_    0.339370 0.553464 0.225933 0.149645
H10   H     H_    0.934594 0.442641 0.207338 0.145656
H11   H     H_    0.199588 0.503714 0.904923 0.178923
H12   H     H_    0.978621 0.631579 0.943984 0.141885
H13   H     H_    0.071034 0.579121 0.784012 0.193680
H14   H     H_    0.657679 0.466060 0.781205 0.142280
H15   H     H_    0.538593 0.615325 0.160582 0.136954
N1    N     N_2   0.346430 0.498660 0.500980 -0.337933
N2    N     N_2   0.652550 0.498630 0.501000 -0.146875
O1    O     O_R   0.117050 0.321960 0.499980 -0.604033
O2    O     O_R   0.882890 0.321920 0.500020 -0.572879
O3    O     O_R   0.052910 0.500040 0.629810 -0.585091
O4    O     O_R   0.818750 0.499990 0.629840 -0.566118
O5    O     O_R   0.117110 0.678080 0.499980 -0.588264
O6    O     O_R   0.882950 0.678040 0.500020 -0.567639
O7    O     O_R   0.181250 0.500010 0.370160 -0.570920
O8    O     O_R   0.947090 0.499960 0.370190 -0.573348
C29   C     C_3   0.332349 0.297483 0.579966 -0.291483
C30   C     C_3   0.399067 0.215496 0.640322 -0.939438
H16   H     H_    0.506093 0.183224 0.601768 0.250417
H17   H     H_    0.404477 0.264954 0.701342 0.274895
H18   H     H_    0.332401 0.133458 0.663692 0.259144
H19   H     H_    0.223791 0.319014 0.621973 0.248418
H20   H     H_    0.329928 0.242128 0.521118 0.213865
C31   C     C_3   0.615853 0.584753 0.433538 -0.143889
C32   C     C_3   0.730191 0.636311 0.352556 -0.738697
H21   H     H_    0.812589 0.688416 0.370158 0.271019
H22   H     H_    0.772907 0.564461 0.302798 0.233375
H23   H     H_    0.678898 0.704013 0.315590 0.174221
H24   H     H_    0.552825 0.537031 0.395818 0.167346
H25   H     H_    0.563738 0.667309 0.469396 0.146689
C33   C     C_2   0.438712 0.595866 0.801814 0.818867
O9    O     O_2   0.522568 0.678613 0.772524 -0.582596
O10   O     O_R   0.359567 0.550836 0.747325 -0.796626
H26   H     H_    0.379136 0.595902 0.686329 0.325347

loop_
_geom_bond_atom_site_label_1
_geom_bond_atom_site_label_2
_ccdc_geom_bond_type
C8    C9    A    
C6    C7    A    
C12   O3    A    
Cu2   O4    S    
C10   C13   A    
C1    O1    A    
C23   O8    A    
Cu1   Cu2   S    
C6    H15   S    
C16   H3    S    
C9    C10   A    
C12   C24   S    
C13   H2    S    
C9    H11   S    
C17   C22   S    
C8    C33   S    
C24   C27   A    
C20   C29   S    
Cu1   N1    S    
C4    C8    A    
Cu1   O7    S    
C10   C11   A    
C32   H21   S    
C2    C3    A    
C30   H16   S    
C31   H25   S    
C13   C14   A    
C29   C30   S    
C15   H9    S    
C26   C27   A    
C33   O9    D    
C11   C15   A    
C2    C4    A    
C16   C18   S    
Cu2   O2    S    
C28   H14   S    
C5    C11   A    
C22   O6    A    
C3    C7    A    
Cu1   O3    S    
C23   C25   S    
C14   C25   A    
N2    C31   S    
C5    C6    A    
Cu2   O6    S    
C29   H20   S    
C15   C25   A    
C30   H17   S    
C1    C19   S    
C17   H4    S    
Cu1   O1    S    
C14   H10   S    
C31   C32   S    
C32   H23   S    
C27   H13   S    
Cu2   N2    S    
C12   O4    A    
C7    H1    S    
C20   C21   S    
C26   H12   S    
C23   O7    A    
C22   O5    A    
C18   C19   D    
C18   H5    S    
C3    C26   A    
C31   H24   S    
C4    C5    A    
C30   H18   S    
C2    C28   A    
H7    N1    S    
C29   H19   S    
C1    O2    A    
Cu2   O8    S    
C33   O10   S    
C19   H6    S    
C20   N1    D    
C21   H8    S    
C24   C28   A    
C16   C17   D    
O10   H26   S    
C21   N2    D    
Cu1   O5    S    
C32   H22   S    
