data_mof_unit_23269.cif
_audit_creation_date              2012-12-10T18:23:51-0500
_audit_creation_method            fapswitch 2.2
_symmetry_space_group_name_H-M    P1
_symmetry_Int_Tables_number       1
_space_group_crystal_system       triclinic
_cell_length_a                    22.513629
_cell_length_b                    22.514513
_cell_length_c                    14.651326
_cell_angle_alpha                 89.996977
_cell_angle_beta                  89.853044
_cell_angle_gamma                 90.000057
_cell_volume                      7426.48939374

loop_
_atom_site_label
_atom_site_type_symbol
_atom_type_description
_atom_site_fract_x
_atom_site_fract_y
_atom_site_fract_z
_atom_type_partial_charge
C1    C     C_R   0.419808 0.919825 0.500061 0.818248
C2    C     C_R   0.580192 0.080174 0.499939 0.818237
C3    C     C_R   0.580192 0.919826 0.499942 0.818261
C4    C     C_R   0.419807 0.080174 0.500058 0.818248
C5    C     C_R   0.919808 0.419825 0.500061 0.818237
C6    C     C_R   0.080192 0.580175 0.499939 0.818247
C7    C     C_R   0.080193 0.419826 0.499942 0.818248
C8    C     C_R   0.919808 0.580174 0.500058 0.818261
C9    C     C_1   0.337549 0.162348 0.500225 0.168810
C10   C     C_1   0.662451 0.837652 0.499774 0.168827
C11   C     C_1   0.662449 0.162350 0.499764 0.168731
C12   C     C_1   0.337553 0.837648 0.500237 0.168735
C13   C     C_1   0.837549 0.662348 0.500226 0.168827
C14   C     C_1   0.162451 0.337652 0.499774 0.168810
C15   C     C_1   0.162447 0.662352 0.499763 0.168735
C16   C     C_1   0.837551 0.337650 0.500236 0.168731
C17   C     C_1   0.500349 0.999998 0.194404 0.377267
C18   C     C_1   0.499651 0.000003 0.805595 0.377234
C19   C     C_1   0.000349 0.499997 0.194404 0.377234
C20   C     C_1   0.999651 0.500002 0.805595 0.377266
C21   C     C_3   0.528273 0.048129 0.969073 0.319484
C22   C     C_3   0.471726 0.951873 0.030927 0.319469
C23   C     C_3   0.472427 0.048534 0.030915 0.319390
C24   C     C_3   0.527572 0.951468 0.969085 0.319358
C25   C     C_3   0.028275 0.548126 0.969073 0.319471
C26   C     C_3   0.971726 0.451871 0.030927 0.319485
C27   C     C_3   0.972429 0.548532 0.030915 0.319360
C28   C     C_3   0.027571 0.451465 0.969084 0.319393
C29   C     C_3   0.721207 0.749513 0.580079 -0.091396
C30   C     C_3   0.278994 0.250687 0.420095 -0.091446
C31   C     C_3   0.277923 0.750393 0.419198 -0.090938
C32   C     C_3   0.721708 0.249975 0.580502 -0.091050
C33   C     C_3   0.221006 0.249313 0.579905 -0.091445
C34   C     C_3   0.778793 0.750487 0.419921 -0.091395
C35   C     C_3   0.778291 0.250025 0.419498 -0.091050
C36   C     C_3   0.222077 0.749606 0.580802 -0.090938
C37   C     C_3   0.224682 0.196762 0.512193 -0.108681
C38   C     C_3   0.775288 0.803207 0.487342 -0.108734
C39   C     C_3   0.775206 0.196877 0.486176 -0.108763
C40   C     C_3   0.224859 0.803058 0.514668 -0.108796
C41   C     C_3   0.724712 0.696793 0.512658 -0.108733
C42   C     C_3   0.275318 0.303238 0.487806 -0.108680
C43   C     C_3   0.275141 0.696942 0.485332 -0.108797
C44   C     C_3   0.724793 0.303123 0.513824 -0.108762
C45   C     C_1   0.375162 0.124766 0.500205 -0.065742
C46   C     C_1   0.624838 0.875233 0.499795 -0.065714
C47   C     C_1   0.624837 0.124768 0.499786 -0.065855
C48   C     C_1   0.375164 0.875231 0.500215 -0.065845
C49   C     C_1   0.875162 0.624767 0.500205 -0.065714
C50   C     C_1   0.124838 0.375234 0.499795 -0.065742
C51   C     C_1   0.124835 0.624769 0.499785 -0.065846
C52   C     C_1   0.875163 0.375232 0.500214 -0.065855
C53   C     C_3   0.288334 0.260453 0.567843 -0.095888
C54   C     C_3   0.711496 0.739377 0.432447 -0.095899
C55   C     C_3   0.711074 0.261052 0.433183 -0.096092
C56   C     C_3   0.289230 0.738643 0.566273 -0.096171
C57   C     C_3   0.788504 0.760623 0.567553 -0.095899
C58   C     C_3   0.211666 0.239547 0.432157 -0.095888
C59   C     C_3   0.210770 0.761357 0.433727 -0.096171
C60   C     C_3   0.788926 0.238948 0.566817 -0.096092
C61   C     C_3   0.291871 0.208042 0.500136 0.115319
C62   C     C_3   0.708129 0.791957 0.499864 0.115315
C63   C     C_3   0.708128 0.208044 0.499857 0.115313
C64   C     C_3   0.291874 0.791954 0.500143 0.115306
C65   C     C_3   0.791871 0.708043 0.500136 0.115315
C66   C     C_3   0.208129 0.291958 0.499864 0.115318
C67   C     C_3   0.208126 0.708046 0.499857 0.115306
C68   C     C_3   0.791872 0.291956 0.500142 0.115313
C69   C     C_3   0.557137 0.999587 0.029197 -0.213350
C70   C     C_3   0.442863 0.000416 0.970803 -0.213362
C71   C     C_3   0.057137 0.499583 0.029196 -0.213366
C72   C     C_3   0.942863 0.500414 0.970804 -0.213353
C73   C     C_3   0.501019 0.999994 0.092075 -0.147993
C74   C     C_3   0.498980 0.000008 0.907925 -0.147988
C75   C     C_3   0.001020 0.499992 0.092075 -0.147989
C76   C     C_3   0.998980 0.500006 0.907925 -0.147994
Cu1   Cu    Cu3+1 0.500000 1.000000 0.590220 1.070905
Cu2   Cu    Cu3+1 0.500000 0.000000 0.409780 1.070903
Cu3   Cu    Cu3+1 0.000000 0.500000 0.590220 1.070903
Cu4   Cu    Cu3+1 0.000000 0.500000 0.409780 1.070905
N1    N     N_1   0.499980 0.000000 0.274190 -0.148080
N2    N     N_1   0.500020 0.000000 0.725810 -0.148086
N3    N     N_1   0.999980 0.500000 0.274190 -0.148086
N4    N     N_1   0.000020 0.500000 0.725810 -0.148079
O1    O     O_R   0.439540 0.939530 0.576170 -0.558372
O2    O     O_R   0.560460 0.060470 0.423830 -0.558313
O3    O     O_R   0.560460 0.939530 0.423830 -0.558138
O4    O     O_R   0.439540 0.060470 0.576170 -0.558063
O5    O     O_R   0.939540 0.439530 0.576170 -0.558313
O6    O     O_R   0.060460 0.560470 0.423830 -0.558372
O7    O     O_R   0.060460 0.439530 0.423830 -0.558063
O8    O     O_R   0.939540 0.560470 0.576170 -0.558137
O9    O     O_R   0.439530 0.939530 0.423800 -0.565483
O10   O     O_R   0.560470 0.060470 0.576200 -0.565523
O11   O     O_R   0.560470 0.939530 0.576200 -0.565595
O12   O     O_R   0.439530 0.060470 0.423800 -0.565635
O13   O     O_R   0.939530 0.439530 0.423800 -0.565523
O14   O     O_R   0.060470 0.560470 0.576200 -0.565483
O15   O     O_R   0.060470 0.439530 0.576200 -0.565635
O16   O     O_R   0.939530 0.560470 0.423800 -0.565595
C77   C     C_2   0.379335 0.000878 0.940796 0.342522
H1    H     H_    0.344196 0.001131 0.991553 0.098419
O17   O     O_2   0.366803 0.000973 0.859845 -0.524394
C78   C     C_2   0.620665 0.999126 0.059205 0.342519
H2    H     H_    0.655804 0.998873 0.008447 0.098399
O18   O     O_2   0.633197 0.999031 0.140155 -0.524421
C79   C     C_2   0.879335 0.500876 0.940796 0.342516
H3    H     H_    0.844196 0.501130 0.991554 0.098397
O19   O     O_2   0.866803 0.500971 0.859846 -0.524420
C80   C     C_2   0.120665 0.499119 0.059203 0.342520
H4    H     H_    0.155804 0.498866 0.008445 0.098418
O20   O     O_2   0.133198 0.499024 0.140154 -0.524393
C81   C     C_2   0.194334 0.138170 0.525987 0.366152
H5    H     H_    0.146431 0.136690 0.533563 0.091975
O21   O     O_2   0.222965 0.092208 0.528764 -0.502606
C82   C     C_2   0.805601 0.861764 0.473022 0.366207
H6    H     H_    0.853485 0.863224 0.465147 0.092018
O22   O     O_2   0.776963 0.907719 0.470148 -0.502495
C83   C     C_2   0.805427 0.138415 0.470538 0.366219
H7    H     H_    0.853260 0.137007 0.461927 0.091928
O23   O     O_2   0.776771 0.092479 0.467416 -0.502369
C84   C     C_2   0.194710 0.861445 0.531262 0.366275
H8    H     H_    0.146917 0.862811 0.540410 0.091946
O24   O     O_2   0.223380 0.907367 0.534565 -0.502287
C85   C     C_2   0.694399 0.638236 0.526978 0.366207
H9    H     H_    0.646515 0.636776 0.534852 0.092017
O25   O     O_2   0.723037 0.592281 0.529852 -0.502495
C86   C     C_2   0.305666 0.361830 0.474013 0.366152
H10   H     H_    0.353569 0.363310 0.466436 0.091975
O26   O     O_2   0.277035 0.407791 0.471235 -0.502606
C87   C     C_2   0.305290 0.638554 0.468738 0.366275
H11   H     H_    0.353083 0.637189 0.459590 0.091946
O27   O     O_2   0.276620 0.592633 0.465435 -0.502287
C88   C     C_2   0.694573 0.361585 0.529462 0.366219
H12   H     H_    0.646739 0.362993 0.538073 0.091928
O28   O     O_2   0.723229 0.407521 0.532584 -0.502369
C89   C     C_2   0.690328 0.747310 0.670814 0.344513
H13   H     H_    0.704140 0.714936 0.721287 0.088580
O29   O     O_2   0.649896 0.781550 0.688406 -0.526614
C90   C     C_2   0.310097 0.253116 0.329555 0.344501
H14   H     H_    0.296413 0.285620 0.279194 0.088715
O30   O     O_2   0.350569 0.218917 0.311995 -0.526608
C91   C     C_2   0.307816 0.749187 0.327645 0.343910
H15   H     H_    0.293442 0.717383 0.276697 0.087976
O31   O     O_2   0.348075 0.783603 0.309918 -0.527009
C92   C     C_2   0.691397 0.251597 0.671715 0.343953
H16   H     H_    0.705531 0.283641 0.722468 0.088167
O32   O     O_2   0.651066 0.217253 0.689383 -0.526924
C93   C     C_2   0.189903 0.246884 0.670445 0.344501
H17   H     H_    0.203586 0.214380 0.720805 0.088715
O33   O     O_2   0.149431 0.281083 0.688005 -0.526609
C94   C     C_2   0.809672 0.752690 0.329186 0.344513
H18   H     H_    0.795860 0.785064 0.278713 0.088580
O34   O     O_2   0.850104 0.718450 0.311594 -0.526614
C95   C     C_2   0.808603 0.248403 0.328285 0.343954
H19   H     H_    0.794469 0.216359 0.277532 0.088167
O35   O     O_2   0.848933 0.282747 0.310617 -0.526924
C96   C     C_2   0.192184 0.750812 0.672355 0.343911
H20   H     H_    0.206559 0.782617 0.723303 0.087976
O36   O     O_2   0.151925 0.716397 0.690082 -0.527010
C97   C     C_2   0.669614 0.725691 0.355899 0.349069
H21   H     H_    0.677304 0.686930 0.313555 0.088584
O37   O     O_2   0.627047 0.757705 0.340783 -0.524963
C98   C     C_2   0.330022 0.273946 0.644721 0.349052
H22   H     H_    0.322225 0.312600 0.687250 0.088488
O38   O     O_2   0.372550 0.241893 0.659902 -0.524897
C99   C     C_2   0.331934 0.724124 0.641373 0.349106
H23   H     H_    0.324697 0.684905 0.682906 0.088975
O39   O     O_2   0.374666 0.755971 0.656218 -0.524781
C100  C     C_2   0.668713 0.275224 0.357469 0.349039
H24   H     H_    0.676139 0.314253 0.315592 0.088820
O40   O     O_2   0.626051 0.243307 0.342510 -0.524773
C101  C     C_2   0.169978 0.226054 0.355278 0.349052
H25   H     H_    0.177775 0.187399 0.312750 0.088487
O41   O     O_2   0.127450 0.258106 0.340098 -0.524896
C102  C     C_2   0.830386 0.774309 0.644101 0.349070
H26   H     H_    0.822696 0.813070 0.686445 0.088585
O42   O     O_2   0.872953 0.742295 0.659217 -0.524963
C103  C     C_2   0.831286 0.224776 0.642531 0.349038
H27   H     H_    0.823861 0.185747 0.684408 0.088820
O43   O     O_2   0.873949 0.256693 0.657490 -0.524773
C104  C     C_2   0.168066 0.775876 0.358627 0.349105
H28   H     H_    0.175303 0.815095 0.317094 0.088975
O44   O     O_2   0.125334 0.744029 0.343783 -0.524781
O45   O     O_3   0.445529 0.099182 0.070116 -0.575427
C105  C     C_3   0.419884 0.135111 0.001825 0.089872
H29   H     H_    0.375573 0.117352 0.982999 0.159195
H30   H     H_    0.447910 0.138370 0.939296 0.186773
C106  C     C_3   0.411426 0.197528 0.039316 -0.726247
H31   H     H_    0.455072 0.216683 0.058701 0.249189
H32   H     H_    0.390755 0.226234 0.986574 0.203421
H33   H     H_    0.382094 0.196373 0.100375 0.275243
O46   O     O_3   0.554471 0.900821 0.929884 -0.575376
C107  C     C_3   0.580116 0.864892 0.998176 0.089869
H34   H     H_    0.552090 0.861633 0.060704 0.186695
H35   H     H_    0.624427 0.882652 0.017002 0.159179
C108  C     C_3   0.588576 0.802476 0.960685 -0.726306
H36   H     H_    0.617910 0.803631 0.899628 0.275389
H37   H     H_    0.609246 0.773770 0.013428 0.203350
H38   H     H_    0.544931 0.783320 0.941297 0.249154
O47   O     O_3   0.555903 0.098380 0.929855 -0.575198
C109  C     C_3   0.582061 0.133940 0.998135 0.089645
H39   H     H_    0.626100 0.115532 0.017000 0.159023
H40   H     H_    0.554071 0.137625 0.060643 0.186622
C110  C     C_3   0.591451 0.196217 0.960604 -0.726474
H41   H     H_    0.548099 0.216008 0.941165 0.249295
H42   H     H_    0.612523 0.224628 0.013342 0.202929
H43   H     H_    0.620785 0.194617 0.899573 0.275557
O48   O     O_3   0.444096 0.901623 0.070144 -0.575099
C111  C     C_3   0.417938 0.866064 0.001864 0.089662
H44   H     H_    0.445931 0.862375 0.939358 0.186507
H45   H     H_    0.373901 0.884474 0.982994 0.159009
C112  C     C_3   0.408542 0.803788 0.039396 -0.726578
H46   H     H_    0.379202 0.805392 0.100422 0.275815
H47   H     H_    0.387472 0.775376 0.986656 0.202821
H48   H     H_    0.451891 0.783994 0.058844 0.249237
O49   O     O_3   0.945531 0.599180 0.070117 -0.575375
C113  C     C_3   0.919886 0.635109 0.001826 0.089872
H49   H     H_    0.875574 0.617349 0.983001 0.159177
H50   H     H_    0.947911 0.638368 0.939297 0.186695
C114  C     C_3   0.911426 0.697525 0.039317 -0.726305
H51   H     H_    0.955072 0.716681 0.058703 0.249155
H52   H     H_    0.890756 0.726232 0.986574 0.203350
H53   H     H_    0.882093 0.696370 0.100374 0.275389
O50   O     O_3   0.054469 0.400817 0.929883 -0.575426
C115  C     C_3   0.080113 0.364888 0.998174 0.089881
H54   H     H_    0.052090 0.361631 0.060705 0.186773
H55   H     H_    0.124426 0.382646 0.016996 0.159192
C116  C     C_3   0.088568 0.302470 0.960685 -0.726247
H56   H     H_    0.117899 0.303623 0.899624 0.275243
H57   H     H_    0.109239 0.273764 0.013427 0.203421
H58   H     H_    0.044921 0.283317 0.941302 0.249188
O51   O     O_3   0.055905 0.598377 0.929855 -0.575100
C117  C     C_3   0.082065 0.633934 0.998135 0.089667
H59   H     H_    0.126103 0.615523 0.017001 0.159007
H60   H     H_    0.054075 0.637622 0.060643 0.186506
C118  C     C_3   0.091462 0.696210 0.960605 -0.726577
H61   H     H_    0.048112 0.716005 0.941163 0.249235
H62   H     H_    0.112534 0.724620 0.013345 0.202821
H63   H     H_    0.120799 0.694607 0.899577 0.275816
O52   O     O_3   0.944096 0.401621 0.070145 -0.575197
C119  C     C_3   0.917935 0.366063 0.001865 0.089655
H64   H     H_    0.945922 0.362380 0.939352 0.186619
H65   H     H_    0.873894 0.384470 0.983008 0.159020
C120  C     C_3   0.908549 0.303784 0.039391 -0.726476
H66   H     H_    0.879219 0.305381 0.100428 0.275559
H67   H     H_    0.887474 0.275374 0.986653 0.202929
H68   H     H_    0.951903 0.283992 0.058820 0.249290

loop_
_geom_bond_atom_site_label_1
_geom_bond_atom_site_label_2
_ccdc_geom_bond_type
Cu2   O3    S    
C107  H35   S    
C22   O48   S    
C120  H67   S    
C9    C45   T    
C77   H1    S    
Cu4   O13   S    
C108  H38   S    
C26   C72   S    
O47   C109  S    
C31   C43   S    
Cu3   O14   S    
C11   C47   T    
C40   C84   S    
Cu2   N1    S    
Cu4   O6    S    
C12   C48   T    
C86   H10   S    
C78   O18   D    
C97   H21   S    
C113  H49   S    
C36   C67   S    
C19   C75   S    
C99   O39   D    
C1    O1    A    
C13   C65   S    
Cu1   Cu2   S    
C60   C103  S    
C36   C96   S    
C89   O29   D    
C98   O38   D    
C114  H51   S    
C7    O15   A    
C9    C61   S    
C6    O14   A    
Cu3   O15   S    
C98   H22   S    
C35   C95   S    
C92   H16   S    
C114  H53   S    
C11   C63   S    
C93   O33   D    
C42   C53   S    
Cu3   N4    S    
C12   C64   S    
C27   C75   S    
C69   C78   S    
C107  C108  S    
C37   C81   S    
C100  H24   S    
Cu2   O9    S    
C91   H15   S    
C38   C57   S    
C71   C80   S    
Cu1   O10   S    
C35   C68   S    
C82   H6    S    
C20   C76   S    
C106  H32   S    
O52   C119  S    
C2    O2    A    
C31   C59   S    
C108  H37   S    
C80   H4    S    
C36   C40   S    
C80   O20   D    
C59   C67   S    
C4    O4    A    
C4    O12   A    
C53   C61   S    
C58   C66   S    
Cu1   O4    S    
Cu2   O12   S    
C109  C110  S    
C55   C63   S    
C70   C74   S    
C119  H65   S    
C79   H3    S    
C56   C64   S    
C5    C52   S    
C69   C73   S    
C8    O8    A    
C15   C51   T    
C6    C51   S    
O51   C117  S    
C120  H68   S    
C55   C100  S    
C17   N1    T    
C37   C58   S    
C72   C76   S    
C116  H58   S    
Cu2   O2    S    
C102  O42   D    
C107  H34   S    
C105  H29   S    
C25   O51   S    
C77   O17   D    
C40   C59   S    
C118  H61   S    
Cu4   O16   S    
C96   O36   D    
C79   O19   D    
C23   C70   S    
C10   C62   S    
C117  H60   S    
C23   C73   S    
Cu4   N3    S    
C19   N3    T    
C34   C65   S    
C78   H2    S    
C97   O37   D    
C24   C69   S    
O48   C111  S    
C115  H54   S    
C92   O32   D    
C4    C45   S    
C83   O23   D    
C33   C53   S    
C70   C77   S    
C119  C120  S    
C30   C90   S    
C109  H39   S    
C14   C50   T    
C3    O3    A    
C106  H33   S    
C21   O47   S    
O50   C115  S    
C2    O10   A    
C90   H14   S    
C32   C63   S    
C99   H23   S    
C23   O45   S    
C34   C94   S    
C43   C67   S    
C41   C65   S    
C54   C62   S    
O49   C113  S    
C101  H25   S    
C38   C62   S    
C35   C55   S    
C21   C74   S    
Cu1   O11   S    
C20   N4    T    
C33   C37   S    
C103  H27   S    
C21   C69   S    
C117  C118  S    
C59   C104  S    
C35   C39   S    
C111  C112  S    
C10   C46   T    
C116  H56   S    
C36   C56   S    
C41   C85   S    
C57   C102  S    
C38   C82   S    
C113  H50   S    
C72   C79   S    
C112  H46   S    
C15   C67   S    
C33   C66   S    
C119  H64   S    
C14   C66   S    
C53   C98   S    
C95   O35   D    
C44   C88   S    
C60   C68   S    
Cu3   O8    S    
C101  O41   D    
C109  H40   S    
C82   O22   D    
C25   C71   S    
C110  H41   S    
C1    O9    A    
C102  H26   S    
C29   C57   S    
C27   O49   S    
C115  H55   S    
C118  H62   S    
C96   H20   S    
C13   C49   T    
C30   C61   S    
C58   C101  S    
C117  H59   S    
C32   C60   S    
C105  H30   S    
C87   H11   S    
C28   C76   S    
C7    O7    A    
C29   C89   S    
C113  C114  S    
C42   C66   S    
C81   H5    S    
C94   O34   D    
C110  H43   S    
C26   O52   S    
C106  H31   S    
C91   O31   D    
C112  H48   S    
C29   C62   S    
C29   C41   S    
C34   C38   S    
C26   C28   S    
C31   C64   S    
C16   C52   T    
C7    C50   S    
C57   C65   S    
C87   O27   D    
C86   O26   D    
C28   O50   S    
C37   C61   S    
C83   H7    S    
C1    C48   S    
C34   C54   S    
C88   H12   S    
C90   O30   D    
C42   C86   S    
C2    C47   S    
C25   C27   S    
C115  C116  S    
C39   C63   S    
C89   H13   S    
C3    C46   S    
C111  H45   S    
C40   C64   S    
C114  H52   S    
C16   C68   S    
C26   C75   S    
C25   C76   S    
C105  C106  S    
C21   C23   S    
C8    O16   A    
C112  H47   S    
C116  H57   S    
C33   C93   S    
C93   H17   S    
C32   C92   S    
C71   C75   S    
C17   C73   S    
C44   C55   S    
C24   C74   S    
O45   C105  S    
C85   H9    S    
C100  O40   D    
Cu1   N2    S    
Cu4   O7    S    
C39   C83   S    
C39   C60   S    
C30   C58   S    
C56   C99   S    
C43   C87   S    
C18   N2    T    
C88   O28   D    
C5    O13   A    
C22   C24   S    
C111  H44   S    
C54   C97   S    
C31   C91   S    
C108  H36   S    
C104  O44   D    
C41   C54   S    
Cu3   O5    S    
C44   C68   S    
Cu1   O1    S    
Cu3   Cu4   S    
C28   C71   S    
C43   C56   S    
C6    O6    A    
C94   H18   S    
C32   C44   S    
C18   C74   S    
O46   C107  S    
C118  H63   S    
C24   O46   S    
C95   H19   S    
C85   O25   D    
C30   C42   S    
C3    O11   A    
C22   C73   S    
C81   O21   D    
C84   H8    S    
C120  H66   S    
C110  H42   S    
C84   O24   D    
C8    C49   S    
C22   C70   S    
C5    O5    A    
C27   C72   S    
C104  H28   S    
C103  O43   D    
