data_mof_unit_16054.cif
_audit_creation_date              2012-12-10T21:35:46-0500
_audit_creation_method            fapswitch 2.2
_symmetry_space_group_name_H-M    P1
_symmetry_Int_Tables_number       1
_space_group_crystal_system       triclinic
_cell_length_a                    16.120578
_cell_length_b                    15.729324
_cell_length_c                    16.684167
_cell_angle_alpha                 90.565314
_cell_angle_beta                  87.120444
_cell_angle_gamma                 91.664763
_cell_volume                      4223.25921576

loop_
_atom_site_label
_atom_site_type_symbol
_atom_type_description
_atom_site_fract_x
_atom_site_fract_y
_atom_site_fract_z
_atom_type_partial_charge
C1    C     C_R   0.511456 0.501615 0.346765 0.926817
C2    C     C_3   0.601002 0.950901 0.483144 0.379021
C3    C     C_3   0.507542 0.916856 0.502744 0.113911
C4    C     C_3   0.472718 0.949022 0.587463 -0.117487
C5    C     C_3   0.479130 0.047157 0.591299 -0.467609
C6    C     C_1   0.501970 0.825183 0.501817 -0.004323
C7    C     C_1   0.504566 0.174654 0.507757 -0.054586
C8    C     C_1   0.502294 0.249726 0.504951 -0.197594
C9    C     C_R   0.518851 0.513839 0.260658 -0.215257
C10   C     C_R   0.457854 0.479228 0.211508 0.474875
C11   C     C_R   0.457295 0.504823 0.132385 -0.337205
C12   C     C_R   0.500631 0.338266 0.500915 0.909689
C13   C     C_R   0.519600 0.560949 0.099949 0.157400
C14   C     C_R   0.583611 0.590432 0.147504 0.486371
C15   C     C_R   0.581958 0.568468 0.228321 -0.386328
C16   C     C_R   0.541699 0.579230 0.857591 -0.190308
C17   C     C_R   0.549263 0.556355 0.777374 -0.233014
C18   C     C_R   0.464542 0.568604 0.900460 0.316840
C19   C     C_R   0.480025 0.523844 0.738413 -0.029304
C20   C     C_R   0.402094 0.518540 0.779572 -0.233927
C21   C     C_R   0.394640 0.540923 0.860313 -0.208783
C22   C     C_R   0.239672 0.547673 0.534892 -0.073717
C23   C     C_R   0.488438 0.503428 0.653256 0.864501
C24   C     C_R   0.153212 0.553768 0.529972 -0.101893
C25   C     C_R   0.109979 0.495366 0.480053 0.216137
C26   C     C_R   0.157459 0.436676 0.433115 -0.110988
C27   C     C_R   0.244245 0.435281 0.439898 -0.034026
C28   C     C_R   0.853855 0.470150 0.460496 -0.318186
C29   C     C_R   0.767100 0.466148 0.455802 0.100626
C30   C     C_R   0.890720 0.518751 0.520993 0.314057
C31   C     C_R   0.751511 0.558303 0.568525 -0.031841
C32   C     C_R   0.838165 0.562812 0.575460 -0.302385
C33   C     C_R   0.499340 0.661595 0.500277 0.903929
C34   C     C_3   0.597043 0.052751 0.480865 -0.210327
C35   C     C_3   0.446102 0.048230 0.442983 -0.206688
C36   C     C_3   0.448411 0.949163 0.438286 0.213487
C37   C     C_1   0.498655 0.750007 0.501104 -0.203545
C38   C     C_3   0.506947 0.082967 0.507499 0.128996
H1    H     H_    0.404962 0.933932 0.589915 0.160544
H2    H     H_    0.609495 0.563967 0.746072 0.158173
H3    H     H_    0.596939 0.601703 0.886540 0.147008
H4    H     H_    0.628485 0.596040 0.266137 0.182800
H5    H     H_    0.347436 0.495580 0.749919 0.160118
H6    H     H_    0.409259 0.478208 0.095694 0.186682
H7    H     H_    0.335166 0.532329 0.892828 0.139802
H8    H     H_    0.601908 0.073777 0.418569 0.072305
H9    H     H_    0.891805 0.434005 0.417759 0.168173
H10   H     H_    0.281250 0.391184 0.404182 0.145794
H11   H     H_    0.711780 0.592964 0.610695 0.137621
H12   H     H_    0.864222 0.600629 0.623140 0.156337
H13   H     H_    0.273444 0.592314 0.571856 0.144306
H14   H     H_    0.473981 0.069662 0.383818 0.073739
H15   H     H_    0.476423 0.932418 0.377971 0.074932
H16   H     H_    0.520201 0.069200 0.637831 0.166504
H17   H     H_    0.418429 0.073216 0.611954 0.163042
N1    N     N_2   0.525245 0.578759 0.017207 -0.164964
N2    N     N_2   0.457413 0.570491 0.985027 -0.194811
N3    N     N_R   0.283090 0.489740 0.490280 -0.097574
N4    N     N_2   0.021658 0.496195 0.471199 -0.188657
N5    N     N_2   0.978732 0.521651 0.530873 -0.168363
N6    N     N_R   0.716930 0.510260 0.509710 -0.102434
O1    O     O_R   0.577460 0.503670 0.387340 -0.620186
O2    O     O_R   0.438160 0.497080 0.381100 -0.579080
O3    O     O_R   0.569680 0.380440 0.503120 -0.616113
O4    O     O_R   0.430380 0.373850 0.496890 -0.611982
O5    O     O_R   0.561840 0.502920 0.618900 -0.625455
O6    O     O_R   0.422540 0.496330 0.612660 -0.623862
O7    O     O_R   0.569620 0.626150 0.503110 -0.623368
O8    O     O_R   0.430320 0.619560 0.496880 -0.621608
Zn1   Zn    Zn3+2 0.593020 0.504400 0.504170 0.938935
Zn2   Zn    Zn3+2 0.406980 0.495600 0.495830 0.954258
C39   C     C_R   0.634519 0.908022 0.402018 0.001636
C40   C     C_R   0.661463 0.822884 0.402590 -0.137949
C41   C     C_R   0.689799 0.781209 0.332655 -0.145929
C42   C     C_R   0.690568 0.822276 0.259261 -0.090029
C43   C     C_R   0.661854 0.904573 0.255585 -0.104329
C44   C     C_R   0.633299 0.946763 0.325320 -0.231356
H18   H     H_    0.659682 0.786957 0.457428 0.154946
H19   H     H_    0.710489 0.716491 0.335491 0.123869
H20   H     H_    0.711912 0.789863 0.204967 0.151085
H21   H     H_    0.660223 0.935515 0.198026 0.126128
H22   H     H_    0.607235 0.007582 0.315338 0.109978
C45   C     C_R   0.672851 0.102798 0.512087 0.203857
C46   C     C_R   0.671729 0.151319 0.583982 -0.153082
C47   C     C_R   0.742481 0.197345 0.606624 -0.181897
C48   C     C_R   0.815312 0.196967 0.557962 -0.117989
C49   C     C_R   0.817052 0.152030 0.485597 -0.143791
C50   C     C_R   0.746278 0.106995 0.462122 -0.212306
H23   H     H_    0.617225 0.156764 0.622848 0.124735
H24   H     H_    0.740580 0.233869 0.661979 0.138622
H25   H     H_    0.869997 0.232456 0.575769 0.128464
H26   H     H_    0.873207 0.152163 0.447411 0.122496
H27   H     H_    0.749079 0.074100 0.404755 0.125813
O9    O     O_3   0.646943 0.926487 0.550502 -0.645973
C51   C     C_3   0.734368 0.918617 0.538556 0.116146
H28   H     H_    0.761103 0.950463 0.484032 0.146238
H29   H     H_    0.748925 0.850312 0.533046 0.140644
C52   C     C_3   0.777563 0.951303 0.612894 -0.330243
H30   H     H_    0.760538 0.017605 0.626799 0.241137
H31   H     H_    0.756889 0.911553 0.665277 0.214879
C53   C     C_3   0.871818 0.947706 0.600951 -0.986920
H32   H     H_    0.890377 0.881181 0.589117 0.257902
H33   H     H_    0.901270 0.971178 0.656017 0.262444
H34   H     H_    0.894362 0.988287 0.549791 0.272418
O10   O     O_3   0.645222 0.645101 0.115860 -0.646158
C54   C     C_3   0.716041 0.598535 0.090969 0.087036
H35   H     H_    0.731840 0.613519 0.026974 0.154856
H36   H     H_    0.706742 0.527915 0.093912 0.111504
C55   C     C_3   0.789410 0.626568 0.140627 -0.359311
H37   H     H_    0.806810 0.693972 0.127093 0.217123
H38   H     H_    0.771219 0.622135 0.205516 0.209881
C56   C     C_3   0.864636 0.571663 0.122367 -0.960157
H39   H     H_    0.849512 0.504350 0.138202 0.263572
H40   H     H_    0.916985 0.594650 0.158383 0.268612
H41   H     H_    0.884329 0.575443 0.057709 0.261862
O11   O     O_3   0.394514 0.425031 0.240905 -0.645116
C57   C     C_3   0.424564 0.341986 0.248722 0.079895
H42   H     H_    0.378236 0.306187 0.287560 0.161733
H43   H     H_    0.484272 0.341426 0.279593 0.119501
C58   C     C_3   0.433314 0.296362 0.167030 -0.373260
H44   H     H_    0.375578 0.303303 0.134261 0.231580
H45   H     H_    0.486063 0.325742 0.130723 0.210675
C59   C     C_3   0.449401 0.201953 0.176457 -0.981986
H46   H     H_    0.503053 0.192950 0.214464 0.254913
H47   H     H_    0.463492 0.173009 0.116542 0.269379
H48   H     H_    0.393400 0.168801 0.203846 0.264090
C60   C     C_R   0.732647 0.413249 0.391492 0.147369
C61   C     C_R   0.734073 0.444089 0.312796 -0.128694
C62   C     C_R   0.704159 0.392942 0.250919 -0.135149
C63   C     C_R   0.674009 0.310389 0.266991 -0.154978
C64   C     C_R   0.675382 0.278220 0.344629 -0.165807
C65   C     C_R   0.706147 0.328921 0.406401 -0.095021
H49   H     H_    0.757577 0.507834 0.299784 0.116217
H50   H     H_    0.704160 0.417237 0.190567 0.124457
H51   H     H_    0.650311 0.271139 0.219161 0.131873
H52   H     H_    0.652788 0.214001 0.356811 0.130685
H53   H     H_    0.708082 0.303049 0.466065 0.160527
C66   C     C_R   0.118551 0.378761 0.374018 0.130147
C67   C     C_R   0.048266 0.327515 0.396015 -0.156620
C68   C     C_R   0.012152 0.273761 0.339464 -0.158002
C69   C     C_R   0.046304 0.269713 0.260969 -0.100410
C70   C     C_R   0.116585 0.319629 0.238704 -0.140637
C71   C     C_R   0.152538 0.374021 0.294779 -0.180634
H54   H     H_    0.021867 0.328389 0.456985 0.133425
H55   H     H_    0.957781 0.235025 0.356457 0.124241
H56   H     H_    0.018339 0.227830 0.217421 0.122280
H57   H     H_    0.143102 0.316398 0.177889 0.132788
H58   H     H_    0.206588 0.412819 0.276208 0.166097
C72   C     C_R   0.112989 0.627072 0.570382 0.149625
C73   C     C_R   0.075494 0.688705 0.524931 -0.113412
C74   C     C_R   0.039135 0.759022 0.562803 -0.152788
C75   C     C_R   0.040215 0.768502 0.646133 -0.121089
C76   C     C_R   0.078069 0.707838 0.691661 -0.139749
C77   C     C_R   0.114751 0.637494 0.653979 -0.166307
H59   H     H_    0.074732 0.682346 0.460263 0.128025
H60   H     H_    0.010503 0.806293 0.527413 0.129651
H61   H     H_    0.012077 0.823013 0.675394 0.128889
H62   H     H_    0.079180 0.715444 0.756145 0.128054
H63   H     H_    0.144113 0.591024 0.689832 0.121856
C78   C     C_R   0.358938 0.086479 0.448041 0.239363
C79   C     C_R   0.339960 0.147776 0.391176 -0.223782
C80   C     C_R   0.262007 0.184514 0.393054 -0.134435
C81   C     C_R   0.201588 0.161126 0.452044 -0.100929
C82   C     C_R   0.219077 0.100993 0.509193 -0.195062
C83   C     C_R   0.296956 0.064001 0.507494 -0.068994
H64   H     H_    0.386068 0.167825 0.345545 0.120791
H65   H     H_    0.248514 0.231170 0.348707 0.141266
H66   H     H_    0.141187 0.189417 0.453501 0.137673
H67   H     H_    0.172022 0.082648 0.554819 0.133628
H68   H     H_    0.306967 0.016898 0.552011 0.142611
O12   O     O_3   0.367199 0.911623 0.450820 -0.648450
C84   C     C_3   0.342485 0.861994 0.384439 0.109010
H69   H     H_    0.291258 0.818054 0.406299 0.167947
H70   H     H_    0.393060 0.820935 0.359773 0.133915
C85   C     C_3   0.309834 0.918431 0.319260 -0.362004
H71   H     H_    0.258068 0.956650 0.345434 0.241400
H72   H     H_    0.359998 0.962902 0.296034 0.212294
C86   C     C_3   0.278597 0.865110 0.249514 -0.953171
H73   H     H_    0.329801 0.827354 0.221678 0.270659
H74   H     H_    0.255431 0.907627 0.203372 0.266148
H75   H     H_    0.226929 0.821375 0.270728 0.263137
C87   C     C_R   0.502719 0.902925 0.661299 0.191762
C88   C     C_R   0.571490 0.931439 0.704634 -0.056491
C89   C     C_R   0.595818 0.886312 0.770914 -0.193083
C90   C     C_R   0.551943 0.812633 0.795645 -0.100035
C91   C     C_R   0.483305 0.783996 0.754350 -0.127003
C92   C     C_R   0.458635 0.828798 0.688119 -0.200508
H76   H     H_    0.608133 0.987382 0.687213 0.140039
H77   H     H_    0.649125 0.908455 0.803009 0.125294
H78   H     H_    0.571066 0.777812 0.846890 0.135673
H79   H     H_    0.449039 0.727000 0.773635 0.150794
H80   H     H_    0.405126 0.804997 0.657154 0.131819

loop_
_geom_bond_atom_site_label_1
_geom_bond_atom_site_label_2
_ccdc_geom_bond_type
C27   H10   S    
N6    Zn1   S    
C49   C50   A    
C28   H9    S    
C53   H32   S    
C18   C21   A    
C17   H2    S    
C40   C41   A    
C31   N6    A    
O10   C54   S    
C51   H28   S    
C72   C77   A    
C3    C6    S    
C61   C62   A    
C56   H40   S    
C79   C80   A    
C51   C52   S    
C72   C73   A    
C7    C8    T    
C85   H72   S    
C47   C48   A    
C84   H69   S    
C26   C27   A    
C3    C36   S    
C23   O5    A    
C28   C29   A    
C62   C63   A    
C66   C71   A    
C57   H43   S    
C12   O3    A    
N3    Zn2   S    
C59   H47   S    
C54   H35   S    
C52   H30   S    
C91   H79   S    
C89   C90   A    
O1    Zn1   S    
C23   O6    A    
C76   H62   S    
O8    Zn2   S    
C60   C65   A    
C36   H15   S    
C35   C78   S    
C69   C70   A    
C14   O10   S    
C63   H51   S    
C58   H45   S    
C16   C17   A    
C30   N5    S    
C74   C75   A    
C34   H8    S    
O3    Zn1   S    
C8    C12   S    
C9    C10   A    
C79   H64   S    
C84   C85   S    
C33   O8    A    
C13   N1    S    
C2    C34   S    
C45   C50   A    
N4    N5    D    
C53   H33   S    
C13   C14   A    
C1    O1    A    
C82   H67   S    
O9    C51   S    
C61   H49   S    
C31   H11   S    
C2    C39   S    
C1    O2    A    
C56   H39   S    
C84   H70   S    
C86   H73   S    
C85   C86   S    
C21   H7    S    
C43   C44   A    
C68   C69   A    
C71   H58   S    
C47   H24   S    
C29   N6    A    
C41   C42   A    
C86   H75   S    
C5    H16   S    
C59   H46   S    
C35   C38   S    
C1    C9    S    
C24   C25   A    
C64   H52   S    
C10   C11   A    
C55   C56   S    
C50   H27   S    
C48   C49   A    
C4    C5    S    
C59   H48   S    
C25   C26   A    
C78   C83   A    
C33   C37   S    
C62   H50   S    
C35   C36   S    
C68   H55   S    
C19   C23   S    
C42   C43   A    
C88   C89   A    
C39   C44   A    
C67   H54   S    
C18   N2    S    
C63   C64   A    
C45   C46   A    
C4    H1    S    
C2    O9    S    
C40   H18   S    
C51   H29   S    
C6    C37   T    
C11   H6    S    
C74   H60   S    
C46   C47   A    
O12   C84   S    
C32   H12   S    
C92   H80   S    
C69   H56   S    
C16   C18   A    
O2    Zn2   S    
C5    C38   S    
C53   H34   S    
C52   H31   S    
C73   H59   S    
C29   C60   S    
C22   C24   A    
C57   C58   S    
C46   H23   S    
C3    C4    S    
C20   H5    S    
C10   O11   S    
C58   H44   S    
C80   C81   A    
C42   H20   S    
C83   H68   S    
N1    N2    D    
C75   H61   S    
C82   C83   A    
C36   O12   S    
C34   C38   S    
C70   H57   S    
C5    H17   S    
C31   C32   A    
C24   C72   S    
C15   H4    S    
C39   C40   A    
C26   C66   S    
C27   N3    A    
C43   H21   S    
C22   N3    A    
C86   H74   S    
C67   C68   A    
C58   C59   S    
C60   C61   A    
C52   C53   S    
C12   O4    A    
C57   H42   S    
C73   C74   A    
C41   H19   S    
C78   C79   A    
C19   C20   A    
C55   H38   S    
C2    C3    S    
C65   H53   S    
C77   H63   S    
C85   H71   S    
O4    Zn2   S    
C88   H76   S    
C30   C32   A    
C11   C13   A    
C90   C91   A    
O5    Zn1   S    
C54   H36   S    
C44   H22   S    
C28   C30   A    
C17   C19   A    
C7    C38   S    
C90   H78   S    
O11   C57   S    
C81   H66   S    
O6    Zn2   S    
C87   C92   A    
C9    C15   A    
C64   C65   A    
C81   C82   A    
C66   C67   A    
C80   H65   S    
C20   C21   A    
O7    Zn1   S    
C48   H25   S    
C34   C45   S    
C55   H37   S    
C35   H14   S    
C70   C71   A    
C14   C15   A    
C75   C76   A    
C25   N4    S    
C4    C87   S    
C91   C92   A    
C49   H26   S    
C16   H3    S    
C89   H77   S    
C56   H41   S    
C87   C88   A    
C33   O7    A    
C22   H13   S    
C76   C77   A    
C54   C55   S    
