data_mof_unit_8982.cif
_audit_creation_date              2012-12-10T20:51:46-0500
_audit_creation_method            fapswitch 2.2
_symmetry_space_group_name_H-M    P1
_symmetry_Int_Tables_number       1
_space_group_crystal_system       triclinic
_cell_length_a                    8.09472
_cell_length_b                    8.938646
_cell_length_c                    16.695026
_cell_angle_alpha                 89.407564
_cell_angle_beta                  93.457508
_cell_angle_gamma                 90.035908
_cell_volume                      1205.71934397

loop_
_atom_site_label
_atom_site_type_symbol
_atom_type_description
_atom_site_fract_x
_atom_site_fract_y
_atom_site_fract_z
_atom_type_partial_charge
C1    C     C_R   0.499950 0.217929 0.500071 0.942861
C2    C     C_R   0.622378 0.462378 0.137435 0.122945
C3    C     C_R   0.536083 0.605443 0.901520 0.290386
C4    C     C_R   0.470168 0.480640 0.092319 0.300650
C5    C     C_R   0.681018 0.562749 0.866400 -0.233150
C6    C     C_R   0.321862 0.494964 0.130215 -0.238623
C7    C     C_R   0.677018 0.528766 0.785434 -0.220871
C8    C     C_R   0.323412 0.499830 0.213295 -0.220647
C9    C     C_1   0.499945 0.065164 0.500066 -0.197253
C10   C     C_1   0.500064 0.934830 0.500041 -0.196379
C11   C     C_3   0.785714 0.439632 0.098977 -0.428679
C12   C     C_R   0.500056 0.782070 0.499988 0.941410
C13   C     C_3   0.790720 0.289580 0.055452 -0.327168
C14   C     C_3   0.959755 0.263719 0.022173 -0.893524
C15   C     C_3   0.228369 0.676987 0.889474 -0.438372
C16   C     C_3   0.178566 0.832055 0.855958 -0.340023
C17   C     C_3   0.017195 0.884879 0.889002 -0.885016
C18   C     C_R   0.519636 0.503838 0.654106 0.871175
C19   C     C_R   0.480439 0.499034 0.345752 0.874591
C20   C     C_R   0.526919 0.536032 0.739463 -0.059626
C21   C     C_R   0.474062 0.489399 0.258678 -0.057171
C22   C     C_R   0.383180 0.585866 0.773927 -0.249547
C23   C     C_R   0.622011 0.467894 0.220658 -0.255431
C24   C     C_R   0.386395 0.623493 0.854685 0.125261
H1    H     H_    0.738174 0.455893 0.255921 0.164016
H2    H     H_    0.764946 0.196953 0.097883 0.225134
H3    H     H_    0.695242 0.287023 0.004876 0.240212
H4    H     H_    0.808613 0.533291 0.056975 0.210660
H5    H     H_    0.890170 0.441994 0.145436 0.192399
H6    H     H_    0.914492 0.808347 0.870091 0.268642
H7    H     H_    0.029357 0.888864 0.955574 0.259892
H8    H     H_    0.986701 0.998636 0.865216 0.252460
H9    H     H_    0.277960 0.913916 0.872621 0.229042
H10   H     H_    0.161856 0.829125 0.789431 0.225391
H11   H     H_    0.127997 0.594968 0.874688 0.195385
H12   H     H_    0.267532 0.595784 0.738032 0.166417
H13   H     H_    0.242115 0.684277 0.955856 0.222666
H14   H     H_    0.795195 0.548346 0.902889 0.145768
H15   H     H_    0.205852 0.507902 0.094989 0.147359
H16   H     H_    0.789791 0.493397 0.759389 0.165377
H17   H     H_    0.207866 0.514547 0.241777 0.163488
H18   H     H_    0.990023 0.355891 0.980372 0.255837
H19   H     H_    0.057139 0.256699 0.071854 0.267067
H20   H     H_    0.958094 0.156880 0.989016 0.255977
N1    N     N_1   0.073640 0.500030 0.499990 -0.038443
N2    N     N_1   0.926360 0.499970 0.500010 -0.038172
N3    N     N_2   0.537200 0.603519 0.985236 -0.212406
N4    N     N_2   0.464328 0.490042 0.008589 -0.210925
O1    O     O_R   0.636850 0.285340 0.500000 -0.613426
O2    O     O_R   0.363150 0.714660 0.500000 -0.615243
O3    O     O_R   0.363100 0.285350 0.500000 -0.612311
O4    O     O_R   0.636900 0.714650 0.500000 -0.612499
O5    O     O_R   0.652140 0.498630 0.616140 -0.619859
O6    O     O_R   0.347860 0.501370 0.383860 -0.620819
O7    O     O_R   0.378390 0.498650 0.616130 -0.624851
O8    O     O_R   0.621610 0.501350 0.383870 -0.624086
Zn1   Zn    Zn3+2 0.682780 0.499990 0.500010 0.981868
Zn2   Zn    Zn3+2 0.317220 0.500010 0.499990 0.980183

loop_
_geom_bond_atom_site_label_1
_geom_bond_atom_site_label_2
_ccdc_geom_bond_type
C19   O8    A    
O1    Zn1   S    
C2    C4    A    
C7    H16   S    
C16   H9    S    
C11   C13   S    
C9    C10   T    
C12   O4    A    
C12   O2    A    
N3    N4    D    
C14   H18   S    
C14   H19   S    
C21   C23   A    
C8    C21   A    
C1    C9    S    
O3    Zn2   S    
C13   C14   S    
C8    H17   S    
C17   H6    S    
C1    O3    A    
C3    C24   A    
C10   C12   S    
C11   H4    S    
C2    C11   S    
C18   O7    A    
C19   O6    A    
C3    N3    S    
C15   C24   S    
C19   C21   S    
C20   C22   A    
C5    H14   S    
C18   C20   S    
C23   H1    S    
N2    Zn1   S    
C4    N4    S    
C17   H7    S    
C22   C24   A    
C13   H2    S    
C4    C6    A    
O4    Zn1   S    
N1    Zn2   S    
O2    Zn2   S    
C22   H12   S    
O8    Zn1   S    
C11   H5    S    
C14   H20   S    
C7    C20   A    
O6    Zn2   S    
O7    Zn2   S    
C15   H11   S    
C2    C23   A    
C5    C7    A    
C17   H8    S    
O5    Zn1   S    
C6    H15   S    
C15   H13   S    
C6    C8    A    
C18   O5    A    
C16   H10   S    
N1    N2    T    
C1    O1    A    
C13   H3    S    
C15   C16   S    
C16   C17   S    
C3    C5    A    
