data_mof_unit_22300.cif
_audit_creation_date              2012-12-10T18:57:09-0500
_audit_creation_method            fapswitch 2.2
_symmetry_space_group_name_H-M    P1
_symmetry_Int_Tables_number       1
_space_group_crystal_system       triclinic
_cell_length_a                    10.639465
_cell_length_b                    9.86098
_cell_length_c                    10.782384
_cell_angle_alpha                 90.553341
_cell_angle_beta                  89.998244
_cell_angle_gamma                 89.300781
_cell_volume                      1131.10276482

loop_
_atom_site_label
_atom_site_type_symbol
_atom_type_description
_atom_site_fract_x
_atom_site_fract_y
_atom_site_fract_z
_atom_type_partial_charge
C1    C     C_R   0.260564 0.500430 0.494052 0.886035
C2    C     C_R   0.509603 0.618379 0.938754 -0.062303
C3    C     C_R   0.513342 0.496697 0.127689 -0.215898
C4    C     C_R   0.483312 0.501178 0.871130 -0.186140
C5    C     C_R   0.502009 0.373333 0.059282 0.103413
C6    C     C_R   0.456576 0.380846 0.936925 0.160318
C7    C     C_3   0.569589 0.755476 0.925443 0.280787
C8    C     C_3   0.563644 0.760137 0.073820 0.274742
C9    C     C_R   0.067432 0.429555 0.387475 0.156977
C10   C     C_R   0.935365 0.425292 0.390102 0.133054
C11   C     C_R   0.872403 0.497111 0.486697 -0.078604
C12   C     C_R   0.739771 0.498988 0.495912 0.868445
C13   C     C_R   0.128316 0.501111 0.484272 -0.069025
C14   C     C_R   0.935575 0.571506 0.576709 -0.233983
C15   C     C_R   0.063598 0.572636 0.576105 -0.245228
C16   C     C_3   0.557989 0.239397 0.104236 -0.381387
C17   C     C_3   0.656296 0.181459 0.013912 -0.952598
C18   C     C_3   0.382151 0.262667 0.881941 -0.372974
C19   C     C_3   0.253465 0.308260 0.833380 -0.856175
C20   C     C_3   0.701698 0.737055 0.863065 -0.404487
C21   C     C_3   0.781720 0.865061 0.860667 -0.929567
C22   C     C_3   0.467201 0.867176 0.129475 -0.389008
C23   C     C_R   0.603972 0.070815 0.536212 -0.099411
C24   C     C_3   0.333641 0.818745 0.157871 -0.880993
C25   C     C_3   0.488045 0.859517 0.848803 -0.331723
C26   C     C_3   0.344328 0.845649 0.847446 -0.864752
C27   C     C_3   0.689222 0.767561 0.150868 -0.366306
C28   C     C_3   0.790926 0.656957 0.134106 -0.926475
C29   C     C_3   0.142614 0.371221 0.277764 -0.440762
C30   C     C_3   0.175677 0.482965 0.187385 -0.899853
C31   C     C_3   0.862784 0.350443 0.289123 -0.415598
C32   C     C_3   0.862044 0.197726 0.312499 -0.863652
C33   C     C_R   0.395264 0.072792 0.465862 -0.075858
C34   C     C_R   0.604960 0.927272 0.533540 -0.132540
C35   C     C_R   0.394749 0.929285 0.467515 -0.088419
C36   C     C_R   0.509013 0.499050 0.260289 0.900288
C37   C     C_R   0.494242 0.500598 0.739556 0.905629
C38   C     C_R   0.509415 0.618862 0.063713 0.064356
H1    H     H_    0.885418 0.626236 0.649436 0.149803
H2    H     H_    0.196508 0.354289 0.909321 0.245638
H3    H     H_    0.262389 0.383035 0.757942 0.262024
H4    H     H_    0.202652 0.219026 0.796061 0.248338
H5    H     H_    0.435003 0.208198 0.807884 0.230956
H6    H     H_    0.363390 0.185382 0.953350 0.196606
H7    H     H_    0.731000 0.949456 0.814347 0.253207
H8    H     H_    0.810260 0.897916 0.954379 0.270913
H9    H     H_    0.868916 0.843456 0.807027 0.249541
H10   H     H_    0.755476 0.650598 0.900984 0.209583
H11   H     H_    0.689184 0.707400 0.764664 0.218216
H12   H     H_    0.112678 0.627381 0.648825 0.153133
H13   H     H_    0.295639 0.752231 0.083884 0.268338
H14   H     H_    0.332136 0.763638 0.246385 0.278257
H15   H     H_    0.269848 0.908088 0.168618 0.230999
H16   H     H_    0.503325 0.911461 0.217468 0.201836
H17   H     H_    0.459730 0.955353 0.068617 0.199999
H18   H     H_    0.313819 0.738658 0.849119 0.262507
H19   H     H_    0.300534 0.904148 0.924380 0.255517
H20   H     H_    0.306727 0.890888 0.760832 0.242987
H21   H     H_    0.512383 0.964631 0.875015 0.171818
H22   H     H_    0.516982 0.851981 0.750742 0.238394
H23   H     H_    0.688798 0.872673 0.561647 0.147457
H24   H     H_    0.837625 0.638375 0.224534 0.252260
H25   H     H_    0.753060 0.559426 0.100206 0.250936
H26   H     H_    0.865977 0.691480 0.070884 0.264029
H27   H     H_    0.732036 0.868298 0.139073 0.178813
H28   H     H_    0.664494 0.766424 0.250810 0.235561
H29   H     H_    0.088990 0.529473 0.148122 0.259950
H30   H     H_    0.230560 0.561998 0.235531 0.262789
H31   H     H_    0.233583 0.440288 0.110727 0.258337
H32   H     H_    0.229750 0.319241 0.308106 0.226489
H33   H     H_    0.092571 0.291349 0.225815 0.217747
H34   H     H_    0.309976 0.876402 0.442452 0.135726
H35   H     H_    0.958218 0.156455 0.327431 0.244855
H36   H     H_    0.805508 0.176115 0.395800 0.270719
H37   H     H_    0.820168 0.144003 0.232073 0.246138
H38   H     H_    0.764607 0.387718 0.282430 0.203174
H39   H     H_    0.902141 0.371419 0.196104 0.207570
H40   H     H_    0.686267 0.123895 0.568174 0.132810
H41   H     H_    0.311291 0.127295 0.438205 0.124233
H42   H     H_    0.617697 0.163985 0.920097 0.261415
H43   H     H_    0.691953 0.083187 0.049110 0.247528
H44   H     H_    0.736408 0.252196 0.006580 0.269298
H45   H     H_    0.610985 0.249557 0.191391 0.249723
H46   H     H_    0.481993 0.167033 0.122074 0.189624
N1    N     N_R   0.500000 0.857200 0.500000 -0.086061
N2    N     N_R   0.500000 0.142810 0.500000 -0.078215
O1    O     O_R   0.316770 0.614620 0.499990 -0.627309
O2    O     O_R   0.683230 0.614620 0.500010 -0.638375
O3    O     O_R   0.316800 0.385290 0.500000 -0.633875
O4    O     O_R   0.683200 0.385290 0.500000 -0.619885
O5    O     O_R   0.500000 0.614690 0.316780 -0.616053
O6    O     O_R   0.500000 0.614690 0.683220 -0.626922
O7    O     O_R   0.500020 0.385360 0.316780 -0.638351
O8    O     O_R   0.499980 0.385360 0.683220 -0.612790
Zn1   Zn    Zn3+2 0.500000 0.653120 0.500000 0.911411
Zn2   Zn    Zn3+2 0.500000 0.346880 0.500000 0.920311

loop_
_geom_bond_atom_site_label_1
_geom_bond_atom_site_label_2
_ccdc_geom_bond_type
C24   H14   S    
C1    O1    A    
N1    Zn1   S    
C2    C7    S    
C32   H37   S    
C7    C8    S    
C22   H16   S    
C20   H11   S    
C12   O4    A    
C18   C19   S    
C32   H36   S    
C5    C6    A    
C11   C14   A    
C16   H46   S    
C17   H44   S    
C15   H12   S    
C9    C13   A    
C5    C16   S    
C14   H1    S    
C10   C31   S    
C3    C38   A    
C16   C17   S    
C23   N2    A    
O1    Zn1   S    
C8    C22   S    
C25   H22   S    
C9    C10   A    
C30   H29   S    
C19   H4    S    
C9    C29   S    
C24   H13   S    
O2    Zn1   S    
C17   H42   S    
C8    C38   S    
C36   O7    A    
C31   H39   S    
C21   H7    S    
C6    C18   S    
C12   O2    A    
C4    C6    A    
C19   H2    S    
C32   H35   S    
C33   H41   S    
C24   H15   S    
C29   H32   S    
O6    Zn1   S    
C34   N1    A    
C2    C4    A    
C33   N2    A    
C29   C30   S    
C27   H27   S    
C18   H6    S    
C2    C38   A    
C31   C32   S    
C23   C34   A    
C4    C37   S    
O8    Zn2   S    
C26   H20   S    
C20   H10   S    
N2    Zn2   S    
C28   H26   S    
C36   O5    A    
C35   H34   S    
O7    Zn2   S    
C13   C15   A    
C22   C24   S    
C1    C13   S    
C30   H31   S    
C21   H8    S    
C1    O3    A    
C37   O6    A    
C3    C5    A    
C26   H18   S    
C11   C12   S    
O4    Zn2   S    
C22   H17   S    
C7    C25   S    
O3    Zn2   S    
C25   C26   S    
C27   H28   S    
C18   H5    S    
C35   N1    A    
C31   H38   S    
C3    C36   S    
C33   C35   A    
C37   O8    A    
C17   H43   S    
C16   H45   S    
C23   H40   S    
C26   H19   S    
C10   C11   A    
O5    Zn1   S    
C28   H25   S    
C20   C21   S    
C7    C20   S    
C34   H23   S    
C27   C28   S    
C8    C27   S    
C14   C15   A    
C25   H21   S    
C21   H9    S    
C30   H30   S    
C19   H3    S    
C29   H33   S    
C28   H24   S    
