data_mof_unit_45870.cif
_audit_creation_date              2012-12-11T15:44:50-0500
_audit_creation_method            fapswitch 2.2
_symmetry_space_group_name_H-M    P1
_symmetry_Int_Tables_number       1
_space_group_crystal_system       triclinic
_cell_length_a                    19.11703
_cell_length_b                    10.989333
_cell_length_c                    18.844276
_cell_angle_alpha                 89.296813
_cell_angle_beta                  89.99055
_cell_angle_gamma                 90.271496
_cell_volume                      3958.52704719

loop_
_atom_site_label
_atom_site_type_symbol
_atom_type_description
_atom_site_fract_x
_atom_site_fract_y
_atom_site_fract_z
_atom_type_partial_charge
C1    C     C_R   0.760681 0.536672 0.647210 0.601691
C2    C     C_R   0.237909 0.530786 0.354549 0.572311
C3    C     C_R   0.260449 0.035330 0.646868 0.584654
C4    C     C_R   0.737895 0.026681 0.356226 0.550077
C5    C     C_R   0.808576 0.023379 0.539888 -0.079284
C6    C     C_R   0.251972 0.235177 0.480798 -0.157060
C7    C     C_R   0.322515 0.617254 0.524017 -0.100215
C8    C     C_R   0.709107 0.730440 0.488345 -0.115700
C9    C     C_R   0.808156 0.020900 0.467002 0.200360
C10   C     C_R   0.264792 0.203912 0.552690 0.183755
C11   C     C_R   0.313223 0.607703 0.450742 0.196343
C12   C     C_R   0.723422 0.700069 0.559906 0.200010
C13   C     C_3   0.619126 0.094417 0.468821 -0.241865
C14   C     C_3   0.219724 0.880938 0.516892 -0.262053
C15   C     C_3   0.129430 0.502100 0.478762 -0.246819
C16   C     C_3   0.768002 0.383472 0.509236 -0.274670
C17   C     C_3   0.623072 0.104814 0.548850 -0.263897
C18   C     C_3   0.208625 0.913016 0.439488 -0.244097
C19   C     C_3   0.140250 0.511040 0.558388 -0.265946
C20   C     C_3   0.752106 0.414023 0.432223 -0.254847
C21   C     C_R   0.754735 0.079090 0.577689 0.031892
C22   C     C_R   0.220809 0.149123 0.435154 -0.023440
C23   C     C_R   0.264777 0.604214 0.570556 0.026713
C24   C     C_R   0.723956 0.646372 0.434455 -0.004434
C25   C     C_R   0.988532 0.324840 0.419424 -0.034450
C26   C     C_R   0.987321 0.348447 0.568219 -0.031051
C27   C     C_R   0.497064 0.822969 0.423403 0.024482
C28   C     C_R   0.492753 0.849681 0.571163 -0.025330
C29   C     C_R   0.016837 0.105793 0.435757 -0.020253
C30   C     C_R   0.034963 0.140511 0.580169 -0.084975
C31   C     C_R   0.540821 0.609522 0.443094 -0.034430
C32   C     C_R   0.548999 0.649935 0.587672 -0.048479
C33   C     C_R   0.035774 0.008444 0.479681 -0.075259
C34   C     C_R   0.045997 0.026279 0.551587 -0.114248
C35   C     C_R   0.565028 0.518154 0.488541 -0.126501
C36   C     C_R   0.570514 0.539219 0.560541 -0.112896
C37   C     C_R   0.008791 0.237631 0.537868 -0.002700
C38   C     C_R   0.004784 0.222919 0.463576 0.008444
C39   C     C_R   0.520426 0.741825 0.542977 -0.002297
C40   C     C_R   0.520345 0.725417 0.468790 0.023612
C41   C     C_R   0.966380 0.448307 0.522590 0.002302
C42   C     C_R   0.958614 0.428165 0.449272 -0.004831
C43   C     C_R   0.469614 0.946112 0.524409 -0.011381
C44   C     C_R   0.461976 0.922122 0.451952 0.008857
C45   C     C_R   0.772454 0.122576 0.647548 0.583830
C46   C     C_R   0.208288 0.171912 0.360622 0.553110
C47   C     C_R   0.274918 0.628060 0.644968 0.581931
C48   C     C_R   0.707961 0.672260 0.360884 0.547130
C49   C     C_R   0.956379 0.570423 0.545606 -0.099884
C50   C     C_R   0.928141 0.518274 0.405127 -0.090000
C51   C     C_R   0.455903 0.067932 0.545741 -0.076130
C52   C     C_R   0.425383 0.004711 0.407470 -0.075772
C53   C     C_R   0.930952 0.660780 0.500165 -0.122662
C54   C     C_R   0.915137 0.633876 0.430374 -0.089414
C55   C     C_R   0.426705 0.153196 0.499220 -0.121778
C56   C     C_R   0.408276 0.119794 0.431141 -0.122306
C57   C     C_R   0.743441 0.065929 0.072184 0.010433
C58   C     C_R   0.249557 0.070222 0.924828 0.029948
C59   C     C_R   0.243448 0.565958 0.072193 0.010263
C60   C     C_R   0.749548 0.570233 0.924822 0.031654
C61   C     C_R   0.805817 0.037314 0.039117 -0.008505
C62   C     C_R   0.222076 0.981352 0.970630 -0.034612
C63   C     C_R   0.305828 0.537362 0.039128 -0.009585
C64   C     C_R   0.722071 0.481360 0.970625 -0.036778
C65   C     C_R   0.812712 0.047688 0.967208 0.091825
C66   C     C_R   0.221272 0.994788 0.042806 -0.029436
C67   C     C_R   0.312724 0.547729 0.967217 0.092128
C68   C     C_R   0.721270 0.494796 0.042802 -0.030735
C69   C     C_R   0.691222 0.097635 0.954617 -0.133860
C70   C     C_R   0.280027 0.187612 0.029095 -0.128022
C71   C     C_R   0.191230 0.597648 0.954624 -0.135647
C72   C     C_R   0.780014 0.687629 0.029088 -0.127390
C73   C     C_R   0.684161 0.092531 0.028670 0.183874
C74   C     C_R   0.282017 0.172560 0.954907 0.180483
C75   C     C_R   0.184168 0.592547 0.028677 0.183775
C76   C     C_R   0.782001 0.672577 0.954899 0.182625
C77   C     C_3   0.877005 0.087587 0.052875 -0.283995
C78   C     C_3   0.152422 0.919559 0.970720 -0.232011
C79   C     C_3   0.377008 0.587667 0.052885 -0.281216
C80   C     C_3   0.652421 0.419557 0.970716 -0.231350
C81   C     C_3   0.884480 0.100320 0.973287 -0.234494
C82   C     C_3   0.153461 0.929210 0.050886 -0.229618
C83   C     C_3   0.384485 0.600391 0.973297 -0.235546
C84   C     C_3   0.653462 0.429208 0.050882 -0.229867
C85   C     C_R   0.757005 0.083439 0.923976 0.010940
C86   C     C_R   0.246237 0.100305 0.073425 -0.024501
C87   C     C_R   0.257014 0.583460 0.923983 0.009419
C88   C     C_R   0.746231 0.600316 0.073421 -0.024831
C89   C     C_R   0.967136 0.348859 0.644153 0.531572
C90   C     C_R   0.026717 0.343135 0.351609 0.510190
C91   C     C_R   0.468830 0.848925 0.645426 0.542968
C92   C     C_R   0.529133 0.842777 0.353077 0.531085
C93   C     C_R   0.011481 0.335741 0.072261 0.014802
C94   C     C_R   0.998531 0.345287 0.924359 0.009506
C95   C     C_R   0.511497 0.835742 0.072253 0.014356
C96   C     C_R   0.498549 0.845289 0.924350 0.011151
C97   C     C_R   0.988471 0.439664 0.038639 0.104630
C98   C     C_R   0.983313 0.445537 0.966574 0.059284
C99   C     C_R   0.488484 0.939661 0.038630 0.103772
C100  C     C_R   0.483330 0.945536 0.966565 0.058829
C101  C     C_R   0.028679 0.242611 0.956239 -0.169536
C102  C     C_R   0.035724 0.238553 0.030344 -0.156190
C103  C     C_R   0.528703 0.742617 0.956229 -0.167457
C104  C     C_R   0.535749 0.738560 0.030335 -0.157422
C105  C     C_3   0.923624 0.509810 0.051134 -0.277376
C106  C     C_3   0.917349 0.516832 0.971296 -0.239254
C107  C     C_3   0.423637 0.009806 0.051123 -0.276404
C108  C     C_3   0.417366 0.016832 0.971286 -0.240006
C109  C     C_R   0.759830 0.533069 0.851642 0.592827
C110  C     C_R   0.237894 0.529304 0.146355 0.568074
C111  C     C_R   0.259833 0.033060 0.851647 0.583736
C112  C     C_R   0.737891 0.029292 0.146350 0.560536
C113  C     C_R   0.772947 0.125702 0.852851 0.570524
C114  C     C_R   0.226468 0.131040 0.145461 0.558880
C115  C     C_R   0.272950 0.625709 0.852854 0.565831
C116  C     C_R   0.726467 0.631042 0.145460 0.555559
C117  C     C_R   0.970506 0.347113 0.853117 0.532264
C118  C     C_R   0.032026 0.346178 0.145476 0.555042
C119  C     C_R   0.470515 0.847112 0.853111 0.537535
C120  C     C_R   0.532029 0.846178 0.145473 0.563178
C121  C     C_R   0.749272 0.065312 0.428726 0.019337
C122  C     C_R   0.245804 0.086917 0.577421 0.044899
C123  C     C_R   0.246637 0.583481 0.423789 0.032322
C124  C     C_R   0.753547 0.586422 0.576108 0.043252
C125  C     C_R   0.695688 0.120723 0.467046 -0.047403
C126  C     C_R   0.208758 0.011336 0.532459 -0.017648
C127  C     C_R   0.189408 0.587442 0.469794 -0.039263
C128  C     C_R   0.777896 0.515513 0.520894 -0.013877
C129  C     C_R   0.699073 0.129342 0.540218 -0.016018
C130  C     C_R   0.197150 0.040406 0.463490 0.024412
C131  C     C_R   0.198313 0.597150 0.541975 -0.022730
C132  C     C_R   0.762786 0.543878 0.451484 0.030015
Cr1   Cr    Cr6+3 0.885860 0.491680 0.749630 1.064899
Cr2   Cr    Cr6+3 0.114140 0.491680 0.250370 1.062834
Cr3   Cr    Cr6+3 0.385860 0.991680 0.749630 1.087915
Cr4   Cr    Cr6+3 0.614140 0.991680 0.250370 1.057837
Cr5   Cr    Cr6+3 0.730490 0.332970 0.748720 1.024670
Cr6   Cr    Cr6+3 0.269510 0.332970 0.251280 1.037588
Cr7   Cr    Cr6+3 0.230490 0.832970 0.748720 1.010886
Cr8   Cr    Cr6+3 0.769510 0.832970 0.251280 1.045138
Cr9   Cr    Cr6+3 0.887570 0.179310 0.750150 1.044620
Cr10  Cr    Cr6+3 0.112430 0.179310 0.249850 1.006401
Cr11  Cr    Cr6+3 0.387570 0.679310 0.750150 1.062565
Cr12  Cr    Cr6+3 0.612430 0.679310 0.249850 1.016649
H1    H     H_    0.853826 0.985572 0.566764 0.186522
H2    H     H_    0.268182 0.323340 0.460446 0.154247
H3    H     H_    0.374544 0.634664 0.544399 0.168168
H4    H     H_    0.683374 0.815420 0.475414 0.115376
H5    H     H_    0.923821 0.752128 0.519545 0.169180
H6    H     H_    0.893962 0.702706 0.395165 0.195604
H7    H     H_    0.418746 0.245882 0.516000 0.177848
H8    H     H_    0.384182 0.185128 0.395533 0.155669
H9    H     H_    0.646783 0.121874 0.921766 0.156147
H10   H     H_    0.301084 0.270487 0.051263 0.168476
H11   H     H_    0.146789 0.621874 0.921773 0.154278
H12   H     H_    0.801067 0.770506 0.051256 0.168659
H13   H     H_    0.912640 0.018426 0.076447 0.161485
H14   H     H_    0.155327 0.825589 0.951394 0.175880
H15   H     H_    0.412653 0.518527 0.076464 0.163191
H16   H     H_    0.655332 0.325587 0.951390 0.175451
H17   H     H_    0.875843 0.176333 0.080629 0.127913
H18   H     H_    0.111149 0.975957 0.945193 0.137412
H19   H     H_    0.375832 0.676417 0.080635 0.132569
H20   H     H_    0.611145 0.475947 0.945189 0.138971
H21   H     H_    0.885948 0.196675 0.954998 0.134895
H22   H     H_    0.110006 0.984064 0.071837 0.157260
H23   H     H_    0.385943 0.696744 0.955003 0.133863
H24   H     H_    0.610004 0.484054 0.071835 0.157829
H25   H     H_    0.925017 0.039829 0.950671 0.175073
H26   H     H_    0.162159 0.842572 0.079747 0.202436
H27   H     H_    0.425030 0.539911 0.950686 0.175765
H28   H     H_    0.662165 0.342571 0.079742 0.201565
H29   H     H_    0.042643 0.164442 0.924961 0.123805
H30   H     H_    0.059317 0.159902 0.054781 0.139000
H31   H     H_    0.542672 0.664453 0.924950 0.126271
H32   H     H_    0.559348 0.659915 0.054772 0.138884
H33   H     H_    0.934296 0.599418 0.075721 0.190016
H34   H     H_    0.872204 0.464185 0.950814 0.132202
H35   H     H_    0.434307 0.099413 0.075712 0.190416
H36   H     H_    0.372222 0.964188 0.950801 0.131735
H37   H     H_    0.881771 0.454269 0.076943 0.115218
H38   H     H_    0.924437 0.610259 0.949331 0.211578
H39   H     H_    0.381782 0.954263 0.076929 0.117868
H40   H     H_    0.424457 0.110259 0.949322 0.212633
H41   H     H_    0.139694 0.409997 0.457524 0.131738
H42   H     H_    0.721588 0.351586 0.539305 0.158934
H43   H     H_    0.606850 0.000694 0.451428 0.157074
H44   H     H_    0.176438 0.826270 0.540247 0.155622
H45   H     H_    0.587895 0.167827 0.443196 0.150966
H46   H     H_    0.273868 0.851513 0.529463 0.141344
H47   H     H_    0.081056 0.546535 0.459577 0.175959
H48   H     H_    0.816988 0.330854 0.517042 0.148786
H49   H     H_    0.595116 0.185503 0.569457 0.128886
H50   H     H_    0.256739 0.903502 0.406822 0.165450
H51   H     H_    0.096951 0.556761 0.586510 0.136871
H52   H     H_    0.792819 0.381223 0.395054 0.146580
H53   H     H_    0.612309 0.017902 0.577666 0.189019
H54   H     H_    0.160767 0.870927 0.416853 0.146213
H55   H     H_    0.158509 0.424720 0.583414 0.180194
H56   H     H_    0.697357 0.392757 0.416728 0.151734
H57   H     H_    0.042834 0.918844 0.457655 0.130691
H58   H     H_    0.063212 0.951664 0.585210 0.119081
H59   H     H_    0.579396 0.430377 0.467712 0.105711
H60   H     H_    0.590890 0.469164 0.595576 0.136962
H61   H     H_    0.006636 0.084935 0.380880 0.179276
H62   H     H_    0.047530 0.151674 0.635638 0.135940
H63   H     H_    0.533744 0.582583 0.388845 0.197169
H64   H     H_    0.556261 0.663417 0.643934 0.167868
H65   H     H_    0.916574 0.500247 0.349941 0.129104
H66   H     H_    0.972893 0.603795 0.596284 0.152301
H67   H     H_    0.413384 0.982384 0.352949 0.142304
H68   H     H_    0.472723 0.104661 0.595608 0.166088
O1    O     O_R   0.957020 0.451640 0.669920 -0.536479
O2    O     O_R   0.042980 0.451640 0.330080 -0.520563
O3    O     O_R   0.457020 0.951640 0.669920 -0.528006
O4    O     O_R   0.542980 0.951640 0.330080 -0.531265
O5    O     O_R   0.736470 0.210100 0.823360 -0.518203
O6    O     O_R   0.263530 0.210100 0.176640 -0.505916
O7    O     O_R   0.236470 0.710100 0.823360 -0.519363
O8    O     O_R   0.763530 0.710100 0.176640 -0.506733
O9    O     O_R   0.831960 0.093290 0.830130 -0.472628
O10   O     O_R   0.168040 0.093290 0.169870 -0.516883
O11   O     O_R   0.331960 0.593290 0.830130 -0.469177
O12   O     O_R   0.668040 0.593290 0.169870 -0.517732
O13   O     O_R   0.945600 0.250580 0.824860 -0.515727
O14   O     O_R   0.054400 0.250580 0.175140 -0.521055
O15   O     O_R   0.445600 0.750580 0.824860 -0.515036
O16   O     O_R   0.554400 0.750580 0.175140 -0.514538
O17   O     O_3   0.834640 0.334650 0.749500 -0.276436
O18   O     O_3   0.165360 0.334650 0.250500 -0.287873
O19   O     O_3   0.334640 0.834650 0.749500 -0.284398
O20   O     O_3   0.665360 0.834650 0.250500 -0.291628
O21   O     O_R   0.821450 0.543440 0.674610 -0.482134
O22   O     O_R   0.178550 0.543440 0.325390 -0.514734
O23   O     O_R   0.321450 0.043440 0.674610 -0.455877
O24   O     O_R   0.678550 0.043440 0.325390 -0.519713
O25   O     O_R   0.715320 0.458650 0.668100 -0.532694
O26   O     O_R   0.284680 0.458650 0.331900 -0.470984
O27   O     O_R   0.215320 0.958650 0.668100 -0.536177
O28   O     O_R   0.784680 0.958650 0.331900 -0.449913
O29   O     O_R   0.737170 0.209590 0.674530 -0.504120
O30   O     O_R   0.262830 0.209590 0.325470 -0.513003
O31   O     O_R   0.237170 0.709590 0.674530 -0.515517
O32   O     O_R   0.762830 0.709590 0.325470 -0.489350
O33   O     O_R   0.832710 0.092740 0.669580 -0.510621
O34   O     O_R   0.167290 0.092740 0.330420 -0.511725
O35   O     O_R   0.332710 0.592740 0.669580 -0.466041
O36   O     O_R   0.667290 0.592740 0.330420 -0.529570
O37   O     O_R   0.946290 0.250060 0.676040 -0.504188
O38   O     O_R   0.053710 0.250060 0.323960 -0.533138
O39   O     O_R   0.446290 0.750060 0.676040 -0.514399
O40   O     O_R   0.553710 0.750060 0.323960 -0.520551
O41   O     O_R   0.956270 0.452200 0.830470 -0.508490
O42   O     O_R   0.043730 0.452200 0.169530 -0.454497
O43   O     O_R   0.456270 0.952200 0.830470 -0.505581
O44   O     O_R   0.543730 0.952200 0.169530 -0.452989
O45   O     O_R   0.820760 0.543950 0.823440 -0.459966
O46   O     O_R   0.179240 0.543950 0.176560 -0.440907
O47   O     O_R   0.320760 0.043950 0.823440 -0.457004
O48   O     O_R   0.679240 0.043950 0.176560 -0.441349
O49   O     O_R   0.714570 0.459210 0.828640 -0.526237
O50   O     O_R   0.285430 0.459210 0.171360 -0.517504
O51   O     O_R   0.214570 0.959210 0.828640 -0.530778
O52   O     O_R   0.785430 0.959210 0.171360 -0.524146
Cl1   Cl    Cl    0.601748 0.131339 0.062455 -0.655732
Cl2   Cl    Cl    0.323016 0.283518 0.901087 -0.616129
Cl3   Cl    Cl    0.101749 0.631333 0.062458 -0.656063
Cl4   Cl    Cl    0.822985 0.783538 0.901074 -0.618929
Cl5   Cl    Cl    0.881704 0.949845 0.429831 -0.703673
Cl6   Cl    Cl    0.305452 0.308967 0.608963 -0.627197
Cl7   Cl    Cl    0.384821 0.619926 0.393243 -0.663008
Cl8   Cl    Cl    0.698702 0.799561 0.627651 -0.662252

loop_
_geom_bond_atom_site_label_1
_geom_bond_atom_site_label_2
_ccdc_geom_bond_type
C58   C62   A    
C71   C75   A    
C55   C56   A    
C82   H26   S    
C19   H51   S    
C101  C102  A    
C13   H43   S    
Cr7   O51   S    
C18   H50   S    
C4    O24   A    
C41   C42   A    
C14   C18   S    
C96   C119  S    
C17   H49   S    
C35   C36   A    
Cr10  O10   S    
C48   O32   A    
C43   C51   A    
C47   O35   A    
C97   C98   A    
C75   Cl3   S    
C13   H45   S    
C54   H6    S    
C91   O39   A    
C53   C54   A    
C118  O14   A    
C26   C89   S    
C67   C83   S    
C90   O38   A    
C117  O13   A    
C25   C90   S    
C50   C54   A    
Cr11  O39   S    
C105  C106  S    
Cr10  O38   S    
C64   C68   A    
C115  O11   A    
C26   C41   A    
C20   C132  S    
C110  O46   A    
C79   H15   S    
C6    H2    S    
C94   C117  S    
C95   C99   A    
C80   H16   S    
C57   C112  S    
C94   C98   A    
Cr9   O17   S    
C11   Cl7   S    
C6    C22   A    
C29   C33   A    
Cr8   O28   S    
C59   C110  S    
C29   H61   S    
C31   C40   A    
C108  H36   S    
C3    O27   A    
C51   C55   A    
C32   C39   A    
C57   C73   A    
C24   C132  A    
C80   H20   S    
C91   O3    A    
C60   C109  S    
C118  O42   A    
C105  H37   S    
C3    O23   A    
C15   C19   S    
C101  H29   S    
C51   H68   S    
C78   H14   S    
C20   H56   S    
Cr6   O50   S    
C50   H65   S    
C1    O21   A    
Cr10  O34   S    
C83   H27   S    
C49   H66   S    
C70   C74   A    
C52   H67   S    
C9    C121  A    
C107  C108  S    
C14   C126  S    
Cr2   O22   S    
C17   H53   S    
C81   H25   S    
C116  O12   A    
C32   H64   S    
C16   H48   S    
C120  O16   A    
C87   C115  S    
C47   O31   A    
Cr6   O30   S    
C3    C122  S    
C8    C12   A    
C124  C128  A    
C97   C105  S    
C44   C52   A    
Cr1   O45   S    
Cr12  O40   S    
C72   H12   S    
Cr3   O19   S    
C22   C130  A    
C53   H5    S    
C64   C80   S    
C5    C9    A    
C115  O7    A    
C8    H4    S    
Cr8   O8    S    
C117  O41   A    
C114  O6    A    
C27   C92   S    
C27   C44   A    
C41   C49   A    
C72   C88   A    
C2    O22   A    
Cr10  O14   S    
C46   O34   A    
C21   C45   S    
C92   O40   A    
C77   H13   S    
C19   C131  S    
C62   C78   S    
Cr3   O3    S    
C100  C108  S    
C5    H1    S    
C30   C34   A    
Cr7   O27   S    
C80   C84   S    
C68   C84   S    
Cr6   O18   S    
C29   C38   A    
C23   C47   S    
C88   C116  S    
C94   C101  A    
Cr10  O18   S    
Cr5   O17   S    
C31   H63   S    
Cr6   O26   S    
C45   O33   A    
C39   C40   A    
C62   C66   A    
C2    O26   A    
C63   C79   S    
C28   C39   A    
C1    O25   A    
C2    C123  S    
C45   O29   A    
C83   H23   S    
C60   C76   A    
C7    H3    S    
Cr4   O44   S    
C58   C111  S    
C30   C37   A    
C107  H39   S    
C67   C87   A    
Cr8   O32   S    
C24   C48   S    
C122  C126  A    
C7    C11   A    
C43   C44   A    
C120  O44   A    
C63   C67   A    
C121  C125  A    
C37   C38   A    
C84   H24   S    
Cr11  O11   S    
C61   C65   A    
C25   C38   A    
C66   C82   S    
Cr9   O13   S    
C14   H44   S    
C78   C82   S    
C93   C97   A    
Cr9   O33   S    
C99   C100  A    
C12   C124  A    
C77   C81   S    
C27   C40   A    
C16   C20   S    
C71   H11   S    
C103  H31   S    
C33   C34   A    
C4    O28   A    
Cr2   O42   S    
C23   C131  A    
C72   C76   A    
Cr4   O20   S    
Cr4   O48   S    
C114  O10   A    
C69   C73   A    
C104  H32   S    
C21   C129  A    
C89   O37   A    
C112  O52   A    
C71   C87   A    
C105  H33   S    
C22   C46   S    
C42   C50   A    
Cr8   O20   S    
C61   C77   S    
Cr12  O36   S    
C125  C129  A    
Cr8   O52   S    
C68   C88   A    
Cr12  O12   S    
C31   C35   A    
C59   C63   A    
C79   H19   S    
C116  O8    A    
C93   C118  S    
C46   O30   A    
Cr1   O41   S    
C70   C86   A    
C59   C75   A    
C123  C127  A    
C90   O2    A    
Cr9   O37   S    
C69   C85   A    
C58   C74   A    
C78   H18   S    
C69   H9    S    
C82   H22   S    
C55   H7    S    
C76   Cl4   S    
C9    Cl5   S    
C128  C132  A    
C81   H21   S    
C107  H35   S    
C86   C114  S    
Cr1   O21   S    
C93   C102  A    
C19   H55   S    
Cr12  O20   S    
C11   C123  A    
C12   Cl8   S    
Cr2   O18   S    
Cr11  O15   S    
C84   H28   S    
Cr2   O2    S    
C25   C42   A    
C66   C86   A    
Cr7   O19   S    
C32   C36   A    
C26   C37   A    
C57   C61   A    
C108  H40   S    
C20   H52   S    
C95   C120  S    
C102  H30   S    
C70   H10   S    
C99   C107  S    
C15   H47   S    
C96   C100  A    
C28   C43   A    
Cr3   O47   S    
C98   C106  S    
C109  O45   A    
C13   C17   S    
C60   C64   A    
Cr1   O1    S    
C127  C131  A    
C85   C113  S    
C1    C124  S    
Cr5   O29   S    
C113  O5    A    
C65   C85   A    
C16   H42   S    
C112  O48   A    
C95   C104  A    
C79   C83   S    
C74   Cl2   S    
C35   H59   S    
C52   C56   A    
C34   H58   S    
C7    C23   A    
Cr4   O24   S    
C33   H57   S    
Cr2   O46   S    
C8    C24   A    
C77   H17   S    
C73   Cl1   S    
C4    C121  S    
C92   O4    A    
C28   C91   S    
Cr3   O23   S    
C16   C128  S    
Cr5   O25   S    
Cr11  O19   S    
Cr1   O17   S    
C110  O50   A    
C49   C53   A    
C18   C130  S    
C6    C10   A    
C113  O9    A    
C14   H46   S    
Cr7   O7    S    
C10   C122  A    
C111  O47   A    
Cr11  O35   S    
C5    C21   A    
Cr7   O31   S    
Cr6   O6    S    
C48   O36   A    
C15   H41   S    
C10   Cl6   S    
C96   C103  A    
Cr5   O5    S    
C103  C104  A    
Cr5   O49   S    
C126  C130  A    
C65   C81   S    
Cr12  O16   S    
C15   C127  S    
C89   O1    A    
C36   H60   S    
Cr3   O43   S    
C56   H8    S    
C111  O51   A    
C109  O49   A    
C13   C125  S    
C106  H34   S    
C17   C129  S    
C18   H54   S    
C106  H38   S    
C119  O15   A    
Cr9   O9    S    
Cr4   O4    S    
C119  O43   A    
C30   H62   S    
