data_mof_unit_18651.cif
_audit_creation_date              2012-12-11T17:07:36-0500
_audit_creation_method            fapswitch 2.2
_symmetry_space_group_name_H-M    P1
_symmetry_Int_Tables_number       1
_space_group_crystal_system       triclinic
_cell_length_a                    6.965281
_cell_length_b                    14.531484
_cell_length_c                    16.047289
_cell_angle_alpha                 90.048505
_cell_angle_beta                  89.969439
_cell_angle_gamma                 90.309651
_cell_volume                      1624.21577839

loop_
_atom_site_label
_atom_site_type_symbol
_atom_type_description
_atom_site_fract_x
_atom_site_fract_y
_atom_site_fract_z
_atom_type_partial_charge
O1    O     O_R   0.505720 0.583900 0.413310 -0.525222
O2    O     O_R   0.175940 0.594920 0.586080 -0.546751
O3    O     O_R   0.005640 0.416100 0.586690 -0.544150
C1    C     C_R   0.345276 0.617021 0.614673 0.712441
O4    O     O_R   0.176000 0.594930 0.413930 -0.494371
O5    O     O_R   0.005700 0.416110 0.413310 -0.539582
C2    C     C_R   0.345484 0.617761 0.385946 0.759311
O6    O     O_R   0.505660 0.583890 0.586690 -0.537968
O7    O     O_3   0.339200 0.441330 0.500000 -0.386903
V1    V     V_3+5 0.064350 0.510880 0.500000 1.506637
O8    O     O_R   0.675980 0.405080 0.413920 -0.547866
C3    C     C_R   0.844824 0.382716 0.385472 0.700404
O9    O     O_R   0.675920 0.405070 0.586070 -0.544315
C4    C     C_R   0.844469 0.383526 0.614901 0.670246
V2    V     V_3+5 0.564340 0.489120 0.500000 1.451564
O10   O     O_3   0.839360 0.558670 0.500000 -0.339262
H1    H     H_    0.567089 0.087932 0.525910 0.102605
C5    C     C_R   0.007886 0.431421 0.775514 -0.220124
C6    C     C_R   0.086288 0.457357 0.851838 -0.230848
C7    C     C_R   0.092611 0.394629 0.918401 0.523596
C8    C     C_R   0.026967 0.304759 0.905252 -0.199044
C9    C     C_R   0.949262 0.276136 0.827796 -0.002216
C10   C     C_R   0.937945 0.341091 0.761711 0.078546
C11   C     C_R   0.877647 0.185268 0.816497 -0.167387
C12   C     C_R   0.788914 0.160569 0.739791 0.057024
C13   C     C_R   0.780027 0.225275 0.673294 0.067812
C14   C     C_R   0.854359 0.315609 0.684177 -0.163598
C15   C     C_R   0.712437 0.071054 0.726795 -0.135493
C16   C     C_R   0.632339 0.045800 0.650626 -0.144833
C17   C     C_R   0.626938 0.108355 0.585415 -0.138686
C18   C     C_R   0.700615 0.196858 0.596076 -0.137443
H2    H     H_    0.002314 0.483727 0.727800 0.131264
H3    H     H_    0.141964 0.526641 0.858205 0.120228
H4    H     H_    0.034211 0.258371 0.957778 0.128215
H5    H     H_    0.718760 0.018204 0.773978 0.142242
H6    H     H_    0.578199 0.976549 0.641681 0.109055
C19   C     C_R   0.727219 0.248089 0.188672 0.120787
C20   C     C_R   0.882625 0.187863 0.181094 -0.103750
C21   C     C_R   0.034228 0.198217 0.238431 -0.172372
C22   C     C_R   0.022165 0.261904 0.304491 -0.180419
C23   C     C_R   0.857485 0.316512 0.315480 -0.117460
C24   C     C_R   0.714830 0.310648 0.254277 0.086322
C25   C     C_3   0.504458 0.295222 0.263676 -0.420551
C26   C     C_3   0.517750 0.227345 0.191834 -0.387912
H7    H     H_    0.468439 0.262105 0.324132 0.166047
H8    H     H_    0.441724 0.250772 0.134832 0.194121
H9    H     H_    0.488471 0.154942 0.210446 0.157196
C27   C     C_R   0.520434 0.695762 0.731256 0.118653
C28   C     C_R   0.358942 0.688979 0.679735 -0.172936
C29   C     C_R   0.218622 0.757888 0.687717 -0.299399
H10   H     H_    0.098030 0.758871 0.645146 0.152007
C30   C     C_R   0.233201 0.826600 0.750764 0.462307
C31   C     C_R   0.381416 0.821387 0.811231 -0.216539
C32   C     C_R   0.530283 0.759403 0.795599 0.069846
C33   C     C_3   0.629909 0.693772 0.852189 -0.399712
C34   C     C_3   0.619496 0.623894 0.781590 -0.401376
H11   H     H_    0.525398 0.563785 0.795638 0.169618
C35   C     C_R   0.507136 0.684610 0.260066 -0.147049
C36   C     C_R   0.355755 0.685979 0.317352 -0.187224
C37   C     C_R   0.221604 0.757783 0.310640 0.536565
C38   C     C_R   0.225033 0.817642 0.241263 -0.286060
C39   C     C_R   0.376063 0.814461 0.182720 -0.124288
C40   C     C_R   0.517857 0.747574 0.193811 -0.050669
C41   C     C_3   0.728635 0.764416 0.204356 -0.469031
C42   C     C_3   0.716929 0.699989 0.279921 0.971742
H12   H     H_    0.764701 0.837622 0.215973 0.141980
H13   H     H_    0.811241 0.735661 0.151199 0.156421
O11   O     O_R   0.229140 0.916090 0.913340 -0.510708
O12   O     O_R   0.558860 0.905090 0.086080 -0.541752
O13   O     O_R   0.729100 0.083920 0.086690 -0.541184
C43   C     C_R   0.389541 0.883435 0.115050 0.710561
O14   O     O_R   0.558860 0.905090 0.913930 -0.543731
O15   O     O_R   0.729100 0.083920 0.913310 -0.539214
C44   C     C_R   0.390082 0.884564 0.883970 0.745755
O16   O     O_R   0.229140 0.916080 0.086720 -0.546078
O17   O     O_3   0.395570 0.058660 0.000020 -0.372491
V3    V     V_3+5 0.670450 0.989140 0.000000 1.420861
O18   O     O_R   0.058810 0.094980 0.913910 -0.531661
C45   C     C_R   0.889866 0.116770 0.885273 0.719352
O19   O     O_R   0.058810 0.094980 0.086060 -0.546602
C46   C     C_R   0.890270 0.117149 0.114680 0.675014
V4    V     V_3+5 0.170450 0.010950 0.999970 1.446411
O20   O     O_3   0.895460 0.941370 0.999990 -0.367049
H14   H     H_    0.137193 0.265027 0.349632 0.125405
H15   H     H_    0.420177 0.357699 0.248312 0.176700
O21   O     O_3   0.102324 0.897930 0.754830 -0.546852
C47   C     C_3   0.099319 0.946278 0.678352 -0.269634
H16   H     H_    0.236221 0.942597 0.642479 0.111673
H17   H     H_    0.075943 0.020164 0.691560 0.175327
H18   H     H_    0.979128 0.920582 0.639146 0.145375
H19   H     H_    0.541196 0.674441 0.907171 0.156881
H20   H     H_    0.779046 0.716283 0.866626 0.184323
H21   H     H_    0.762580 0.606656 0.755446 0.169655
O22   O     O_3   0.096991 0.774630 0.375416 -0.514439
C48   C     C_3   0.187685 0.833135 0.433682 -0.269727
H22   H     H_    0.313455 0.799091 0.462902 0.117527
H23   H     H_    0.084041 0.848701 0.484208 0.159389
H24   H     H_    0.230949 0.899750 0.404840 0.107842
H25   H     H_    0.118862 0.871642 0.237452 0.128370
O23   O     O_3   0.740102 0.738427 0.361533 -0.507256
C49   C     C_3   0.691266 0.832477 0.370859 -0.248767
H26   H     H_    0.556515 0.851343 0.339068 0.099403
H27   H     H_    0.809884 0.877717 0.349174 0.159895
H28   H     H_    0.670793 0.846708 0.438180 0.146746
O24   O     O_3   0.842068 0.622854 0.271567 -0.540074
C50   C     C_3   0.771548 0.551482 0.219808 -0.304867
H29   H     H_    0.732545 0.576933 0.156822 0.128852
H30   H     H_    0.647496 0.516086 0.249573 0.144422
H31   H     H_    0.886620 0.499797 0.211653 0.163861
O25   O     O_3   0.173102 0.415149 0.995640 -0.556374
C51   C     C_3   0.127535 0.505010 0.022451 -0.270238
H32   H     H_    0.974335 0.522487 0.010689 0.131724
H33   H     H_    0.225245 0.556280 0.993159 0.137310
H34   H     H_    0.150819 0.509060 0.090748 0.168914
H35   H     H_    0.696526 0.241905 0.542560 0.104589
H36   H     H_    0.156947 0.153243 0.235124 0.124570

loop_
_geom_bond_atom_site_label_1
_geom_bond_atom_site_label_2
_ccdc_geom_bond_type
C47   H16   S    
C49   H26   S    
C23   C24   A    
C22   H14   S    
O12   V3    S    
C48   H22   S    
C1    O6    A    
C48   H24   S    
C31   C32   A    
C12   C15   A    
C27   C32   A    
C16   H6    S    
C13   C14   A    
C16   C17   A    
C15   C16   A    
C19   C20   A    
O5    C3    A    
C17   C18   A    
C50   H29   S    
V3    O20   S    
O11   C44   A    
V2    O10   S    
C34   H11   S    
C5    C6    A    
C18   H35   S    
C19   C24   A    
O12   C43   A    
O13   C46   A    
O25   C51   S    
C33   H19   S    
C35   C42   S    
O14   V3    S    
O8    V2    S    
C39   C40   A    
C6    C7    A    
C15   H5    S    
C29   C30   A    
O1    V2    S    
C10   C14   A    
C4    C14   S    
O7    V1    S    
C38   C39   A    
C26   H9    S    
C36   C37   A    
C49   H27   S    
O9    C4    A    
O13   V3    S    
H1    C17   S    
C38   H25   S    
C2    C36   S    
C42   O24   S    
C26   H8    S    
C34   H21   S    
C5    C10   A    
C25   H15   S    
C41   H13   S    
C11   C12   A    
O14   C44   A    
C6    H3    S    
O17   V4    S    
C21   C22   A    
O4    C2    A    
O21   C47   S    
C8    H4    S    
C12   C13   A    
C37   C38   A    
C41   H12   S    
O2    C1    A    
C25   C26   S    
C33   H20   S    
O18   V4    S    
C11   C45   S    
C33   C34   S    
C29   H10   S    
O15   C45   A    
C51   H33   S    
O17   V3    S    
C25   H7    S    
O3    C4    A    
C7    O25   S    
O19   V4    S    
C27   C28   A    
C21   H36   S    
C49   H28   S    
O9    V2    S    
C20   C46   S    
C28   C29   A    
C9    C11   A    
C5    H2    S    
C24   C25   S    
O2    V1    S    
C30   C31   A    
C3    C23   S    
C35   C40   A    
C27   C34   S    
C32   C33   S    
C22   C23   A    
C51   H32   S    
O1    C2    A    
C42   O23   S    
O19   C46   A    
O5    V1    S    
O8    C3    A    
C48   H23   S    
O16   V4    S    
O6    V2    S    
O24   C50   S    
C1    C28   S    
O11   V4    S    
C41   C42   S    
C19   C26   S    
C47   H17   S    
C35   C36   A    
O4    V1    S    
O3    V1    S    
V1    O10   S    
C43   O16   A    
O18   C45   A    
C20   C21   A    
C50   H30   S    
C30   O21   S    
O23   C49   S    
C39   C43   S    
C51   H34   S    
O7    V2    S    
O22   C48   S    
C40   C41   S    
C13   C18   A    
C7    C8    A    
V4    O20   S    
C47   H18   S    
O15   V3    S    
C9    C10   A    
C8    C9    A    
C50   H31   S    
C31   C44   S    
C37   O22   S    
