data_mof_unit_67188.cif
_audit_creation_date              2013-03-05T15:59:19-0500
_audit_creation_method            fapswitch 2.2
_symmetry_space_group_name_H-M    P1
_symmetry_Int_Tables_number       1
_space_group_crystal_system       triclinic
_cell_length_a                    8.186178
_cell_length_b                    12.917331
_cell_length_c                    16.652188
_cell_angle_alpha                 110.380882
_cell_angle_beta                  97.648911
_cell_angle_gamma                 81.653874
_cell_volume                      1626.66537985

loop_
_atom_site_label
_atom_site_type_symbol
_atom_site_description
_atom_site_fract_x
_atom_site_fract_y
_atom_site_fract_z
_atom_type_partial_charge
P1    P     P_3+3 0.593410 0.640600 0.698510 0.473230
O1    O     O_2   0.429050 0.611890 0.712090 -0.351096
O2    O     O_3   0.649820 0.584130 0.603850 -0.426788
O3    O     O_3   0.201480 0.401240 0.659120 -0.351624
O4    O     O_2   0.340341 0.528245 0.806530 -0.417800
O5    O     O_3   0.552986 0.784273 0.721188 -0.554219
O6    O     O_3   0.319935 0.331338 0.804241 -0.494629
C1    C     C_3   0.289424 0.180298 0.850047 -1.033462
H1    H     H_    0.206535 0.117238 0.845658 0.232988
H2    H     H_    0.409926 0.137572 0.825913 0.277791
P2    P     P_3+3 0.154920 0.233850 0.431950 0.448995
P3    P     P_3+3 0.651885 0.200202 0.613253 0.437825
O7    O     O_2   0.337150 0.224350 0.458110 -0.380238
O8    O     O_3   0.611620 0.334620 0.615460 -0.378931
O9    O     O_2   0.505497 0.137226 0.559698 -0.388984
O10   O     O_3   0.146100 0.171340 0.319931 -0.582724
O11   O     O_3   0.640871 0.201055 0.717751 -0.535516
C2    C     C_3   0.720325 0.290879 0.775820 0.532166
H3    H     H_    0.639143 0.369788 0.782776 0.148060
H4    H     H_    0.840414 0.296505 0.754236 -0.019794
C3    C     C_3   0.754088 0.275627 0.863299 -1.054200
H5    H     H_    0.816152 0.346500 0.909749 0.229689
H6    H     H_    0.636042 0.271971 0.887712 0.294751
C4    C     C_3   0.696114 0.188678 0.344947 0.424756
H7    H     H_    0.803351 0.235051 0.378402 0.086427
H8    H     H_    0.598380 0.207205 0.389659 0.113193
C5    C     C_3   0.753379 0.065694 0.313790 -0.738083
H9    H     H_    0.881124 0.053735 0.294269 0.242495
H10   H     H_    0.670784 0.020670 0.257321 0.247528
Ba1   Ba    Ba6+2 0.363950 0.459210 0.542370 1.538896
C6    C     C_3   0.492634 0.807161 0.645738 0.464658
H11   H     H_    0.385604 0.760460 0.613465 0.110664
H12   H     H_    0.590740 0.784608 0.601069 0.113632
C7    C     C_3   0.438538 0.931133 0.668845 -1.047072
H13   H     H_    0.335006 0.955298 0.710508 0.304217
H14   H     H_    0.398541 0.952711 0.609999 0.239574
H15   H     H_    0.541915 0.980157 0.703916 0.249628
C8    C     C_3   0.175434 0.247071 0.282037 0.452648
H16   H     H_    0.296984 0.278441 0.308140 0.089588
H17   H     H_    0.075474 0.317189 0.293325 0.124120
C9    C     C_3   0.177762 0.187395 0.185478 -1.024101
H18   H     H_    0.281340 0.119585 0.172408 0.268230
H19   H     H_    0.194573 0.246017 0.152708 0.228808
H20   H     H_    0.058799 0.151435 0.158631 0.269809
P4    P     P_3+3 0.596300 0.359310 0.301480 0.451058
O12   O     O_2   0.760640 0.388070 0.287860 -0.358958
O13   O     O_3   0.539890 0.415780 0.396140 -0.416876
O14   O     O_3   0.988230 0.598670 0.340870 -0.372220
O15   O     O_3   0.631609 0.216159 0.272785 -0.588649
P5    P     P_3+3 0.534580 0.803192 0.387623 0.419019
O16   O     O_3   0.122980 0.641570 0.544110 -0.402013
O17   O     O_3   0.578090 0.665290 0.384530 -0.374984
O18   O     O_2   0.673128 0.865652 0.448867 -0.407752
O19   O     O_3   0.563887 0.809219 0.287381 -0.557951
Ba2   Ba    Ba6+2 0.825880 0.540700 0.457630 1.527552
P6    P     P_3+3 0.216248 0.440566 0.771544 0.444769
C10   C     C_3   0.209438 0.254902 0.798358 0.545074
H21   H     H_    0.093255 0.297726 0.827604 0.047860
H22   H     H_    0.311436 0.231250 0.918638 0.258550
O20   O     O_3   0.066730 0.358340 0.455880 -0.408667
C11   C     C_3   0.044463 0.820338 0.742047 0.853950
C12   C     C_3   0.899567 0.899255 0.789372 0.002944
H23   H     H_    0.796559 0.901825 0.739512 0.089741
H24   H     H_    0.939328 0.984193 0.819977 0.079970
P7    P     P_3+3 0.043624 0.782110 0.567117 0.409680
O21   O     O_2   0.852540 0.775600 0.541830 -0.379656
O22   O     O_3   0.071503 0.861511 0.677080 -0.643811
H25   H     H_    0.836048 0.197510 0.858050 0.241895
C13   C     C_3   0.516981 0.711378 0.223247 0.453217
H26   H     H_    0.620279 0.644803 0.215342 0.167080
H27   H     H_    0.409795 0.680522 0.238508 0.009316
C14   C     C_3   0.466978 0.733712 0.138882 -0.711596
H28   H     H_    0.398082 0.665213 0.093902 0.192985
H29   H     H_    0.384789 0.812825 0.152633 0.246477
P8    P     P_3+3 0.975586 0.558041 0.229285 0.428940
C15   C     C_3   0.029521 0.756905 0.255185 0.500630
H30   H     H_    0.155697 0.718697 0.268167 0.030768
O23   O     O_2   0.830469 0.486179 0.190284 -0.419561
O24   O     O_3   0.921056 0.679304 0.204341 -0.546385
H31   H     H_    0.981156 0.802269 0.318189 0.094698
H32   H     H_    0.099912 0.786484 0.147316 0.283632
C16   C     C_3   0.047068 0.835841 0.208628 -1.109239
H33   H     H_    0.130817 0.898853 0.247973 0.254461
H34   H     H_    0.924851 0.877770 0.194064 0.272068
C17   C     C_2   0.286554 0.458943 0.244970 -0.522421
C18   C     C_R   0.888825 0.527673 0.751943 -0.493079
C19   C     C_2   0.490679 0.378394 0.139971 -0.274746
C20   C     C_2   0.452254 0.404866 0.221445 0.333672
C21   C     C_2   0.173595 0.488507 0.188454 0.217086
C22   C     C_3   0.227253 0.491397 0.105160 -0.042726
C23   C     C_3   0.365213 0.398232 0.070009 0.005847
C24   C     C_2   0.088650 0.500309 0.036329 -0.137385
C25   C     C_2   0.118585 0.523332 0.966824 -0.193255
C26   C     C_R   0.833900 0.602281 0.925311 0.012428
C27   C     C_R   0.986285 0.541203 0.900338 -0.022964
C28   C     C_R   0.713827 0.629596 0.865220 -0.237299
C29   C     C_R   0.741978 0.594289 0.777953 0.340839
C30   C     C_R   0.014299 0.505902 0.812327 0.142972
H35   H     H_    0.610703 0.335058 0.121681 0.177059
H36   H     H_    0.600727 0.679984 0.887383 0.136120
H37   H     H_    0.254915 0.470709 0.309014 0.167025
H38   H     H_    0.910279 0.499153 0.684602 0.176729
H39   H     H_    0.963000 0.489731 0.043694 0.166384
H40   H     H_    0.245900 0.528893 0.958443 0.177069
C31   C     C_R   0.247031 0.811482 0.460504 -0.526835
C32   C     C_R   0.931455 0.197932 0.530761 -0.459908
C33   C     C_R   0.914613 0.033306 0.565802 -0.028320
C34   C     C_R   0.850318 0.139368 0.566880 0.164873
C35   C     C_R   0.070655 0.148569 0.485447 0.308567
C36   C     C_R   0.131121 0.035008 0.476863 -0.074395
C37   C     C_R   0.051648 0.976143 0.517514 -0.065568
C38   C     C_R   0.112244 0.862524 0.507472 0.319645
C39   C     C_R   0.332279 0.870029 0.427227 0.220126
C40   C     C_R   0.271749 0.979424 0.431928 -0.211510
H41   H     H_    0.337854 0.020494 0.402010 0.177426
H42   H     H_    0.294848 0.727102 0.455874 0.170436
H43   H     H_    0.881257 0.281706 0.534985 0.165084
N1    N     N_3   0.172245 0.188565 0.708301 -0.207852
H44   H     H_    0.109688 0.122781 0.706321 0.065856
H45   H     H_    0.283662 0.154146 0.680640 0.196989
N2    N     N_3   0.752212 0.021402 0.382207 -0.195176
H46   H     H_    0.795965 0.938013 0.358255 0.211185
H47   H     H_    0.628887 0.025695 0.394135 0.197340
N3    N     N_3   0.003411 0.705271 0.709695 -0.234252
H48   H     H_    0.904008 0.694496 0.662576 0.118386
H49   H     H_    0.107060 0.650473 0.687125 0.167372
O25   O     O_3   0.195183 0.830016 0.796278 -0.659034
C41   C     C_3   0.198622 0.790063 0.865289 0.236847
H50   H     H_    0.315304 0.735202 0.866236 0.144645
H51   H     H_    0.096952 0.738916 0.860018 0.129307
C42   C     C_3   0.202536 0.887140 0.949715 -0.271631
H52   H     H_    0.328635 0.914847 0.965655 0.181879
H53   H     H_    0.114136 0.958590 0.944570 0.220257
C43   C     C_3   0.158886 0.851425 0.020989 -1.048110
H54   H     H_    0.029505 0.829895 0.009000 0.290221
H55   H     H_    0.174457 0.919202 0.083650 0.287639
H56   H     H_    0.239953 0.775543 0.021703 0.274504
O26   O     O_3   0.845704 0.862648 0.851310 -0.668832
C44   C     C_3   0.709387 0.934826 0.890996 0.319679
H57   H     H_    0.625565 0.882962 0.903594 0.128776
H58   H     H_    0.633648 0.979136 0.849712 0.109345
C45   C     C_3   0.767223 0.019480 0.976909 -0.397000
H59   H     H_    0.842275 0.975822 0.018097 0.232596
H60   H     H_    0.844531 0.076117 0.965566 0.202618
C46   C     C_3   0.621280 0.088169 0.025640 -0.971289
H61   H     H_    0.547905 0.139273 0.989230 0.270833
H62   H     H_    0.668962 0.143608 0.089243 0.291141
H63   H     H_    0.540489 0.033503 0.036839 0.262619
N4    N     N_3   0.609025 0.742676 0.098219 -0.183309
H64   H     H_    0.685787 0.667726 0.084712 0.191005
H65   H     H_    0.675315 0.805801 0.141139 0.199739
N5    N     N_3   0.844193 0.988575 0.618963 -0.152465
H66   H     H_    0.718207 0.982401 0.600526 0.187471
H67   H     H_    0.859744 0.040594 0.682850 0.108604

loop_
_geom_bond_atom_site_label_1
_geom_bond_atom_site_label_2
_geom_bond_distance
_ccdc_geom_bond_type
O14   Ba2   2.845744 S    
Ba1   O16   2.838955 S    
C19   C23   1.513561 S    
C5    H10   1.115173 S    
C2    C3    1.521232 S    
P2    O7    1.497095 D    
C9    H18   1.110982 S    
C31   H42   1.082974 S    
C37   C38   1.437993 A    
O14   P8    1.739011 S    
C15   O24   1.406109 S    
P6    C30   1.844220 S    
C19   C20   1.347520 D    
C42   C43   1.513703 S    
C41   H50   1.105470 S    
C46   H63   1.109474 S    
C43   H56   1.103861 S    
C46   H61   1.109456 S    
C5    N2    1.443580 S    
C27   C30   1.414945 A    
P4    O12   1.511402 D    
P5    O19   1.747160 S    
C11   N3    1.466809 S    
C31   C39   1.383491 A    
C4    H8    1.109331 S    
C7    H13   1.107231 S    
N3    H49   1.042819 S    
N4    H65   1.043778 S    
C1    H22   1.107365 S    
C8    H16   1.105656 S    
C44   C45   1.531984 S    
P2    C35   1.884327 S    
C7    H15   1.106635 S    
C2    H4    1.110808 S    
P1    O1    1.511044 D    
O16   P7    1.761797 S    
C13   H27   1.106711 S    
C18   C29   1.397087 A    
N1    H44   1.042938 S    
C24   C25   1.350741 D    
C12   H24   1.113330 S    
O4    P6    1.539792 D    
C24   H39   1.085246 S    
C36   C37   1.441875 A    
O2    Ba2   2.840536 S    
P2    Ba1   3.415187 S    
C1    H1    1.111342 S    
P7    O22   1.762291 S    
Ba1   O20   2.893510 S    
O12   Ba2   2.861128 S    
P5    O17   1.749121 S    
C33   C34   1.389391 A    
C6    H12   1.106033 S    
C36   C40   1.419803 A    
C7    H14   1.106103 S    
C11   C12   1.550947 S    
C22   C23   1.535298 S    
O17   Ba2   2.818856 S    
Ba2   O20   2.838356 S    
O5    C6    1.400412 S    
C25   C27   1.496078 S    
C3    H5    1.109824 S    
O3    P6    1.752884 S    
C9    H19   1.108238 S    
C45   C46   1.523796 S    
C26   C27   1.405485 A    
O6    P6    1.752728 S    
O8    Ba1   2.818197 S    
C25   H40   1.085499 S    
C46   H62   1.108937 S    
H32   C16   1.104595 S    
C19   H35   1.082934 S    
P4    O13   1.589073 S    
P5    O18   1.536890 D    
P1    O5    1.750202 S    
O7    Ba1   2.892572 S    
P4    C20   1.854579 S    
C15   H30   1.106388 S    
C8    C9    1.523339 S    
C14   H29   1.108095 S    
P1    C29   1.870496 S    
P3    C34   1.842070 S    
C17   C21   1.342673 D    
C2    H3    1.111585 S    
C43   H55   1.110045 S    
C12   O26   1.415310 S    
P1    O2    1.589073 S    
P3    O11   1.750542 S    
O2    Ba1   2.904516 S    
P7    C38   1.848644 S    
C12   H23   1.107349 S    
C1    C10   1.530637 S    
P2    O10   1.751789 S    
C11   O22   1.414537 S    
C22   C24   1.523863 S    
C6    H11   1.105753 S    
P3    O9    1.544776 D    
P4    O15   1.731278 S    
C4    C5    1.512326 S    
C28   C29   1.403526 A    
O11   C2    1.405183 S    
C6    C7    1.522802 S    
C11   O25   1.422319 S    
C4    H7    1.108981 S    
C26   C28   1.405479 A    
N2    H46   1.036550 S    
C33   N5    1.427814 S    
Ba1   O13   2.840097 S    
C31   C38   1.386818 A    
P3    O8    1.708055 S    
C14   N4    1.458549 S    
C16   H34   1.105769 S    
C3    H6    1.110190 S    
C32   H43   1.081856 S    
C9    H20   1.111226 S    
C45   H60   1.110817 S    
C15   C16   1.511326 S    
O25   C41   1.409986 S    
C18   H38   1.081638 S    
C41   C42   1.523717 S    
Ba2   O21   2.892737 S    
C17   H37   1.084780 S    
O13   Ba2   2.905348 S    
C39   C40   1.406593 A    
C17   C20   1.468721 S    
C4    O15   1.386582 S    
C33   C37   1.427005 A    
C15   H31   1.102663 S    
N5    H67   1.044216 S    
C14   H28   1.110322 S    
C42   H53   1.107937 S    
C41   H51   1.112066 S    
C44   H57   1.110560 S    
C40   H41   1.077831 S    
C43   H54   1.108839 S    
Ba1   Ba2   4.583577 S    
O1    Ba1   2.860588 S    
P5    C39   1.844447 S    
C3    H25   1.110697 S    
N4    H64   1.045054 S    
C8    H17   1.110181 S    
C44   H58   1.114548 S    
C10   H21   1.109356 S    
O19   C13   1.406018 S    
C32   C34   1.394385 A    
C28   H36   1.079712 S    
P1    Ba1   3.393085 S    
O16   Ba2   2.892648 S    
P2    O20   1.599730 S    
P7    O21   1.571441 D    
C13   H26   1.100735 S    
C18   C30   1.408320 A    
P8    O23   1.545811 D    
N1    H45   1.045558 S    
N2    H47   1.044608 S    
O26   C44   1.419994 S    
P8    C21   1.828077 S    
N5    H66   1.042501 S    
P4    Ba2   3.393702 S    
C1    H2    1.110044 S    
C16   H33   1.110298 S    
C5    H9    1.109836 S    
C45   H59   1.105699 S    
N3    H48   1.041168 S    
C13   C14   1.522940 S    
C21   C22   1.523537 S    
C35   C36   1.441958 A    
P8    O24   1.739611 S    
O6    C10   1.403915 S    
O3    Ba1   2.846189 S    
C42   H52   1.110085 S    
O10   C8    1.396872 S    
C10   N1    1.461176 S    
C32   C35   1.399041 A    
