data_mof_unit_63373.cif
_audit_creation_date              2012-12-11T17:21:30-0500
_audit_creation_method            fapswitch 2.2
_symmetry_space_group_name_H-M    P1
_symmetry_Int_Tables_number       1
_space_group_crystal_system       triclinic
_cell_length_a                    23.566681
_cell_length_b                    31.903007
_cell_length_c                    19.777305
_cell_angle_alpha                 89.999871
_cell_angle_beta                  125.355267
_cell_angle_gamma                 90.001241
_cell_volume                      12127.2860555

loop_
_atom_site_label
_atom_site_type_symbol
_atom_type_description
_atom_site_fract_x
_atom_site_fract_y
_atom_site_fract_z
_atom_type_partial_charge
Br1   Br    Br    0.063488 0.915959 0.674497 -0.289859
Br2   Br    Br    0.454889 0.257106 0.178145 -0.351714
Br3   Br    Br    0.954927 0.242865 0.178142 -0.353674
Br4   Br    Br    0.954888 0.757106 0.178145 -0.351760
Br5   Br    Br    0.537146 0.857157 0.166903 -0.361225
Br6   Br    Br    0.537158 0.142844 0.166903 -0.360310
Br7   Br    Br    0.037146 0.357157 0.166903 -0.361221
Br8   Br    Br    0.037158 0.642844 0.166903 -0.360315
Br9   Br    Br    0.268982 0.911343 0.736850 -0.429713
Br10  Br    Br    0.268902 0.088631 0.736842 -0.465102
Br11  Br    Br    0.768991 0.411345 0.736842 -0.429284
Br12  Br    Br    0.032882 0.009201 0.732445 -0.327641
Br13  Br    Br    0.768895 0.588630 0.736848 -0.465233
Br14  Br    Br    0.422581 0.088305 0.723615 -0.473794
Br15  Br    Br    0.422587 0.911693 0.723613 -0.477345
Br16  Br    Br    0.922579 0.588305 0.723615 -0.473807
Br17  Br    Br    0.922590 0.411693 0.723613 -0.477304
Br18  Br    Br    0.897166 0.933580 0.573687 -0.276452
Br19  Br    Br    0.870907 0.032142 0.587057 -0.298583
Br20  Br    Br    0.397312 0.432975 0.572830 -0.276427
Br21  Br    Br    0.370813 0.531335 0.587458 -0.298655
Br22  Br    Br    0.563672 0.415576 0.673431 -0.289454
Br23  Br    Br    0.532842 0.508350 0.732565 -0.327732
Br24  Br    Br    0.947440 0.974257 0.362399 -0.377493
Br25  Br    Br    0.923979 0.066321 0.381098 -0.350869
Br26  Br    Br    0.447512 0.475064 0.362095 -0.377622
Br27  Br    Br    0.423814 0.566907 0.381963 -0.350556
Br28  Br    Br    0.454924 0.742868 0.178145 -0.353713
C1    C     C_R   0.389464 0.115113 0.931348 -0.110101
C2    C     C_R   0.569117 0.097884 0.931055 -0.085246
C3    C     C_R   0.380716 0.038043 0.446706 -0.278606
C4    C     C_R   0.880711 0.461957 0.446702 -0.278500
C5    C     C_R   0.880721 0.538045 0.446709 -0.278617
C6    C     C_R   0.382202 1.000000 0.482801 -0.064188
C7    C     C_R   0.882202 0.500001 0.482801 -0.064182
C8    C     C_1   0.414204 0.000000 0.296619 0.241702
C9    C     C_1   0.914204 0.500000 0.296618 0.241686
C10   C     C_R   0.299445 0.964991 0.789247 0.342048
C11   C     C_R   0.299421 0.034992 0.789236 0.326955
C12   C     C_R   0.799446 0.464990 0.789250 0.342105
C13   C     C_R   0.069111 0.402110 0.931053 -0.086762
C14   C     C_R   0.799419 0.534990 0.789241 0.326871
C15   C     C_1   0.401262 1.000000 0.565536 0.136415
C16   C     C_1   0.901263 0.500000 0.565537 0.136420
C17   C     C_1   0.423549 1.000000 0.637404 0.135686
C18   C     C_1   0.923550 0.500000 0.637405 0.135691
C19   C     C_1   0.440554 0.000000 0.259949 0.240955
C20   C     C_1   0.940553 0.500000 0.259949 0.240936
C21   C     C_R   0.411205 0.139107 0.999890 -0.109684
C22   C     C_R   0.411189 0.860897 0.999896 -0.107812
C23   C     C_R   0.911206 0.639108 0.999889 -0.109703
C24   C     C_R   0.069117 0.597884 0.931055 -0.085245
C25   C     C_R   0.911188 0.360897 0.999896 -0.107806
C26   C     C_R   0.474979 0.000000 0.219992 -0.373155
C27   C     C_R   0.974979 0.500000 0.219992 -0.373153
C28   C     C_R   0.258269 0.999983 0.758819 -0.157905
C29   C     C_R   0.758267 0.499981 0.758828 -0.157960
C30   C     C_R   0.462267 0.034569 0.770522 0.272981
C31   C     C_R   0.462268 0.965431 0.770522 0.271574
C32   C     C_R   0.962266 0.534569 0.770522 0.272990
C33   C     C_R   0.962268 0.465431 0.770522 0.271568
C34   C     C_R   0.691172 0.965024 0.228489 -0.083863
C35   C     C_R   0.454187 0.000000 0.724141 -0.118558
C36   C     C_R   0.691172 0.034986 0.228469 -0.088767
C37   C     C_R   0.191173 0.465024 0.228488 -0.083809
C38   C     C_R   0.191173 0.534986 0.228468 -0.088861
C39   C     C_R   0.954188 0.500000 0.724141 -0.118562
C40   C     C_R   0.726631 0.000010 0.273528 0.048478
C41   C     C_R   0.226632 0.500010 0.273527 0.048506
C42   C     C_R   0.633196 0.110034 0.000168 0.047983
C43   C     C_R   0.633186 0.889956 0.000165 0.048391
C44   C     C_R   0.133196 0.610035 0.000168 0.047986
C45   C     C_R   0.389457 0.884887 0.931353 -0.104451
C46   C     C_R   0.133186 0.389956 0.000165 0.048390
C47   C     C_3   0.021717 0.953480 0.578120 0.095968
C48   C     C_3   0.013788 0.027367 0.626424 0.028029
C49   C     C_3   0.521823 0.453437 0.577540 0.096150
C50   C     C_3   0.513713 0.527015 0.626786 0.027925
C51   C     C_3   0.934928 0.032420 0.553754 0.829559
C52   C     C_3   0.940633 0.954311 0.520428 0.806038
C53   C     C_3   0.434840 0.532100 0.554173 0.829676
C54   C     C_3   0.440740 0.454208 0.519853 0.805831
C55   C     C_1   0.787824 0.000039 0.353675 0.091738
C56   C     C_R   0.889465 0.615113 0.931348 -0.110164
C57   C     C_1   0.287824 0.500038 0.353676 0.091767
C58   C     C_3   0.050346 0.999304 0.597326 -0.215654
C59   C     C_3   0.550342 0.499285 0.597336 -0.215705
C60   C     C_3   0.916689 0.000057 0.483221 -0.491158
C61   C     C_3   0.416685 0.500046 0.483230 -0.491110
C62   C     C_R   0.460827 0.883513 0.068323 0.480396
C63   C     C_R   0.460836 0.116490 0.068320 0.481357
C64   C     C_R   0.960827 0.383513 0.068323 0.480390
C65   C     C_R   0.960836 0.616490 0.068320 0.481360
C66   C     C_3   0.957443 0.013788 0.444833 0.630391
C67   C     C_R   0.889456 0.384888 0.931353 -0.104483
C68   C     C_3   0.457409 0.514181 0.445028 0.630349
C69   C     C_3   0.035358 0.018406 0.516239 -0.597616
C70   C     C_3   0.535313 0.518769 0.516499 -0.597524
C71   C     C_1   0.843971 0.000116 0.416686 0.291199
C72   C     C_1   0.343969 0.500112 0.416691 0.291163
C73   C     C_1   0.124494 0.999670 0.656690 0.225819
C74   C     C_1   0.624491 0.499659 0.656706 0.225740
C75   C     C_1   0.185802 0.999915 0.703042 0.152717
C76   C     C_1   0.685799 0.499910 0.703057 0.152681
C77   C     C_R   0.839437 0.188405 0.073049 -0.198402
C78   C     C_R   0.636919 0.097704 0.069549 -0.063454
C79   C     C_R   0.839412 0.811572 0.073052 -0.198145
C80   C     C_R   0.339436 0.688407 0.073051 -0.198438
C81   C     C_R   0.339412 0.311572 0.073052 -0.198134
C82   C     C_R   0.779925 0.174501 0.998072 0.081933
C83   C     C_R   0.779915 0.825486 0.998072 0.083183
C84   C     C_R   0.279926 0.674501 0.998074 0.081960
C85   C     C_R   0.279915 0.325485 0.998072 0.083171
C86   C     C_R   0.762325 0.191166 0.922853 -0.113591
C87   C     C_R   0.762342 0.808837 0.922853 -0.115488
C88   C     C_R   0.262328 0.691165 0.922855 -0.113612
C89   C     C_R   0.636913 0.902290 0.069547 -0.063575
C90   C     C_R   0.262341 0.308836 0.922853 -0.115474
C91   C     C_R   0.300983 0.724207 0.922904 -0.159566
C92   C     C_R   0.301006 0.275802 0.922901 -0.162731
C93   C     C_R   0.800979 0.224208 0.922902 -0.159507
C94   C     C_R   0.801007 0.775802 0.922901 -0.162763
C95   C     C_R   0.357104 0.740577 0.998147 -0.002992
C96   C     C_R   0.357112 0.259424 0.998144 -0.000755
C97   C     C_R   0.857102 0.240577 0.998145 -0.003015
C98   C     C_R   0.857113 0.759424 0.998145 -0.000737
C99   C     C_R   0.493807 0.034403 0.195659 0.698193
C100  C     C_R   0.136919 0.597704 0.069549 -0.063462
C101  C     C_R   0.493807 0.965597 0.195659 0.698789
C102  C     C_R   0.993807 0.534403 0.195658 0.698178
C103  C     C_R   0.993807 0.465597 0.195659 0.698780
C104  C     C_R   0.378337 0.721534 0.073468 0.361498
C105  C     C_R   0.378322 0.278452 0.073468 0.361352
C106  C     C_R   0.878337 0.221533 0.073465 0.361496
C107  C     C_R   0.878322 0.778452 0.073468 0.361348
C108  C     C_1   0.730489 0.149167 0.999048 0.022641
C109  C     C_1   0.730472 0.850816 0.999040 0.021417
C110  C     C_1   0.230489 0.649167 0.999049 0.022612
C111  C     C_R   0.136913 0.402290 0.069548 -0.063566
C112  C     C_1   0.230472 0.350816 0.999040 0.021434
C113  C     C_1   0.381675 0.781482 0.997999 0.079393
C114  C     C_1   0.381688 0.218521 0.997989 0.077169
C115  C     C_1   0.881674 0.281483 0.997997 0.079418
C116  C     C_1   0.881689 0.718522 0.997989 0.077146
C117  C     C_1   0.397150 0.817308 0.998469 0.115814
C118  C     C_1   0.397166 0.182697 0.998460 0.113806
C119  C     C_1   0.897149 0.317308 0.998468 0.115833
C120  C     C_1   0.897167 0.682697 0.998460 0.113789
C121  C     C_1   0.686674 0.130524 0.999720 0.016023
C122  C     C_R   0.569111 0.902110 0.931053 -0.086772
C123  C     C_1   0.686658 0.869461 0.999713 0.015238
C124  C     C_1   0.186673 0.630524 0.999721 0.016002
C125  C     C_1   0.186658 0.369461 0.999714 0.015252
C126  C     C_R   0.384234 0.038101 0.378762 0.776076
C127  C     C_R   0.384232 0.961898 0.378760 0.776461
C128  C     C_R   0.884238 0.538103 0.378765 0.776058
C129  C     C_R   0.884228 0.461900 0.378757 0.776459
C130  C     C_R   0.389269 1.000000 0.347350 -0.385434
C131  C     C_R   0.889269 0.500001 0.347349 -0.385430
C132  C     C_R   0.380715 0.961956 0.446705 -0.278515
F1    F     F_    0.926303 0.072861 0.523914 -0.622237
F2    F     F_    0.483595 0.925478 0.207725 -0.629707
F3    F     F_    0.983594 0.574522 0.207720 -0.630143
F4    F     F_    0.983595 0.425478 0.207726 -0.629711
F5    F     F_    0.918511 0.925374 0.457522 -0.617273
F6    F     F_    0.426119 0.572665 0.524855 -0.622219
F7    F     F_    0.418693 0.425516 0.456582 -0.617407
F8    F     F_    0.389710 0.075137 0.349117 -0.622177
F9    F     F_    0.389705 0.924863 0.349114 -0.621950
F10   F     F_    0.889718 0.575138 0.349122 -0.622198
F11   F     F_    0.889696 0.424864 0.349108 -0.621950
F12   F     F_    0.483595 0.074522 0.207721 -0.630131
H1    H     H_    0.366396 0.128260 0.870773 0.199575
H2    H     H_    0.050700 0.052060 0.526881 0.255555
H3    H     H_    0.568092 0.503703 0.499532 0.235203
H4    H     H_    0.550574 0.552434 0.527575 0.255572
H5    H     H_    0.852731 0.175610 0.131308 0.181267
H6    H     H_    0.852686 0.824354 0.131312 0.181306
H7    H     H_    0.352729 0.675612 0.131311 0.181251
H8    H     H_    0.352687 0.324354 0.131311 0.181308
H9    H     H_    0.715862 0.180780 0.864683 0.153138
H10   H     H_    0.715892 0.819231 0.864679 0.152164
H11   H     H_    0.215867 0.680778 0.864685 0.153122
H12   H     H_    0.366402 0.871731 0.870789 0.197720
H13   H     H_    0.215891 0.319230 0.864679 0.152169
H14   H     H_    0.283761 0.739098 0.864703 0.167795
H15   H     H_    0.283803 0.260922 0.864697 0.166099
H16   H     H_    0.783756 0.239101 0.864701 0.167822
H17   H     H_    0.783805 0.760923 0.864697 0.166091
H18   H     H_    0.382770 0.067541 0.475237 0.205324
H19   H     H_    0.382768 0.932459 0.475236 0.205200
H20   H     H_    0.882778 0.567542 0.475243 0.205317
H21   H     H_    0.882761 0.432460 0.475230 0.205204
H22   H     H_    0.700657 0.933074 0.250865 0.152091
H23   H     H_    0.866397 0.628260 0.870773 0.199591
H24   H     H_    0.700663 0.066941 0.250825 0.152242
H25   H     H_    0.200658 0.433074 0.250865 0.152062
H26   H     H_    0.200664 0.566941 0.250825 0.152262
H27   H     H_    0.680092 0.102198 0.133488 0.132638
H28   H     H_    0.680082 0.897795 0.133487 0.132547
H29   H     H_    0.180092 0.602198 0.133488 0.132630
H30   H     H_    0.180082 0.397795 0.133487 0.132555
H31   H     H_    0.550992 0.897932 0.867532 0.160417
H32   H     H_    0.551001 0.102060 0.867533 0.160359
H33   H     H_    0.050992 0.397932 0.867532 0.160419
H34   H     H_    0.866398 0.371732 0.870788 0.197724
H35   H     H_    0.051000 0.602061 0.867533 0.160353
H36   H     H_    0.038202 0.059015 0.641250 0.188791
H37   H     H_    0.039556 0.938556 0.542539 0.186702
H38   H     H_    0.538052 0.558693 0.642020 0.188688
H39   H     H_    0.539702 0.438793 0.541775 0.186630
H40   H     H_    0.068096 0.003090 0.499463 0.235216
N1    N     N_R   0.421250 0.077660 0.956230 -0.074284
N2    N     N_R   0.521510 0.978770 0.155860 -0.161483
N3    N     N_R   0.021510 0.521230 0.155860 -0.161371
N4    N     N_R   0.021510 0.478770 0.155860 -0.161484
N5    N     N_R   0.365020 0.978250 0.843540 -0.099244
N6    N     N_R   0.365020 0.021750 0.843540 -0.095647
N7    N     N_R   0.865020 0.478250 0.843540 -0.099275
N8    N     N_R   0.865020 0.521750 0.843540 -0.095628
N9    N     N_R   0.477750 0.021200 0.843920 -0.097752
N10   N     N_R   0.477750 0.978800 0.843920 -0.097961
N11   N     N_R   0.977750 0.521200 0.843920 -0.097748
N12   N     N_R   0.421250 0.922340 0.956230 -0.075878
N13   N     N_R   0.977750 0.478800 0.843920 -0.097963
N14   N     N_R   0.634700 0.978290 0.156680 -0.059804
N15   N     N_R   0.634700 0.021710 0.156680 -0.059121
N16   N     N_R   0.134700 0.478290 0.156680 -0.059808
N17   N     N_R   0.134700 0.521710 0.156680 -0.059111
N18   N     N_R   0.577390 0.077670 0.042970 -0.058116
N19   N     N_R   0.577390 0.922330 0.042970 -0.058200
N20   N     N_R   0.077390 0.577670 0.042970 -0.058109
N21   N     N_R   0.077390 0.422330 0.042970 -0.058201
N22   N     N_R   0.535050 0.921820 0.957630 -0.049360
N23   N     N_R   0.921250 0.577660 0.956230 -0.074282
N24   N     N_R   0.535050 0.078180 0.957630 -0.049134
N25   N     N_R   0.035050 0.421820 0.957630 -0.049360
N26   N     N_R   0.035050 0.578180 0.957630 -0.049129
N27   N     N_R   0.921250 0.422340 0.956230 -0.075895
N28   N     N_R   0.465280 0.921820 0.043160 -0.105504
N29   N     N_R   0.465280 0.078180 0.043160 -0.105566
N30   N     N_R   0.965280 0.421820 0.043160 -0.105506
N31   N     N_R   0.965280 0.578180 0.043160 -0.105568
N32   N     N_R   0.521510 0.021230 0.155860 -0.161375
Ni1   Ni    Ni4+2 0.449950 0.048980 0.900980 0.268992
Ni2   Ni    Ni4+2 0.449950 0.951020 0.900980 0.267607
Ni3   Ni    Ni4+2 0.949950 0.548980 0.900980 0.268989
Ni4   Ni    Ni4+2 0.949950 0.451020 0.900980 0.267597
Ni5   Ni    Ni4+2 0.549540 0.950500 0.099020 0.266712
Ni6   Ni    Ni4+2 0.549540 0.049500 0.099020 0.267045
Ni7   Ni    Ni4+2 0.049540 0.450500 0.099020 0.266704
Ni8   Ni    Ni4+2 0.049540 0.549500 0.099020 0.267044

loop_
_geom_bond_atom_site_label_1
_geom_bond_atom_site_label_2
_ccdc_geom_bond_type
C102  F3    S    
C97   C106  A    
N14   Ni5   S    
N28   Ni5   S    
C77   C82   A    
C92   H15   S    
C37   N16   A    
C69   H40   S    
Br20  C54   S    
C95   C104  A    
C20   C27   S    
C24   H35   S    
C114  C118  T    
C11   N6    A    
C82   C108  S    
C81   H8    S    
C48   C51   S    
C116  C120  T    
C96   C114  S    
C91   C95   A    
C3    C126  A    
C108  C121  T    
C5    C128  A    
C13   N25   A    
Br19  C51   S    
C115  C119  T    
C38   N17   A    
C83   C109  S    
C54   C61   S    
N32   Ni6   S    
C96   C105  A    
C44   C100  A    
C5    H20   S    
N30   Ni7   S    
C49   C54   S    
C21   C63   A    
C126  C130  A    
C14   N8    A    
C36   C40   A    
C38   C41   A    
C25   C67   A    
C56   H23   S    
Br6   C63   S    
C88   H11   S    
C25   C119  S    
C13   H33   S    
C132  H19   S    
C8    C19   T    
N2    N32   A    
Br16  C32   S    
C98   C116  S    
C101  N2    A    
C29   C76   S    
C58   C69   S    
N21   N25   A    
Br13  C14   S    
C79   C107  A    
Br17  C33   S    
C13   C46   A    
C86   C93   A    
C64   N30   A    
C22   C62   A    
C43   C123  S    
C63   N29   A    
C32   C39   A    
C44   C124  S    
C68   C70   S    
N26   Ni3   S    
C111  N21   A    
C53   F6    S    
N18   N24   A    
C69   H2    S    
N19   N22   A    
C103  F4    S    
C47   C52   S    
C50   H38   S    
Br5   C62   S    
C8    C130  S    
C112  C125  T    
C100  H29   S    
N16   Ni7   S    
C53   C61   S    
C67   H34   S    
C127  C132  A    
Br25  C66   S    
C129  C131  A    
C87   C94   A    
C55   C71   T    
C52   C60   S    
C127  C130  A    
N20   N26   A    
C10   N5    A    
C126  F8    S    
Br27  C68   S    
C42   C121  S    
Br15  C31   S    
C122  H31   S    
C51   F1    S    
C60   C71   S    
C14   C29   A    
N23   Ni3   S    
N16   N17   A    
C2    C42   A    
C90   H13   S    
C16   C18   T    
C54   F7    S    
Br26  C68   S    
Br14  C30   S    
C49   C59   S    
C60   C66   S    
C85   C112  S    
Br2   C105  S    
C43   C89   A    
C61   C72   S    
C81   C105  A    
Br1   C47   S    
C4    C7    A    
C84   C110  S    
C56   N23   A    
N5    Ni2   S    
Br22  C49   S    
C65   N31   A    
C22   C45   A    
C1    H1    S    
N7    N8    A    
C45   H12   S    
C19   C26   S    
C100  N20   A    
C1    C21   A    
C66   C69   S    
N11   Ni3   S    
N5    N6    A    
C122  N22   A    
C17   C35   S    
C33   N13   A    
C78   N18   A    
N25   Ni4   S    
N27   Ni4   S    
Br28  C104  S    
C94   C98   A    
N1    Ni1   S    
N3    N4    A    
N6    Ni1   S    
C93   C97   A    
N9    N10   A    
C24   C44   A    
C31   N10   A    
Br24  C66   S    
C59   C74   S    
C70   H4    S    
C127  F9    S    
C47   C58   S    
C1    N1    A    
C11   C28   A    
C3    H18   S    
C27   C102  A    
C95   C113  S    
N2    Ni5   S    
C3    C6    A    
C102  N3    A    
C67   N27   A    
C9    C20   T    
C74   C76   T    
C7    C16   S    
N12   N28   A    
N23   N31   A    
C38   H26   S    
C89   H28   S    
C51   C60   S    
C23   C65   A    
Br4   C107  S    
N20   Ni8   S    
C22   C117  S    
N12   Ni2   S    
N8    Ni3   S    
Br21  C53   S    
C98   C107  A    
C27   C103  A    
Br12  C48   S    
C79   H6    S    
C42   C78   A    
N3    Ni8   S    
C50   C59   S    
C37   H25   S    
C25   C64   A    
C34   H22   S    
N19   Ni5   S    
C32   N11   A    
C48   C58   S    
C52   F5    S    
C84   C88   A    
C87   H10   S    
C41   C57   S    
N21   Ni7   S    
C94   H17   S    
C30   N9    A    
C4    C129  A    
C26   C99   A    
C80   C84   A    
C30   C35   A    
C26   C101  A    
C82   C86   A    
C47   H37   S    
C12   N7    A    
N31   Ni8   S    
C45   N12   A    
C103  N4    A    
C40   C55   S    
C79   C83   A    
N24   Ni1   S    
C128  C131  A    
C109  C123  T    
C6    C15   S    
C28   C75   S    
C77   H5    S    
C4    H21   S    
C12   C29   A    
C111  H30   S    
C83   C87   A    
N11   N13   A    
C46   C125  S    
C81   C85   A    
C24   N26   A    
C86   H9    S    
C2    H32   S    
C46   C111  A    
C99   N32   A    
C31   C35   A    
C21   C118  S    
C88   C91   A    
C62   N28   A    
Br3   C106  S    
C110  C124  T    
C59   C70   S    
C61   C68   S    
N1    N29   A    
C99   F12   S    
C91   H14   S    
C18   C39   S    
C15   C17   T    
C57   C72   T    
C34   N14   A    
C129  F11   S    
C93   H16   S    
C70   H3    S    
N10   Ni2   S    
C50   C53   S    
C9    C131  S    
N9    Ni1   S    
C23   C120  S    
N13   Ni4   S    
N4    Ni7   S    
C37   C41   A    
Br7   C64   S    
C36   H24   S    
C128  F10   S    
C113  C117  T    
C5    C7    A    
C89   N19   A    
C101  F2    S    
N27   N30   A    
C34   C40   A    
Br23  C50   S    
C33   C39   A    
Br11  C12   S    
C90   C92   A    
C80   C104  A    
N17   Ni8   S    
C49   H39   S    
N15   Ni6   S    
C85   C90   A    
C43   C122  A    
C92   C96   A    
C97   C115  S    
C10   C28   A    
C80   H7    S    
Br18  C52   S    
N14   N15   A    
Br8   C65   S    
N29   Ni6   S    
N7    Ni4   S    
Br10  C11   S    
Br9   C10   S    
C2    N24   A    
N18   Ni6   S    
C58   C73   S    
C23   C56   A    
C36   N15   A    
N22   Ni2   S    
C48   H36   S    
C78   H27   S    
C77   C106  A    
C73   C75   T    
C6    C132  A    
