data_mof_unit_31233.cif
_audit_creation_date              2012-10-26T19:03:28-0400
_audit_creation_method            fapswitch 2.2
_symmetry_space_group_name_H-M    P1
_symmetry_Int_Tables_number       1
_space_group_crystal_system       triclinic
_cell_length_a                    10.78876
_cell_length_b                    13.002989
_cell_length_c                    11.647371
_cell_angle_alpha                 100.94974
_cell_angle_beta                  92.446496
_cell_angle_gamma                 89.680225
_cell_volume                      1602.74938297

loop_
_atom_site_label
_atom_site_type_symbol
_atom_type_description
_atom_site_fract_x
_atom_site_fract_y
_atom_site_fract_z
_atom_type_partial_charge
C1    C     C_R   0.501052 0.298796 0.478039 0.574440
C2    C     C_R   0.439303 0.125742 0.364548 -0.173788
C3    C     C_R   0.534107 0.136321 0.559813 0.250824
C4    C     C_R   0.262748 0.501806 0.502235 0.526917
C5    C     C_R   0.494475 0.033021 0.558363 -0.001453
C6    C     C_R   0.448835 0.970871 0.451909 -0.001717
C7    C     C_R   0.432134 0.862556 0.444675 0.061724
C8    C     C_R   0.494790 0.882202 0.652384 0.106909
C9    C     C_R   0.494301 0.991099 0.660934 0.148846
C10   C     C_R   0.363886 0.420284 0.026179 0.048650
C11   C     C_R   0.380912 0.425453 0.147553 0.094420
C12   C     C_R   0.068994 0.398807 0.473145 0.000380
C13   C     C_R   0.560208 0.530865 0.154492 0.080740
C14   C     C_R   0.548564 0.526970 0.032366 0.001541
C15   C     C_R   0.448792 0.471570 0.966907 0.033419
C16   C     C_R   0.491215 0.701450 0.523187 0.632302
C17   C     C_R   0.438277 0.469433 0.844523 0.109672
C18   C     C_R   0.620418 0.571853 0.853273 0.092212
C19   C     C_R   0.634331 0.577324 0.974552 -0.132358
C20   C     C_R   0.737716 0.492138 0.496077 0.627217
C21   C     C_R   0.135814 0.303934 0.461495 -0.094909
C22   C     C_R   0.077081 0.208888 0.419001 -0.116486
C23   C     C_R   0.129959 0.495551 0.505980 -0.019403
C24   C     C_R   0.954505 0.207712 0.377820 -0.033420
C25   C     C_R   0.887049 0.300955 0.385896 0.131817
C26   C     C_R   0.939413 0.397237 0.448513 -0.017917
C27   C     C_R   0.064448 0.588743 0.529723 -0.113532
C28   C     C_R   0.935807 0.588094 0.523541 0.172319
C29   C     C_R   0.871998 0.491928 0.486756 -0.018257
C30   C     C_R   0.474311 0.816355 0.540322 0.011486
C31   C     C_R   0.494871 0.185065 0.466158 0.004024
C32   C     C_R   0.421813 0.018956 0.355398 -0.106260
Cu1   Cu    Cu3+1 0.509250 0.507730 0.615930 1.069015
Cu2   Cu    Cu3+1 0.490750 0.492270 0.384070 1.027452
H1    H     H_    0.114753 0.662193 0.552786 0.168525
H2    H     H_    0.914249 0.134241 0.332607 0.164882
H3    H     H_    0.385268 0.976018 0.272534 0.180860
H4    H     H_    0.819141 0.288214 0.643884 0.372027
H5    H     H_    0.810018 0.706584 0.369538 0.337007
H6    H     H_    0.410308 0.161781 0.291236 0.162207
H7    H     H_    0.363895 0.426714 0.791551 0.156640
H8    H     H_    0.687931 0.610100 0.809783 0.183803
H9    H     H_    0.712078 0.620173 0.022579 0.121884
H10   H     H_    0.315910 0.385815 0.192486 0.151162
H11   H     H_    0.635416 0.574654 0.205594 0.142926
H12   H     H_    0.233597 0.302636 0.485864 0.119111
H13   H     H_    0.129114 0.136577 0.410558 0.141913
I1    I     I_    0.450930 0.090731 0.823820 -0.127662
I2    I     I_    0.206875 0.336169 0.941281 -0.300169
I3    I     I_    0.738991 0.286216 0.258255 -0.244785
I4    I     I_    0.328516 0.773729 0.296004 -0.311136
I5    I     I_    0.524631 0.827039 0.814550 -0.176103
N1    N     N_R   0.523180 0.519350 0.790130 -0.237167
N2    N     N_R   0.476820 0.480650 0.209890 -0.240750
O1    O     O_R   0.506570 0.354460 0.582000 -0.456693
O2    O     O_2   0.731570 0.106405 0.701723 -0.207676
O3    O     O_3   0.756980 0.253996 0.583881 -0.535851
O4    O     O_2   0.786092 0.717431 0.661146 -0.235701
O5    O     O_2   0.948290 0.799980 0.569692 -0.239768
O6    O     O_3   0.758842 0.719882 0.439415 -0.502968
O7    O     O_R   0.490940 0.341410 0.386200 -0.509461
O8    O     O_R   0.327470 0.506530 0.597920 -0.524899
O9    O     O_R   0.311840 0.493480 0.402120 -0.508729
O10   O     O_R   0.509060 0.658590 0.613800 -0.468523
O11   O     O_R   0.493430 0.645540 0.418000 -0.458096
O12   O     O_R   0.688160 0.506520 0.597880 -0.468826
O13   O     O_R   0.672530 0.493470 0.402080 -0.483303
O14   O     O_2   0.613605 0.268641 0.758029 -0.252003
S1    S     S_3+6 0.660397 0.191252 0.656501 0.066905
S2    S     S_3+6 0.857785 0.710292 0.552292 0.043592

loop_
_geom_bond_atom_site_label_1
_geom_bond_atom_site_label_2
_ccdc_geom_bond_type
Cu2   O13   S    
Cu1   O1    S    
C6    C32   A    
C2    H6    S    
C5    C9    A    
C6    C7    A    
C25   I3    S    
C4    O8    A    
C8    C9    A    
H4    O3    S    
C27   H1    S    
C8    I5    S    
C20   O13   A    
C28   S2    S    
C4    O9    A    
O6    S2    S    
C10   C15   A    
C8    C30   A    
C22   C24   A    
Cu1   Cu2   S    
C1    O1    A    
C7    I4    S    
C11   H10   S    
C7    C30   A    
C21   C22   A    
C3    C31   A    
C12   C23   A    
C24   H2    S    
C11   N2    A    
C26   C29   A    
Cu1   O10   S    
H5    O6    S    
C12   C21   A    
Cu2   O11   S    
C20   O12   A    
C28   C29   A    
C3    S1    S    
C19   H9    S    
Cu1   O12   S    
C13   N2    A    
C23   C27   A    
C20   C29   S    
C18   H8    S    
Cu1   N1    S    
C5    C6    A    
C22   H13   S    
C17   H7    S    
C32   H3    S    
C10   C11   A    
C15   C17   A    
O5    S2    D    
C16   C30   S    
C21   H12   S    
C17   N1    A    
C1    C31   S    
C24   C25   A    
C13   H11   S    
C9    I1    S    
C2    C32   A    
C18   C19   A    
C27   C28   A    
O2    S1    D    
C4    C23   S    
Cu2   N2    S    
C14   C15   A    
Cu2   O9    S    
C16   O11   A    
C16   O10   A    
C18   N1    A    
O3    S1    S    
C25   C26   A    
C13   C14   A    
C10   I2    S    
Cu1   O8    S    
C14   C19   A    
O14   S1    D    
Cu2   O7    S    
O4    S2    D    
C12   C26   A    
C2    C31   A    
C3    C5    A    
C1    O7    A    
