data_mof_unit_16621.cif
_audit_creation_date              2012-12-10T18:47:01-0500
_audit_creation_method            fapswitch 2.2
_symmetry_space_group_name_H-M    P1
_symmetry_Int_Tables_number       1
_space_group_crystal_system       triclinic
_cell_length_a                    10.753205
_cell_length_b                    10.006661
_cell_length_c                    14.93004
_cell_angle_alpha                 89.999763
_cell_angle_beta                  91.979978
_cell_angle_gamma                 90.000056
_cell_volume                      1605.56804482

loop_
_atom_site_label
_atom_site_type_symbol
_atom_type_description
_atom_site_fract_x
_atom_site_fract_y
_atom_site_fract_z
_atom_type_partial_charge
Br1   Br    Br    0.765653 0.482512 0.754144 -0.373303
Br2   Br    Br    0.234347 0.482513 0.245856 -0.373303
Br3   Br    Br    0.240123 0.560912 0.733495 -0.410668
Br4   Br    Br    0.759875 0.560921 0.266504 -0.410667
Br5   Br    Br    0.116431 0.448881 0.907861 -0.269221
Br6   Br    Br    0.883568 0.448885 0.092140 -0.269222
C1    C     C_R   0.260313 0.499996 0.499812 0.931065
C2    C     C_R   0.127545 0.500015 0.500026 -0.002166
C3    C     C_R   0.578744 0.071144 0.556597 0.151566
C4    C     C_R   0.421534 0.928261 0.443097 0.153778
C5    C     C_R   0.421255 0.071144 0.443404 0.151567
C6    C     C_R   0.578466 0.928261 0.556903 0.153779
C7    C     C_R   0.499567 0.500456 0.327435 0.984061
C8    C     C_R   0.500433 0.500455 0.672564 0.984062
C9    C     C_R   0.612709 0.514006 0.815922 0.218781
C10   C     C_R   0.387290 0.514007 0.184078 0.218782
C11   C     C_R   0.499114 0.504465 0.768202 -0.193611
C12   C     C_R   0.739686 0.499996 0.500188 0.931064
C13   C     C_R   0.500886 0.504467 0.231798 -0.193612
C14   C     C_R   0.384911 0.518524 0.809518 0.214701
C15   C     C_R   0.615089 0.518528 0.190482 0.214702
C16   C     C_R   0.383325 0.520865 0.903673 -0.036450
C17   C     C_R   0.616675 0.520868 0.096327 -0.036450
C18   C     C_R   0.498913 0.527913 0.952877 -0.055490
C19   C     C_R   0.501086 0.527913 0.047123 -0.055490
C20   C     C_R   0.612559 0.534940 0.908358 -0.044916
C21   C     C_R   0.387441 0.534939 0.091642 -0.044917
C22   C     C_R   0.271765 0.524853 0.950969 0.264495
C23   C     C_R   0.276595 0.555796 0.041554 0.193923
C24   C     C_R   0.728235 0.524856 0.049031 0.264496
C25   C     C_R   0.723404 0.555798 0.958446 0.193922
C26   C     C_R   0.063768 0.378320 0.500252 -0.107410
C27   C     C_R   0.936229 0.621736 0.499837 -0.097198
C28   C     C_R   0.936231 0.378320 0.499748 -0.107411
C29   C     C_R   0.063771 0.621736 0.500162 -0.097198
C30   C     C_R   0.872455 0.500015 0.499974 -0.002167
H1    H     H_    0.111805 0.283232 0.500898 0.180920
H2    H     H_    0.888167 0.716821 0.499301 0.182419
H3    H     H_    0.888194 0.283232 0.499103 0.180920
H4    H     H_    0.111833 0.716821 0.500698 0.182419
I1    I     I_    0.143109 0.698536 0.083566 -0.043206
I2    I     I_    0.856893 0.698535 0.916432 -0.043205
I3    I     I_    0.704754 0.171604 0.646051 -0.165045
I4    I     I_    0.297595 0.825434 0.351961 -0.178893
I5    I     I_    0.295245 0.171605 0.353950 -0.165046
I6    I     I_    0.702406 0.825433 0.648038 -0.178894
N1    N     N_R   0.500000 0.857200 0.500000 -0.153108
N2    N     N_R   0.500000 0.142800 0.500000 -0.155878
O1    O     O_R   0.316770 0.614620 0.499990 -0.607818
O2    O     O_R   0.683230 0.385380 0.500010 -0.613533
O3    O     O_R   0.683230 0.614620 0.500010 -0.607817
O4    O     O_R   0.316770 0.385380 0.499990 -0.613532
O5    O     O_R   0.499980 0.614680 0.367850 -0.584184
O6    O     O_R   0.500020 0.385320 0.632150 -0.586212
O7    O     O_R   0.500020 0.614680 0.632150 -0.584185
O8    O     O_R   0.499980 0.385320 0.367850 -0.586213
Zn1   Zn    Zn3+2 0.500000 0.653120 0.500000 1.050317
Zn2   Zn    Zn3+2 0.500000 0.346880 0.500000 1.045898

loop_
_geom_bond_atom_site_label_1
_geom_bond_atom_site_label_2
_ccdc_geom_bond_type
C12   O3    A    
N2    Zn2   S    
O3    Zn1   S    
C25   I2    S    
Br3   C14   S    
N1    Zn1   S    
Br5   C22   S    
Br2   C10   S    
C28   C30   A    
C27   H2    S    
C19   C21   A    
C7    O8    A    
C23   I1    S    
C27   C30   A    
C10   C21   A    
O7    Zn1   S    
C8    O7    A    
O2    Zn2   S    
C1    C2    S    
C16   C22   A    
C26   H1    S    
Br4   C15   S    
C8    C11   S    
C1    O1    A    
C5    N2    A    
O4    Zn2   S    
C6    N1    A    
Br1   C9    S    
C22   C23   A    
C8    O6    A    
O8    Zn2   S    
C1    O4    A    
C29   H4    S    
C7    O5    A    
C17   C19   A    
C15   C17   A    
C10   C13   A    
C24   C25   A    
C3    C6    A    
C16   C18   A    
C3    I3    S    
C5    I5    S    
C4    C5    A    
C7    C13   S    
C4    I4    S    
C28   H3    S    
C2    C26   A    
C17   C24   A    
C20   C25   A    
C11   C14   A    
O1    Zn1   S    
C18   C19   A    
C12   O2    A    
C3    N2    A    
C6    I6    S    
O6    Zn2   S    
C21   C23   A    
C9    C11   A    
O5    Zn1   S    
C9    C20   A    
C27   C29   A    
C4    N1    A    
C12   C30   S    
Br6   C24   S    
C18   C20   A    
C14   C16   A    
C13   C15   A    
C2    C29   A    
C26   C28   A    
