data_mof_unit_52496.cif
_audit_creation_date              2012-12-10T18:49:55-0500
_audit_creation_method            fapswitch 2.2
_symmetry_space_group_name_H-M    P1
_symmetry_Int_Tables_number       1
_space_group_crystal_system       triclinic
_cell_length_a                    10.676878
_cell_length_b                    9.989589
_cell_length_c                    10.637237
_cell_angle_alpha                 90.022944
_cell_angle_beta                  94.263744
_cell_angle_gamma                 89.937557
_cell_volume                      1131.40170106

loop_
_atom_site_label
_atom_site_type_symbol
_atom_type_description
_atom_site_fract_x
_atom_site_fract_y
_atom_site_fract_z
_atom_type_partial_charge
C1    C     C_R   0.262128 0.500140 0.515729 0.878244
C2    C     C_R   0.579738 0.928221 0.583111 0.210423
C3    C     C_R   0.421547 0.928291 0.415517 0.208282
C4    C     C_R   0.421153 0.071712 0.415867 0.208724
C5    C     C_R   0.499422 0.499746 0.257931 0.828529
C6    C     C_R   0.740239 0.499967 0.505129 0.878947
C7    C     C_R   0.500858 0.499768 0.742027 0.801029
C8    C     C_3   0.380321 0.570153 0.062652 -0.416066
C9    C     C_3   0.501030 0.352861 0.071211 -0.395539
C10   C     C_3   0.379668 0.567981 0.918214 -0.394472
C11   C     C_3   0.504589 0.352877 0.928832 -0.394903
C12   C     C_3   0.617404 0.574760 0.936916 -0.417460
C13   C     C_3   0.618149 0.572538 0.081321 -0.388838
C14   C     C_3   0.499761 0.498911 0.121231 0.185047
C15   C     C_3   0.500616 0.498923 0.878579 0.198462
C16   C     C_3   0.336583 0.857112 0.316925 -0.858097
C17   C     C_3   0.333516 0.142645 0.319416 -0.858160
C18   C     C_3   0.130388 0.246728 0.596093 -0.870750
C19   C     C_3   0.128799 0.756376 0.588219 -0.868911
C20   C     C_3   0.671537 0.142427 0.675597 -0.856998
C21   C     C_3   0.670471 0.857192 0.676620 -0.854079
C22   C     C_R   0.067097 0.378019 0.559880 0.161348
C23   C     C_R   0.066445 0.623536 0.556547 0.160769
C24   C     C_R   0.937749 0.379225 0.543908 -0.208401
C25   C     C_R   0.937168 0.621585 0.540832 -0.207708
C26   C     C_R   0.874017 0.500128 0.525964 -0.120371
C27   C     C_R   0.131900 0.500611 0.546549 -0.084110
C28   C     C_R   0.579948 0.071635 0.582906 0.211445
H1    H     H_    0.620637 0.677197 0.117430 0.182335
H2    H     H_    0.332096 0.250827 0.328378 0.292612
H3    H     H_    0.360033 0.118230 0.223216 0.213718
H4    H     H_    0.235087 0.111343 0.328176 0.206400
H5    H     H_    0.294543 0.519647 0.092608 0.155596
H6    H     H_    0.415094 0.299403 0.096321 0.173790
H7    H     H_    0.295240 0.513291 0.877663 0.156572
H8    H     H_    0.423230 0.294401 0.886440 0.180347
H9    H     H_    0.373475 0.672459 0.881835 0.177826
H10   H     H_    0.592168 0.302381 0.903455 0.173246
H11   H     H_    0.207724 0.263113 0.670250 0.246522
H12   H     H_    0.704460 0.521076 0.121858 0.158084
H13   H     H_    0.063784 0.175516 0.635707 0.215167
H14   H     H_    0.166498 0.198608 0.512479 0.260034
H15   H     H_    0.205623 0.743300 0.663549 0.247836
H16   H     H_    0.165223 0.800841 0.503088 0.259576
H17   H     H_    0.061559 0.829316 0.624537 0.214873
H18   H     H_    0.887145 0.285352 0.544925 0.170086
H19   H     H_    0.886140 0.715453 0.539334 0.171168
H20   H     H_    0.668719 0.250814 0.670431 0.288170
H21   H     H_    0.652275 0.115371 0.773402 0.210526
H22   H     H_    0.769220 0.113803 0.658532 0.208083
H23   H     H_    0.616022 0.680458 0.904093 0.179690
H24   H     H_    0.668596 0.748872 0.670428 0.288314
H25   H     H_    0.768406 0.886310 0.661417 0.208324
H26   H     H_    0.649295 0.883197 0.774202 0.210595
H27   H     H_    0.704943 0.527642 0.906972 0.155559
H28   H     H_    0.377819 0.675740 0.095258 0.178479
H29   H     H_    0.584209 0.297390 0.113902 0.183316
H30   H     H_    0.331663 0.749456 0.329194 0.292309
H31   H     H_    0.238149 0.891341 0.319542 0.206533
H32   H     H_    0.368918 0.877157 0.222004 0.214981
N1    N     N_R   0.499970 0.857200 0.499970 -0.117604
N2    N     N_R   0.499970 0.142800 0.499970 -0.117345
O1    O     O_R   0.316750 0.614620 0.499990 -0.622168
O2    O     O_R   0.316750 0.385380 0.499990 -0.620783
O3    O     O_R   0.499970 0.614670 0.314790 -0.624444
O4    O     O_R   0.499970 0.385330 0.314790 -0.627308
O5    O     O_R   0.683220 0.614710 0.500010 -0.626773
O6    O     O_R   0.683220 0.385290 0.500010 -0.626066
O7    O     O_R   0.500010 0.614660 0.685200 -0.633975
O8    O     O_R   0.500010 0.385340 0.685200 -0.636854
Zn1   Zn    Zn3+2 0.499980 0.653120 0.500000 0.918404
Zn2   Zn    Zn3+2 0.499980 0.346880 0.500000 0.917866

loop_
_geom_bond_atom_site_label_1
_geom_bond_atom_site_label_2
_ccdc_geom_bond_type
C7    O7    A    
C11   H10   S    
C19   C23   S    
C18   H11   S    
C19   H17   S    
C10   H7    S    
C23   C27   A    
C19   H15   S    
C20   H21   S    
C25   H19   S    
C22   C27   A    
O7    Zn1   S    
C12   C15   S    
C21   H26   S    
O6    Zn2   S    
C24   H18   S    
C12   H23   S    
N1    Zn1   S    
C7    O8    A    
C6    O6    A    
C25   C26   A    
C9    C14   S    
N2    Zn2   S    
C16   H30   S    
C13   C14   S    
C12   C13   S    
C21   H25   S    
C17   H2    S    
C9    C11   S    
C8    H28   S    
C5    C14   S    
C6    C26   S    
C2    C21   S    
C10   H9    S    
C4    C17   S    
C1    O1    A    
C8    C14   S    
C5    O3    A    
C6    O5    A    
O1    Zn1   S    
C9    H29   S    
C8    H5    S    
O2    Zn2   S    
C9    H6    S    
C17   H3    S    
C22   C24   A    
O5    Zn1   S    
O8    Zn2   S    
C3    N1    A    
C3    C4    A    
C12   H27   S    
C1    O2    A    
C4    N2    A    
C20   H22   S    
C23   C25   A    
C19   H16   S    
C20   H20   S    
C8    C10   S    
C16   H32   S    
C18   H13   S    
C13   H1    S    
C1    C27   S    
C17   H4    S    
C11   H8    S    
C13   H12   S    
C2    C28   A    
C7    C15   S    
C20   C28   S    
C18   H14   S    
C10   C15   S    
C18   C22   S    
C11   C15   S    
C16   H31   S    
C21   H24   S    
O4    Zn2   S    
C3    C16   S    
C24   C26   A    
O3    Zn1   S    
C5    O4    A    
C2    N1    A    
C28   N2    A    
