data_mof_unit_48150.cif
_audit_creation_date              2013-03-05T16:48:14-0500
_audit_creation_method            fapswitch 2.2
_symmetry_space_group_name_H-M    P1
_symmetry_Int_Tables_number       1
_space_group_crystal_system       triclinic
_cell_length_a                    23.556187
_cell_length_b                    8.925885
_cell_length_c                    8.102158
_cell_angle_alpha                 89.89421
_cell_angle_beta                  90.000388
_cell_angle_gamma                 90.000381
_cell_volume                      1703.555348

loop_
_atom_site_label
_atom_site_type_symbol
_atom_site_description
_atom_site_fract_x
_atom_site_fract_y
_atom_site_fract_z
_atom_type_partial_charge
O1    O     O_R   0.500000 0.285350 0.636850 -0.612512
O2    O     O_R   0.500000 0.714650 0.363150 -0.612520
O3    O     O_R   0.500000 0.714650 0.636850 -0.608328
O4    O     O_R   0.500000 0.285350 0.363150 -0.608333
H1    H     H_    0.947791 0.126286 0.572055 0.194768
H2    H     H_    0.050929 0.875027 0.439267 0.192465
H3    H     H_    0.947814 0.873696 0.428081 0.194753
H4    H     H_    0.050907 0.124914 0.560875 0.192445
C1    C     C_R   0.500028 0.217995 0.500096 0.934398
C2    C     C_R   0.500028 0.782005 0.499904 0.934400
O5    O     O_R   0.416160 0.500000 0.636910 -0.575929
O6    O     O_R   0.583840 0.500000 0.363090 -0.580927
O7    O     O_R   0.583840 0.500000 0.636910 -0.580930
O8    O     O_R   0.416160 0.500000 0.363090 -0.575930
C3    C     C_R   0.206974 0.499941 0.500029 -0.045130
C4    C     C_R   0.791807 0.500015 0.500030 -0.042213
C5    C     C_R   0.388754 0.499993 0.500000 0.987715
C6    C     C_R   0.610957 0.500004 0.500001 1.005190
Zn1   Zn    Zn3+2 0.500000 0.500000 0.682780 1.112734
Zn2   Zn    Zn3+2 0.500000 0.500000 0.317220 1.112730
C7    C     C_R   0.295653 0.551527 0.359287 0.274873
C8    C     C_R   0.703115 0.420123 0.376943 0.266804
C9    C     C_R   0.295663 0.448381 0.640725 0.274863
C10   C     C_R   0.703110 0.579911 0.623074 0.266799
C11   C     C_R   0.326028 0.499969 0.500003 -0.341475
C12   C     C_R   0.673167 0.500014 0.500005 -0.326422
C13   C     C_R   0.880598 0.631054 0.468467 0.638383
C14   C     C_R   0.117981 0.366279 0.511866 0.643467
C15   C     C_R   0.880590 0.368951 0.531645 0.638380
C16   C     C_R   0.117989 0.633636 0.488254 0.643440
N1    N     N_R   0.852432 0.500007 0.500049 -0.323556
N2    N     N_R   0.146228 0.499951 0.500052 -0.318068
C17   C     C_R   0.939788 0.365318 0.527586 -0.029733
C18   C     C_R   0.058810 0.635806 0.481449 -0.027818
C19   C     C_R   0.939796 0.634667 0.472546 -0.029732
C20   C     C_R   0.058802 0.364133 0.518690 -0.027824
C21   C     C_R   0.969502 0.499987 0.500069 -0.005474
C22   C     C_R   0.029092 0.499975 0.500071 -0.004746
C23   C     C_R   0.969793 0.231022 0.550466 -0.118220
C24   C     C_R   0.028847 0.769804 0.456348 -0.121362
C25   C     C_R   0.969809 0.768951 0.449674 -0.118244
C26   C     C_R   0.028830 0.230147 0.543794 -0.121377
C27   C     C_1   0.500051 0.065204 0.500138 -0.110380
C28   C     C_1   0.500051 0.934795 0.499862 -0.110381
C29   C     C_R   0.236249 0.546561 0.358179 0.266262
C30   C     C_R   0.762483 0.422784 0.375326 0.274167
C31   C     C_R   0.236260 0.453322 0.641859 0.266272
C32   C     C_R   0.762478 0.577252 0.624718 0.274172
N3    N     N_1   0.500000 0.500000 0.073640 0.029817
N4    N     N_1   0.500000 0.500000 0.926360 0.029821
O9    O     O_2   0.851234 0.757025 0.433360 -0.466942
O10   O     O_2   0.147248 0.236329 0.517285 -0.477029
O11   O     O_2   0.851218 0.242991 0.566743 -0.466930
O12   O     O_2   0.147264 0.763574 0.482827 -0.477030
N5    N     N_R   0.204916 0.586176 0.212219 0.271826
O13   O     O_R   0.162804 0.502587 0.164449 -0.308037
O14   O     O_R   0.212780 0.715386 0.141171 -0.231341
N6    N     N_R   0.793436 0.347923 0.246675 0.260734
O15   O     O_R   0.833018 0.418415 0.165836 -0.311412
O16   O     O_R   0.785520 0.205850 0.219341 -0.226750
N7    N     N_R   0.204938 0.413683 0.787832 0.271828
O17   O     O_R   0.162832 0.497267 0.835649 -0.308004
O18   O     O_R   0.212807 0.284460 0.858843 -0.231345
N8    N     N_R   0.793425 0.652113 0.753383 0.260736
O19   O     O_R   0.833001 0.581620 0.834243 -0.311404
O20   O     O_R   0.785508 0.794186 0.780714 -0.226743
Cl1   Cl    Cl    0.330233 0.623240 0.181348 -0.415205
Cl2   Cl    Cl    0.667343 0.314992 0.223307 -0.431629
Cl3   Cl    Cl    0.330256 0.376660 0.818638 -0.415232
Cl4   Cl    Cl    0.667331 0.685049 0.776689 -0.431644

loop_
_geom_bond_atom_site_label_1
_geom_bond_atom_site_label_2
_geom_bond_distance
_ccdc_geom_bond_type
C31   N7    1.437638 S    
N5    O13   1.300615 A    
O3    Zn1   1.951071 S    
C21   C22   1.403725 A    
O8    Zn2   2.009620 S    
Zn2   N3    1.973524 S    
C16   O12   1.349986 S    
N6    O16   1.301154 A    
C9    Cl3   1.774346 S    
C20   C26   1.403277 A    
C6    C12   1.465433 S    
H1    C23   1.082852 S    
C3    C31   1.402784 A    
C27   C28   1.164021 T    
C14   C20   1.395272 A    
C5    C11   1.477588 S    
N8    O19   1.301045 A    
C4    C32   1.405619 A    
C20   C22   1.407861 A    
O4    C1    1.260993 A    
C10   Cl4   1.773258 S    
C3    N2    1.430939 S    
C15   N1    1.368499 A    
O3    C2    1.260993 A    
N5    O14   1.301286 A    
C7    Cl1   1.774357 S    
C4    N1    1.428094 S    
C16   N2    1.369328 A    
C14   O10   1.349982 S    
O8    C5    1.283449 A    
O6    Zn2   2.009612 S    
C17   C23   1.403572 A    
C15   O11   1.349984 S    
O7    C6    1.280041 A    
C18   C24   1.403274 A    
C24   C25   1.391775 A    
C8    C30   1.398741 A    
H4    C26   1.082305 S    
C18   C22   1.407859 A    
C23   C26   1.391778 A    
C7    C29   1.400046 A    
C9    C11   1.421857 A    
C4    C30   1.405621 A    
N7    O17   1.300611 A    
C19   C25   1.403569 A    
Zn1   N4    1.973524 S    
C1    C27   1.363792 S    
C9    C31   1.400034 A    
C16   C18   1.395264 A    
C2    C28   1.363792 S    
C10   C32   1.398741 A    
C15   C17   1.395250 A    
C14   N2    1.369330 A    
H2    C24   1.082304 S    
O1    C1    1.261575 A    
C29   N5    1.437634 S    
C17   C21   1.408378 A    
N3    N4    1.193285 T    
C8    C12   1.415258 A    
O6    C6    1.280044 A    
N7    O18   1.301278 A    
O2    Zn2   1.952420 S    
O7    Zn1   2.009617 S    
O5    Zn1   2.009615 S    
C7    C11   1.421852 A    
N8    O20   1.301155 A    
C13   C19   1.395249 A    
C32   N8    1.437783 S    
C19   C21   1.408379 A    
N6    O15   1.301047 A    
C8    Cl2   1.773255 S    
O1    Zn1   1.952421 S    
C13   N1    1.368499 A    
O5    C5    1.283443 A    
O2    C2    1.261575 A    
C30   N6    1.437783 S    
C10   C12   1.415262 A    
H3    C25   1.082850 S    
C13   O9    1.349985 S    
C3    C29   1.402799 A    
O4    Zn2   1.951072 S    
