data_mof_unit_19048.cif
_audit_creation_date              2012-12-10T17:05:10-0500
_audit_creation_method            fapswitch 2.2
_symmetry_space_group_name_H-M    P1
_symmetry_Int_Tables_number       1
_space_group_crystal_system       triclinic
_cell_length_a                    30.204969
_cell_length_b                    29.876219
_cell_length_c                    21.730251
_cell_angle_alpha                 90.326414
_cell_angle_beta                  133.815879
_cell_angle_gamma                 89.62584
_cell_volume                      14149.3479848

loop_
_atom_site_label
_atom_site_type_symbol
_atom_type_description
_atom_site_fract_x
_atom_site_fract_y
_atom_site_fract_z
_atom_type_partial_charge
C1    C     C_R   0.307984 0.810940 0.118916 0.855873
C2    C     C_R   0.487815 0.677157 0.020085 0.055384
C3    C     C_R   0.288244 0.180658 0.235685 0.126270
C4    C     C_R   0.233920 0.664243 0.728458 0.096004
C5    C     C_R   0.795630 0.691730 0.303913 0.104715
C6    C     C_R   0.734002 0.164105 0.728767 0.102000
C7    C     C_R   0.299234 0.194153 0.307355 0.103832
C8    C     C_R   0.181253 0.655386 0.643097 0.216832
C9    C     C_R   0.847252 0.675997 0.384797 0.209090
C10   C     C_R   0.680828 0.156295 0.642989 0.216834
C11   C     C_R   0.350706 0.177871 0.387736 0.210080
C12   C     C_R   0.128835 0.637919 0.621699 0.089091
C13   C     C_R   0.028896 0.173811 0.010811 0.051939
C14   C     C_R   0.885841 0.644004 0.393683 0.059999
C15   C     C_R   0.628584 0.138453 0.621526 0.082267
C16   C     C_R   0.387680 0.144777 0.395332 0.056153
C17   C     C_R   0.130255 0.627709 0.687353 -0.060803
C18   C     C_R   0.877207 0.631749 0.321447 -0.054910
C19   C     C_R   0.629849 0.127968 0.686953 -0.058773
C20   C     C_R   0.378157 0.132199 0.322448 -0.055988
C21   C     C_R   0.176677 0.647482 0.767479 0.012699
C22   C     C_R   0.832602 0.655617 0.244806 0.021542
C23   C     C_R   0.676388 0.147454 0.767251 0.012365
C24   C     C_R   0.991163 0.174043 0.026704 0.052727
C25   C     C_R   0.333690 0.156340 0.246098 0.022770
C26   C     C_R   0.165975 0.652917 0.820951 -0.135043
C27   C     C_R   0.834357 0.653670 0.181122 -0.141382
C28   C     C_R   0.665768 0.152947 0.820786 -0.135142
C29   C     C_R   0.334390 0.153756 0.181376 -0.141953
C30   C     C_R   0.122968 0.626481 0.810292 0.014453
C31   C     C_R   0.867591 0.620169 0.182172 0.014772
C32   C     C_R   0.622441 0.126783 0.809772 0.014903
C33   C     C_R   0.366779 0.119764 0.181699 0.015012
C34   C     C_R   0.085687 0.598166 0.740567 0.113952
C35   C     C_R   0.468360 0.839958 0.983314 0.171324
C36   C     C_R   0.903095 0.590768 0.249952 0.105276
C37   C     C_R   0.585106 0.098511 0.739960 0.114076
C38   C     C_R   0.402256 0.090348 0.249441 0.105288
C39   C     C_R   0.163216 0.750116 0.000014 0.883944
C40   C     C_R   0.836685 0.749900 0.999713 0.890186
C41   C     C_R   0.663202 0.250045 0.999989 0.882164
C42   C     C_R   0.336611 0.249925 0.999615 0.890464
C43   C     C_R   0.088591 0.598656 0.678273 -0.136388
C44   C     C_R   0.909112 0.596679 0.319890 -0.132202
C45   C     C_R   0.588228 0.098862 0.677846 -0.135659
C46   C     C_R   0.522898 0.840650 0.001468 0.173443
C47   C     C_R   0.409118 0.096662 0.320016 -0.130441
C48   C     C_R   0.941051 0.561398 0.382511 0.892113
C49   C     C_R   0.057817 0.562529 0.615879 0.883522
C50   C     C_R   0.441095 0.061426 0.382621 0.893051
C51   C     C_R   0.557771 0.062555 0.615823 0.882961
C52   C     C_R   0.443475 0.936153 0.387077 0.903004
C53   C     C_R   0.557102 0.936345 0.613399 0.903059
C54   C     C_R   0.943475 0.436193 0.386824 0.900817
C55   C     C_R   0.057015 0.436290 0.613300 0.902111
C56   C     C_R   0.590415 0.798641 0.993695 0.054533
C57   C     C_R   0.990743 0.338001 0.027628 0.183180
C58   C     C_R   0.406679 0.798887 0.001540 0.063851
C59   C     C_R   0.096598 0.296529 0.007183 0.053320
C60   C     C_R   0.906417 0.294795 0.996709 0.033454
C61   C     C_R   0.608428 0.756747 0.985985 -0.192044
C62   C     C_R   0.392829 0.757623 0.016811 -0.198149
C63   C     C_R   0.110388 0.255474 0.990568 -0.191177
C64   C     C_R   0.892209 0.254615 0.014176 -0.203256
C65   C     C_R   0.577085 0.717466 0.972360 0.051125
C66   C     C_R   0.429736 0.719669 0.040609 0.042850
C67   C     C_R   0.079975 0.215805 0.978313 0.049420
C68   C     C_R   0.044741 0.336117 0.043461 0.173876
C69   C     C_R   0.930974 0.216817 0.043816 0.048697
C70   C     C_R   0.541786 0.717387 0.991758 0.103799
C71   C     C_R   0.465828 0.718380 0.022499 0.105156
C72   C     C_R   0.046894 0.214822 0.001482 0.105963
C73   C     C_R   0.969919 0.215236 0.030525 0.108070
C74   C     C_R   0.522498 0.758784 0.998628 -0.090780
C75   C     C_R   0.479731 0.758996 0.005901 -0.090250
C76   C     C_R   0.031445 0.255768 0.015676 -0.091402
C77   C     C_R   0.987975 0.256033 0.021172 -0.093738
C78   C     C_3   0.809596 0.741758 0.842031 -0.867684
C79   C     C_R   0.251200 0.871867 0.160224 0.030707
C80   C     C_3   0.201793 0.764746 0.163362 -0.842539
C81   C     C_3   0.309447 0.241960 0.841906 -0.867143
C82   C     C_3   0.701961 0.261741 0.164181 -0.839468
C83   C     C_3   0.959423 0.726894 0.157753 -0.884813
C84   C     C_3   0.034040 0.746834 0.842204 -0.881800
C85   C     C_3   0.458843 0.225690 0.157058 -0.885471
C86   C     C_3   0.534023 0.247548 0.842065 -0.881269
C87   C     C_3   0.162014 0.719053 0.237889 -0.878121
C88   C     C_3   0.849980 0.814517 0.794118 -0.895267
C89   C     C_3   0.660526 0.215065 0.235668 -0.879036
C90   C     C_R   0.751689 0.880004 0.852557 0.035065
C91   C     C_3   0.350246 0.314649 0.794629 -0.894853
C92   C     C_3   0.292392 0.660097 0.883187 -0.909187
C93   C     C_3   0.721826 0.682731 0.146929 -0.895104
C94   C     C_3   0.792320 0.157682 0.883285 -0.916105
C95   C     C_3   0.223747 0.184840 0.150446 -0.892667
C96   C     C_3   0.182083 0.664561 0.575488 -0.840701
C97   C     C_3   0.860353 0.691107 0.462817 -0.856584
C98   C     C_3   0.678775 0.166267 0.572828 -0.844549
C99   C     C_3   0.365151 0.193448 0.466563 -0.855405
C100  C     C_3   0.427564 0.881244 0.942196 -0.875757
C101  C     C_R   0.752194 0.369054 0.165422 0.029933
C102  C     C_3   0.557291 0.884665 0.030898 -0.875839
C103  C     C_3   0.968263 0.382771 0.031115 -0.874074
C104  C     C_3   0.091378 0.373609 0.092984 -0.878636
C105  C     C_3   0.250669 0.888656 0.334761 -0.937029
C106  C     C_3   0.761578 0.916318 0.693449 -0.940551
C107  C     C_3   0.757350 0.384124 0.345611 -0.937934
C108  C     C_3   0.260366 0.415686 0.691434 -0.940473
C109  C     C_3   0.381454 0.877036 0.433414 -0.826265
C110  C     C_3   0.635187 0.882731 0.583268 -0.827262
C111  C     C_3   0.887432 0.375081 0.438803 -0.828633
C112  C     C_R   0.692730 0.810916 0.881226 0.862695
C113  C     C_R   0.251372 0.379592 0.851515 0.034826
C114  C     C_3   0.133961 0.382168 0.581956 -0.827218
C115  C     C_R   0.230178 0.881537 0.199677 0.126064
C116  C     C_R   0.774504 0.899209 0.820290 0.117455
C117  C     C_R   0.733000 0.377819 0.207489 0.127131
C118  C     C_R   0.273828 0.398868 0.818806 0.117311
C119  C     C_R   0.272321 0.884209 0.289578 0.151093
C120  C     C_R   0.736624 0.902035 0.731257 0.155969
C121  C     C_R   0.776782 0.380586 0.297508 0.152527
C122  C     C_R   0.235723 0.401481 0.729694 0.156461
C123  C     C_R   0.335935 0.883610 0.337626 0.207105
C124  C     C_R   0.807565 0.310976 0.118693 0.862045
C125  C     C_R   0.673573 0.892533 0.676903 0.213735
C126  C     C_R   0.839907 0.381113 0.342841 0.205750
C127  C     C_R   0.172725 0.391896 0.675718 0.213523
C128  C     C_R   0.355767 0.882788 0.294329 0.000722
C129  C     C_R   0.648850 0.886563 0.712985 -0.007494
C130  C     C_R   0.857552 0.381231 0.296787 0.001158
C131  C     C_R   0.148320 0.386052 0.712257 -0.007357
C132  C     C_R   0.315155 0.866888 0.210374 -0.075507
C133  C     C_R   0.687747 0.870290 0.796496 -0.077757
C134  C     C_R   0.815795 0.365192 0.212940 -0.077007
C135  C     C_R   0.192573 0.310952 0.881267 0.863786
C136  C     C_R   0.187471 0.369887 0.795875 -0.077675
C137  C     C_R   0.341334 0.845581 0.183214 -0.124556
C138  C     C_R   0.659541 0.845615 0.817370 -0.124836
C139  C     C_R   0.840307 0.346016 0.182017 -0.124078
C140  C     C_R   0.159539 0.345803 0.817711 -0.125212
C141  C     C_R   0.339969 0.753492 0.007113 0.870935
C142  C     C_R   0.660235 0.753361 0.993422 0.872598
C143  C     C_R   0.839237 0.252130 0.004840 0.878073
C144  C     C_R   0.160519 0.253018 0.994275 0.872165
C145  C     C_R   0.405081 0.848434 0.233274 0.044005
C146  C     C_R   0.545922 0.799838 0.998492 0.060926
C147  C     C_R   0.595107 0.846695 0.763194 0.045625
C148  C     C_R   0.902459 0.352069 0.226205 0.042815
C149  C     C_R   0.095360 0.347779 0.765010 0.046715
C150  C     C_R   0.440650 0.877072 0.303286 0.101820
C151  C     C_R   0.560034 0.875798 0.694134 0.099354
C152  C     C_R   0.938811 0.379861 0.297494 0.104568
C153  C     C_R   0.060157 0.376477 0.695340 0.102253
C154  C     C_R   0.414547 0.896869 0.330833 -0.164317
C155  C     C_R   0.587630 0.897677 0.670907 -0.161415
C156  C     C_R   0.914822 0.397043 0.329989 -0.165109
C157  C     C_R   0.450914 0.799687 0.996288 0.057078
C158  C     C_R   0.087356 0.397579 0.670809 -0.162614
C159  C     C_R   0.872338 0.755298 0.926679 0.078846
C160  C     C_R   0.135329 0.754352 0.083594 0.103967
C161  C     C_R   0.372272 0.255264 0.926675 0.078204
C162  C     C_R   0.635213 0.252787 0.083575 0.105204
C163  C     C_R   0.886258 0.749068 0.002562 -0.091152
C164  C     C_R   0.116982 0.753050 0.003680 -0.097446
C165  C     C_R   0.386141 0.248893 0.002478 -0.090255
C166  C     C_R   0.616969 0.252696 0.003675 -0.097754
C167  C     C_R   0.947525 0.745718 0.082389 0.119819
C168  C     C_R   0.057949 0.296489 0.022157 0.051964
C169  C     C_R   0.054940 0.758009 0.927307 0.106447
C170  C     C_R   0.447312 0.244869 0.082172 0.119829
C171  C     C_R   0.555006 0.258133 0.927415 0.106705
C172  C     C_R   0.996099 0.752397 0.086666 0.028353
C173  C     C_R   0.012003 0.768838 0.932025 0.036089
C174  C     C_R   0.495952 0.251168 0.086499 0.028533
C175  C     C_R   0.512136 0.268720 0.932339 0.036256
C176  C     C_R   0.981323 0.760799 0.009842 -0.075412
C177  C     C_R   0.027958 0.761180 0.009745 -0.074789
C178  C     C_R   0.481276 0.260055 0.009847 -0.075484
C179  C     C_R   0.961126 0.297049 0.014543 0.077503
C180  C     C_R   0.527912 0.260344 0.009754 -0.074005
C181  C     C_R   0.919655 0.767810 0.932023 0.072679
C182  C     C_R   0.089713 0.751959 0.085885 0.053333
C183  C     C_R   0.419699 0.267603 0.932182 0.072722
C184  C     C_R   0.589452 0.250263 0.085544 0.053825
C185  C     C_R   0.059063 0.749464 0.164048 0.091000
C186  C     C_R   0.953839 0.787632 0.862252 0.091675
C187  C     C_R   0.558844 0.247292 0.163672 0.091356
C188  C     C_R   0.454193 0.287935 0.862993 0.092015
C189  C     C_R   0.193943 0.689046 0.881835 0.913701
C190  C     C_R   0.525533 0.676658 0.004417 0.053539
C191  C     C_R   0.807481 0.689083 0.118721 0.901764
C192  C     C_R   0.693996 0.189044 0.881815 0.912419
C193  C     C_R   0.307530 0.189088 0.118771 0.899619
C194  C     C_R   0.103666 0.742660 0.161757 0.195207
C195  C     C_R   0.907926 0.787980 0.862976 0.184023
C196  C     C_R   0.603130 0.240083 0.160937 0.194299
C197  C     C_R   0.408165 0.288083 0.863477 0.184236
C198  C     C_R   0.232365 0.659545 0.791509 0.118371
C199  C     C_R   0.786001 0.678938 0.233029 0.126177
C200  C     C_R   0.732340 0.158853 0.791655 0.117542
H1    H     H_    0.643625 0.836447 0.983658 0.203430
H2    H     H_    0.526814 0.853378 0.371958 0.193379
H3    H     H_    0.412804 0.206435 0.514285 0.244255
H4    H     H_    0.053811 0.609741 0.507915 0.210919
H5    H     H_    0.042625 0.662288 0.529632 0.190064
H6    H     H_    0.918458 0.602563 0.490988 0.231766
H7    H     H_    0.971592 0.616662 0.487878 0.154951
H8    H     H_    0.554405 0.109389 0.507983 0.213750
H9    H     H_    0.542233 0.162183 0.527642 0.187787
H10   H     H_    0.418414 0.102305 0.490492 0.232634
H11   H     H_    0.472553 0.116236 0.489054 0.155064
H12   H     H_    0.559531 0.687679 0.872454 0.204712
H13   H     H_    0.491015 0.892726 0.685800 0.202561
H14   H     H_    0.619006 0.663760 0.970112 0.219285
H15   H     H_    0.447889 0.697001 0.144846 0.203230
H16   H     H_    0.395231 0.665417 0.053823 0.227527
H17   H     H_    0.059694 0.187275 0.875668 0.204038
H18   H     H_    0.120621 0.162962 0.971862 0.218074
H19   H     H_    0.945467 0.194033 0.145037 0.205340
H20   H     H_    0.892970 0.163389 0.052695 0.225177
H21   H     H_    0.072461 0.547502 0.788294 0.194974
H22   H     H_    0.015932 0.586787 0.733214 0.198371
H23   H     H_    0.898589 0.534476 0.192910 0.192259
H24   H     H_    0.474551 0.850149 0.620869 0.194158
H25   H     H_    0.961801 0.566341 0.241741 0.202683
H26   H     H_    0.571447 0.048010 0.787430 0.195046
H27   H     H_    0.515120 0.087445 0.732227 0.198323
H28   H     H_    0.396438 0.033731 0.191938 0.192276
H29   H     H_    0.459944 0.065049 0.239946 0.202960
H30   H     H_    0.515592 0.613209 0.961292 0.188753
H31   H     H_    0.577140 0.620612 0.068001 0.175396
H32   H     H_    0.506204 0.617175 0.078279 0.189518
H33   H     H_    0.444169 0.617165 0.970652 0.171462
H34   H     H_    0.015383 0.111676 0.961227 0.188561
H35   H     H_    0.999533 0.404061 0.293952 0.202032
H36   H     H_    0.077495 0.116051 0.068366 0.176371
H37   H     H_    0.007902 0.113344 0.081728 0.188641
H38   H     H_    0.945799 0.114876 0.974247 0.172028
H39   H     H_    0.435901 0.900893 0.907810 0.237357
H40   H     H_    0.378432 0.871685 0.892730 0.260329
H41   H     H_    0.436563 0.903409 0.990958 0.240935
H42   H     H_    0.545189 0.907059 0.058411 0.236969
H43   H     H_    0.607493 0.879034 0.083369 0.259393
H44   H     H_    0.545947 0.902554 0.976835 0.241611
H45   H     H_    0.998362 0.411396 0.049363 0.236036
H46   H     H_    0.024785 0.359075 0.358371 0.193701
H47   H     H_    0.923690 0.391589 0.966819 0.254142
H48   H     H_    0.963953 0.381260 0.077838 0.244404
H49   H     H_    0.095438 0.385393 0.145277 0.234700
H50   H     H_    0.138312 0.361974 0.126221 0.260865
H51   H     H_    0.077846 0.401952 0.049990 0.243444
H52   H     H_    0.431619 0.788982 0.221483 0.207934
H53   H     H_    0.411148 0.828563 0.150253 0.162805
H54   H     H_    0.567018 0.785793 0.765822 0.212057
H55   H     H_    0.586764 0.822037 0.841512 0.164263
H56   H     H_    0.926786 0.296860 0.200021 0.202377
H57   H     H_    0.992467 0.395174 0.688867 0.202719
H58   H     H_    0.902923 0.341191 0.134663 0.173226
H59   H     H_    0.069331 0.288118 0.776241 0.211270
H60   H     H_    0.086393 0.328501 0.845165 0.163615
H61   H     H_    0.225396 0.889861 0.048715 0.208082
H62   H     H_    0.194412 0.840723 0.045494 0.215638
H63   H     H_    0.773308 0.890908 0.963452 0.214086
H64   H     H_    0.806368 0.843836 0.961371 0.218242
H65   H     H_    0.722825 0.388658 0.052415 0.205771
H66   H     H_    0.695861 0.337901 0.050756 0.210811
H67   H     H_    0.273578 0.390668 0.962776 0.214000
H68   H     H_    0.974562 0.351653 0.624696 0.195126
H69   H     H_    0.306048 0.343376 0.960234 0.217299
H70   H     H_    0.156882 0.917767 0.158894 0.190656
H71   H     H_    0.149999 0.861220 0.160987 0.190192
H72   H     H_    0.836620 0.948714 0.867116 0.190984
H73   H     H_    0.862458 0.896547 0.873047 0.190129
H74   H     H_    0.660129 0.413075 0.170184 0.190530
H75   H     H_    0.654511 0.356419 0.172797 0.189597
H76   H     H_    0.335189 0.448832 0.864661 0.190930
H77   H     H_    0.361804 0.396864 0.871479 0.190017
H78   H     H_    0.200236 0.891071 0.291043 0.235050
H79   H     H_    0.798373 0.707517 0.847082 0.256460
H80   H     H_    0.265734 0.859087 0.376059 0.247749
H81   H     H_    0.270329 0.919388 0.374653 0.247937
H82   H     H_    0.810845 0.925084 0.741850 0.233165
H83   H     H_    0.755867 0.888859 0.653847 0.251986
H84   H     H_    0.736189 0.946325 0.652895 0.249643
H85   H     H_    0.707059 0.385606 0.303837 0.234940
H86   H     H_    0.774323 0.354612 0.387717 0.247756
H87   H     H_    0.776726 0.415028 0.385019 0.247845
H88   H     H_    0.309620 0.424501 0.739586 0.233052
H89   H     H_    0.254564 0.388153 0.651871 0.251969
H90   H     H_    0.773763 0.765627 0.823666 0.240716
H91   H     H_    0.234849 0.445637 0.650767 0.249527
H92   H     H_    0.429038 0.872138 0.462236 0.220510
H93   H     H_    0.380438 0.906118 0.464442 0.260549
H94   H     H_    0.369692 0.846346 0.448033 0.217567
H95   H     H_    0.587815 0.872418 0.549779 0.223230
H96   H     H_    0.632825 0.912405 0.550563 0.257920
H97   H     H_    0.656127 0.854525 0.577302 0.217481
H98   H     H_    0.934557 0.371224 0.465495 0.218114
H99   H     H_    0.886435 0.403934 0.470233 0.262989
H100  H     H_    0.877676 0.344003 0.455320 0.218318
H101  H     H_    0.808151 0.738834 0.789881 0.243534
H102  H     H_    0.086605 0.371992 0.548773 0.221946
H103  H     H_    0.131549 0.411832 0.549189 0.257673
H104  H     H_    0.154636 0.353908 0.575635 0.218129
H105  H     H_    0.571191 0.852535 0.923159 0.179652
H106  H     H_    0.224078 0.784618 0.148433 0.226895
H107  H     H_    0.204850 0.786151 0.207978 0.238185
H108  H     H_    0.229002 0.733591 0.194802 0.250422
H109  H     H_    0.297999 0.207744 0.846674 0.256689
H110  H     H_    0.273753 0.265927 0.823709 0.240563
H111  H     H_    0.308013 0.239069 0.789764 0.243575
H112  H     H_    0.725072 0.281895 0.150908 0.228047
H113  H     H_    0.705627 0.282251 0.210154 0.237392
H114  H     H_    0.728123 0.230027 0.193564 0.249891
H115  H     H_    0.990250 0.697366 0.184092 0.228473
H116  H     H_    0.352172 0.837392 0.009280 0.203705
H117  H     H_    0.977728 0.752983 0.206687 0.243796
H118  H     H_    0.917983 0.713784 0.140645 0.229464
H119  H     H_    0.989012 0.729606 0.799633 0.230807
H120  H     H_    0.032130 0.777372 0.811663 0.247952
H121  H     H_    0.065442 0.723039 0.849382 0.229998
H122  H     H_    0.488935 0.195778 0.182451 0.228635
H123  H     H_    0.477820 0.251435 0.206769 0.243357
H124  H     H_    0.417136 0.213016 0.139692 0.229402
H125  H     H_    0.488788 0.230608 0.799021 0.230581
H126  H     H_    0.532513 0.278292 0.812304 0.247932
H127  H     H_    0.421071 0.857203 0.060097 0.177778
H128  H     H_    0.565135 0.223688 0.848689 0.230597
H129  H     H_    0.078527 0.731233 0.272185 0.194569
H130  H     H_    0.058288 0.787147 0.242494 0.196058
H131  H     H_    0.929364 0.790955 0.747688 0.195466
H132  H     H_    0.981914 0.830840 0.821804 0.200996
H133  H     H_    0.578091 0.228242 0.271332 0.194826
H134  H     H_    0.559292 0.284499 0.243719 0.195483
H135  H     H_    0.429808 0.292206 0.748557 0.195448
H136  H     H_    0.482853 0.331543 0.823819 0.201021
H137  H     H_    0.178029 0.695298 0.217328 0.239385
H138  H     H_    0.140834 0.335849 0.983759 0.196306
H139  H     H_    0.198108 0.743482 0.285314 0.245917
H140  H     H_    0.153561 0.697862 0.270718 0.237543
H141  H     H_    0.822540 0.821065 0.809620 0.254020
H142  H     H_    0.861992 0.847886 0.787212 0.253006
H143  H     H_    0.821636 0.796878 0.731940 0.241210
H144  H     H_    0.675990 0.191667 0.213904 0.239618
H145  H     H_    0.697355 0.238587 0.284888 0.246096
H146  H     H_    0.651007 0.193312 0.266670 0.237437
H147  H     H_    0.322803 0.321190 0.810118 0.254273
H148  H     H_    0.362233 0.348017 0.787695 0.252868
H149  H     H_    0.073850 0.354993 0.944689 0.183024
H150  H     H_    0.321917 0.297030 0.732436 0.240970
H151  H     H_    0.111324 0.657914 0.881692 0.180225
H152  H     H_    0.160979 0.614172 0.930299 0.211161
H153  H     H_    0.877456 0.643814 0.104272 0.187175
H154  H     H_    0.819590 0.606252 0.057987 0.213870
H155  H     H_    0.610800 0.158446 0.880994 0.180394
H156  H     H_    0.660133 0.114528 0.929622 0.211049
H157  H     H_    0.376246 0.142789 0.103047 0.187901
H158  H     H_    0.317925 0.105692 0.057264 0.214382
H159  H     H_    0.325092 0.636370 0.892675 0.235576
H160  H     H_    0.824315 0.323713 0.897492 0.214879
H161  H     H_    0.311448 0.694049 0.899044 0.241135
H162  H     H_    0.288756 0.648864 0.927833 0.251431
H163  H     H_    0.690200 0.663601 0.146460 0.233783
H164  H     H_    0.707917 0.718158 0.134873 0.248544
H165  H     H_    0.716385 0.668284 0.095278 0.238039
H166  H     H_    0.823595 0.132890 0.891522 0.237333
H167  H     H_    0.813359 0.190952 0.900786 0.237360
H168  H     H_    0.787981 0.146865 0.927388 0.251314
H169  H     H_    0.192359 0.166242 0.151089 0.234241
H170  H     H_    0.210617 0.220415 0.139000 0.249759
H171  H     H_    0.856854 0.342017 0.996166 0.196544
H172  H     H_    0.217182 0.170177 0.097998 0.236453
H173  H     H_    0.323415 0.655968 0.789688 0.190807
H174  H     H_    0.301721 0.709988 0.781874 0.200627
H175  H     H_    0.710031 0.703887 0.255948 0.195462
H176  H     H_    0.747188 0.749775 0.264493 0.198094
H177  H     H_    0.823362 0.154538 0.790249 0.193123
H178  H     H_    0.803201 0.208820 0.784365 0.196955
H179  H     H_    0.214546 0.208232 0.261208 0.196365
H180  H     H_    0.252782 0.253099 0.269135 0.197452
H181  H     H_    0.220194 0.645542 0.590239 0.237099
H182  H     H_    0.506219 0.896684 0.306348 0.201734
H183  H     H_    0.139180 0.654497 0.510539 0.247738
H184  H     H_    0.189205 0.700869 0.574514 0.240906
H185  H     H_    0.828454 0.717432 0.448960 0.252112
H186  H     H_    0.856937 0.662147 0.491130 0.231166
H187  H     H_    0.907423 0.705103 0.510827 0.244934
H188  H     H_    0.722771 0.179101 0.596898 0.248589
H189  H     H_    0.667346 0.135238 0.535957 0.237075
H190  H     H_    0.643018 0.191936 0.529195 0.242574
H191  H     H_    0.334530 0.220651 0.453684 0.251716
H192  H     H_    0.360925 0.164952 0.494786 0.232068
N1    N     N_3   0.609250 0.839923 0.983373 -0.458104
N2    N     N_3   0.943045 0.812407 0.796289 -0.465530
N3    N     N_3   0.581144 0.256316 0.246185 -0.462901
N4    N     N_3   0.443760 0.313252 0.797770 -0.465999
N5    N     N_3   0.119113 0.625635 0.872591 -0.471737
N6    N     N_3   0.864579 0.614274 0.113627 -0.473549
N7    N     N_3   0.618388 0.126095 0.871871 -0.471607
N8    N     N_3   0.363113 0.113488 0.112624 -0.473488
N9    N     N_3   0.288259 0.679383 0.749762 -0.458627
N10   N     N_3   0.752389 0.720028 0.294084 -0.467360
N11   N     N_3   0.788938 0.178536 0.751112 -0.466531
N12   N     N_3   0.383752 0.840684 0.004248 -0.454178
N13   N     N_3   0.257378 0.223588 0.298791 -0.467368
N14   N     N_3   0.072366 0.641043 0.534195 -0.475883
N15   N     N_3   0.935100 0.627887 0.478640 -0.450506
N16   N     N_3   0.572514 0.140854 0.533570 -0.471130
N17   N     N_3   0.436040 0.127593 0.479638 -0.450517
N18   N     N_3   0.575820 0.678658 0.931597 -0.428214
N19   N     N_3   0.435596 0.683927 0.090034 -0.429146
N20   N     N_3   0.077432 0.177588 0.935353 -0.427903
N21   N     N_3   0.934066 0.181068 0.090785 -0.428545
N22   N     N_3   0.045811 0.568009 0.734307 -0.416237
N23   N     N_3   0.114104 0.338843 0.997439 -0.453530
N24   N     N_3   0.932327 0.553756 0.247026 -0.421547
N25   N     N_3   0.544984 0.068529 0.733466 -0.416020
N26   N     N_3   0.430664 0.052913 0.245901 -0.421965
N27   N     N_3   0.551097 0.634911 0.007721 -0.448503
N28   N     N_3   0.467966 0.635471 0.026951 -0.451137
N29   N     N_3   0.052128 0.132006 0.009604 -0.446383
N30   N     N_3   0.970117 0.132388 0.031466 -0.448837
N31   N     N_3   0.434484 0.822977 0.213682 -0.478482
N32   N     N_3   0.564413 0.819120 0.777883 -0.477755
N33   N     N_3   0.928846 0.331645 0.197730 -0.478080
N34   N     N_3   0.865298 0.332393 0.958835 -0.464047
N35   N     N_3   0.065187 0.322153 0.782710 -0.479503
N36   N     N_3   0.207042 0.873240 0.068995 -0.425010
N37   N     N_3   0.793354 0.877098 0.943263 -0.424010
N38   N     N_3   0.706481 0.370414 0.074137 -0.424174
N39   N     N_3   0.293321 0.376680 0.942258 -0.423864
N40   N     N_3   0.165327 0.886573 0.146634 -0.432454
N41   N     N_3   0.836643 0.915018 0.879844 -0.433338
N42   N     N_3   0.668419 0.382139 0.156978 -0.431202
N43   N     N_3   0.335731 0.415158 0.877992 -0.433086
N44   N     N_3   0.503947 0.884192 0.348955 -0.433674
N45   N     N_3   0.495835 0.881355 0.645091 -0.439235
N46   N     N_3   0.000653 0.389301 0.338538 -0.429207
N47   N     N_3   0.996288 0.382773 0.647608 -0.439003
N48   N     N_3   0.080956 0.759176 0.246126 -0.462409
O1    O     O_R   0.321630 0.769940 0.143350 -0.620820
O2    O     O_R   0.508520 0.954180 0.591620 -0.597376
O3    O     O_R   0.991480 0.454180 0.408380 -0.595381
O4    O     O_R   0.008520 0.454180 0.591620 -0.597632
O5    O     O_R   0.416890 0.954190 0.408420 -0.617771
O6    O     O_R   0.583110 0.954190 0.591580 -0.618675
O7    O     O_R   0.916890 0.454190 0.408420 -0.616705
O8    O     O_R   0.083110 0.454190 0.591580 -0.618441
O9    O     O_R   0.269950 0.821660 0.039930 -0.649512
O10   O     O_R   0.730050 0.821660 0.960070 -0.651892
O11   O     O_R   0.769950 0.321660 0.039930 -0.644420
O12   O     O_R   0.678370 0.769940 0.856650 -0.622420
O13   O     O_R   0.230050 0.321660 0.960070 -0.650408
O14   O     O_R   0.341900 0.724110 0.051720 -0.641125
O15   O     O_R   0.658100 0.724110 0.948280 -0.638766
O16   O     O_R   0.841900 0.224110 0.051720 -0.638639
O17   O     O_R   0.158100 0.224110 0.948280 -0.639193
O18   O     O_R   0.290220 0.775830 0.948290 -0.609656
O19   O     O_R   0.709780 0.775830 0.051710 -0.614601
O20   O     O_R   0.790220 0.275830 0.948290 -0.625995
O21   O     O_R   0.209780 0.275830 0.051710 -0.611764
O22   O     O_R   0.230030 0.678320 0.960120 -0.638956
O23   O     O_R   0.821630 0.269940 0.143350 -0.617643
O24   O     O_R   0.769970 0.678320 0.039880 -0.638245
O25   O     O_R   0.730030 0.178320 0.960120 -0.638838
O26   O     O_R   0.269970 0.178320 0.039880 -0.638079
O27   O     O_R   0.178350 0.730040 0.856700 -0.605812
O28   O     O_R   0.821650 0.730040 0.143300 -0.602186
O29   O     O_R   0.678350 0.230040 0.856700 -0.607603
O30   O     O_R   0.321650 0.230040 0.143300 -0.602608
O31   O     O_R   0.209770 0.724150 0.051760 -0.615410
O32   O     O_R   0.790230 0.724150 0.948240 -0.622875
O33   O     O_R   0.709770 0.224150 0.051760 -0.616312
O34   O     O_R   0.178370 0.269940 0.856650 -0.621424
O35   O     O_R   0.290230 0.224150 0.948240 -0.622892
O36   O     O_R   0.158090 0.775870 0.948330 -0.625793
O37   O     O_R   0.841910 0.775870 0.051670 -0.625524
O38   O     O_R   0.658090 0.275870 0.948330 -0.624489
O39   O     O_R   0.341910 0.275870 0.051670 -0.625580
O40   O     O_R   0.991500 0.545800 0.408400 -0.611746
O41   O     O_R   0.008500 0.545800 0.591600 -0.606966
O42   O     O_R   0.491500 0.045800 0.408400 -0.612576
O43   O     O_R   0.508500 0.045800 0.591600 -0.606714
O44   O     O_R   0.916920 0.545810 0.408440 -0.632583
O45   O     O_R   0.083080 0.545810 0.591560 -0.625588
O46   O     O_R   0.416920 0.045810 0.408440 -0.632911
O47   O     O_R   0.583080 0.045810 0.591560 -0.626704
O48   O     O_R   0.491480 0.954180 0.408380 -0.595256
Zn1   Zn    Zn3+2 0.284500 0.715460 0.069080 0.921143
Zn2   Zn    Zn3+2 0.450210 0.999990 0.500010 0.934140
Zn3   Zn    Zn3+2 0.049790 0.499990 0.499990 0.944467
Zn4   Zn    Zn3+2 0.950210 0.499990 0.500010 0.934381
Zn5   Zn    Zn3+2 0.715500 0.715460 0.930920 0.918871
Zn6   Zn    Zn3+2 0.784500 0.215460 0.069080 0.923873
Zn7   Zn    Zn3+2 0.215500 0.215460 0.930920 0.920682
Zn8   Zn    Zn3+2 0.215490 0.784530 0.930970 0.942955
Zn9   Zn    Zn3+2 0.784510 0.784530 0.069030 0.943482
Zn10  Zn    Zn3+2 0.715490 0.284530 0.930970 0.932275
Zn11  Zn    Zn3+2 0.284510 0.284530 0.069030 0.944035
Zn12  Zn    Zn3+2 0.549790 0.999990 0.499990 0.942775

loop_
_geom_bond_atom_site_label_1
_geom_bond_atom_site_label_2
_ccdc_geom_bond_type
C24   N30   S    
C21   C26   A    
H179  N13   S    
O6    Zn12  S    
C136  C140  A    
C40   O32   A    
H22   N22   S    
C55   O4    A    
C112  O10   A    
C183  C197  A    
C27   C191  S    
C86   H126  S    
C54   C156  S    
C108  H91   S    
C141  O14   A    
C49   O41   A    
C177  C182  A    
C29   C33   A    
C192  O29   A    
C114  H102  S    
C36   N24   S    
C117  N42   S    
C100  H39   S    
H173  N9    S    
C160  C182  A    
C149  C153  A    
C175  C188  A    
O13   Zn11  S    
C152  C156  A    
H20   N21   S    
C70   C74   A    
C41   O33   A    
C63   C144  S    
C182  C194  A    
C151  C155  A    
C185  C194  A    
C187  N3    S    
C60   N34   S    
C75   C157  A    
H127  N12   S    
C6    N11   S    
C193  O26   A    
C130  C134  A    
C4    N9    S    
O15   Zn5   S    
C78   H90   S    
C25   C29   A    
C139  C148  A    
H15   N19   S    
C104  H50   S    
C147  N32   S    
C27   C31   A    
C144  O17   A    
H133  N3    S    
C92   H161  S    
C28   C32   A    
C107  H86   S    
C84   H119  S    
H7    N15   S    
C98   H188  S    
H8    N16   S    
H129  N48   S    
C62   C66   A    
C120  C125  A    
O37   Zn9   S    
C132  C137  A    
C83   H117  S    
C17   C21   A    
O30   Zn11  S    
C14   N15   S    
C131  C158  A    
C19   C23   A    
C35   C157  A    
H11   N17   S    
C18   C44   A    
H9    N16   S    
O20   Zn10  S    
C16   C20   A    
C159  C181  A    
C143  O16   A    
C98   H189  S    
C81   H110  S    
C129  C133  A    
C97   H186  S    
H151  N5    S    
C119  C123  A    
C22   C27   A    
C85   C170  S    
C58   N12   S    
C36   C44   A    
C102  H44   S    
C88   H141  S    
C37   C45   A    
C2    C71   A    
C80   H107  S    
C134  C139  A    
C96   H184  S    
C170  C174  A    
C137  C145  A    
C112  O12   A    
C92   H159  S    
C93   C199  S    
O48   Zn12  S    
C59   C63   A    
C185  N48   S    
C2    C190  A    
C86   H128  S    
H156  N7    S    
O19   Zn9   S    
C13   C72   A    
H132  N2    S    
C64   C69   A    
H67   N39   S    
C33   C38   A    
C191  O28   A    
C60   C64   A    
C118  N43   S    
C116  N41   S    
C51   O43   A    
C101  N38   S    
C46   C146  A    
C110  H96   S    
C89   H144  S    
C29   C193  S    
H63   N37   S    
C15   N16   S    
H157  N8    S    
C76   C168  A    
C106  H84   S    
C127  C131  A    
O44   Zn4   S    
C20   C47   A    
C50   O42   A    
C61   C65   A    
C111  H100  S    
C189  O27   A    
C73   C77   A    
C31   C36   A    
C52   O48   A    
C130  C156  A    
C39   C164  S    
H27   N25   S    
C135  O34   A    
C87   H139  S    
O3    Zn3   S    
C44   C48   S    
C109  H92   S    
O1    Zn1   S    
H60   N35   S    
C79   C115  A    
C124  C139  S    
C13   N29   S    
C99   H191  S    
O9    Zn8   S    
C60   C179  A    
C110  H97   S    
C83   H115  S    
C103  H45   S    
C109  H93   S    
O32   Zn5   S    
C34   N22   S    
H155  N7    S    
C124  O23   A    
H35   N46   S    
C152  N46   S    
H23   N24   S    
H16   N19   S    
C150  N44   S    
C67   C72   A    
C145  N31   S    
O35   Zn7   S    
C153  C158  A    
C85   H123  S    
O42   Zn12  S    
C55   C158  S    
H177  N11   S    
C151  N45   S    
C102  H42   S    
C88   H143  S    
H52   N31   S    
C4    C8    A    
C145  C150  A    
O4    Zn4   S    
C42   C165  S    
C55   O8    A    
C4    C198  A    
H33   N28   S    
C93   H163  S    
C105  H78   S    
C95   H169  S    
C92   C198  S    
C26   C189  S    
O17   Zn7   S    
C47   C50   S    
C191  O24   A    
C49   O45   A    
C192  O25   A    
C30   C34   A    
H65   N38   S    
H26   N25   S    
O25   Zn6   S    
C131  C136  A    
C16   N17   S    
H64   N37   S    
C109  C123  S    
C82   C162  S    
C89   H146  S    
C23   C28   A    
C83   C167  S    
C23   C200  A    
C116  C120  A    
C106  H82   S    
H32   N28   S    
C107  H87   S    
C5    C9    A    
C108  H88   S    
C125  C129  A    
C174  C187  A    
C87   H137  S    
H31   N27   S    
C90   N37   S    
C172  C185  A    
C8    C12   A    
C111  H98   S    
C41   C166  S    
C95   H172  S    
C193  O30   A    
C32   C37   A    
H182  N44   S    
O5    Zn2   S    
H38   N30   S    
H75   N42   S    
C68   C168  A    
O11   Zn10  S    
C26   C30   A    
C115  C119  A    
C91   H147  S    
H19   N21   S    
C57   C68   A    
C35   C100  S    
C94   H167  S    
C1    C137  S    
H72   N41   S    
O8    Zn3   S    
H69   N39   S    
C174  C178  A    
C32   N7    S    
C99   H3    S    
C18   C22   A    
C34   C43   A    
C153  N47   S    
C58   C157  A    
C80   H106  S    
C3    C95   S    
H36   N29   S    
C19   C45   A    
C53   C155  S    
C175  C180  A    
C64   C143  S    
C128  C154  A    
C53   O6    A    
C84   H121  S    
C143  O20   A    
H10   N17   S    
H59   N35   S    
C147  C151  A    
C114  H103  S    
C100  H40   S    
C33   N8    S    
C161  C165  A    
H153  N6    S    
C54   O7    A    
C59   C168  A    
C180  C184  A    
C39   O36   A    
H77   N43   S    
C2    N28   S    
C105  H80   S    
C169  C173  A    
O36   Zn8   S    
C62   C141  S    
H12   N18   S    
O33   Zn6   S    
C54   O3    A    
C172  C176  A    
H30   N27   S    
H66   N38   S    
C1    O9    A    
H180  N13   S    
H176  N10   S    
C115  N40   S    
C56   N1    S    
H105  N1    S    
C187  C196  A    
O31   Zn1   S    
C189  O22   A    
C53   O2    A    
O38   Zn10  S    
C5    C199  A    
H62   N36   S    
C15   C19   A    
C77   C179  A    
O22   Zn1   S    
C160  C164  A    
C37   N25   S    
C92   H162  S    
C107  H85   S    
C78   H79   S    
C84   H120  S    
C3    C7    A    
H46   N46   S    
O18   Zn8   S    
C24   C73   A    
C80   C160  S    
H68   N47   S    
H130  N48   S    
C20   C25   A    
C126  C130  A    
C82   H113  S    
C95   H170  S    
C105  H81   S    
H149  N23   S    
C5    N10   S    
C162  C166  A    
O39   Zn11  S    
C12   C17   A    
C69   C73   A    
C1    O1    A    
C98   H190  S    
C178  C183  A    
C81   H109  S    
C52   O5    A    
C142  O19   A    
C31   N6    S    
C97   H185  S    
C133  C138  A    
C7    N13   S    
H154  N6    S    
C88   C195  S    
C135  C140  S    
C88   H142  S    
H171  N34   S    
C80   H108  S    
C124  O11   A    
C96   H181  S    
H76   N43   S    
O12   Zn5   S    
H174  N9    S    
C176  C181  A    
C57   C103  S    
C65   N18   S    
C148  C152  A    
C3    C25   A    
C129  C155  A    
C90   C133  A    
O7    Zn4   S    
C184  C196  A    
H18   N20   S    
H5    N14   S    
C161  C183  A    
C9    C14   A    
C162  C184  A    
O28   Zn9   S    
C112  C138  S    
C11   C16   A    
C22   C199  A    
C90   C116  A    
C38   N26   S    
C111  C126  S    
H14   N18   S    
C111  H99   S    
C66   N19   S    
H37   N30   S    
C107  C121  S    
H2    N44   S    
H160  N34   S    
H73   N41   S    
C165  C170  A    
C9    C97   S    
C104  H49   S    
C81   C161  S    
C74   C146  A    
C68   C104  S    
H131  N2    S    
O24   Zn5   S    
C6    C10   A    
C178  C180  A    
C167  C172  A    
H24   N45   S    
C83   H118  S    
C103  H48   S    
C113  N39   S    
C101  C117  A    
O26   Zn7   S    
C6    C200  A    
C114  C127  S    
C188  C197  A    
H61   N36   S    
O46   Zn2   S    
C94   C200  S    
C56   C146  A    
C181  C195  A    
C103  H47   S    
C85   H122  S    
C81   H111  S    
H58   N33   S    
C51   O47   A    
C12   N14   S    
C78   C159  S    
C141  O18   A    
C97   H187  S    
C142  O15   A    
C56   C61   A    
C105  C119  S    
C102  H43   S    
H116  N12   S    
C35   C46   A    
C89   H145  S    
C100  H41   S    
C42   O39   A    
C96   H183  S    
O2    Zn2   S    
C79   N36   S    
C78   H101  S    
C58   C62   A    
H25   N24   S    
O10   Zn9   S    
C14   C18   A    
C8    C96   S    
C21   C198  A    
C72   C76   A    
H134  N3    S    
C186  N2    S    
C17   C43   A    
C148  N33   S    
H57   N47   S    
H56   N33   S    
C101  C134  A    
H175  N10   S    
C7    C11   A    
C46   C102  S    
H71   N40   S    
C11   C99   S    
O29   Zn10  S    
O40   Zn3   S    
H6    N15   S    
C144  O21   A    
C10   C15   A    
C118  C122  A    
C69   N21   S    
C109  H94   S    
C45   C51   S    
C52   C154  S    
H34   N29   S    
C122  C127  A    
C106  H83   S    
C10   C98   S    
C117  C121  A    
H17   N20   S    
H70   N40   S    
O23   Zn6   S    
H152  N5    S    
C149  N35   S    
C66   C71   A    
C113  C136  A    
C135  O13   A    
C87   H140  S    
C39   O31   A    
C40   O37   A    
H135  N4    S    
C166  C171  A    
C104  H51   S    
C91   H150  S    
C164  C169  A    
H158  N8    S    
O34   Zn7   S    
C188  N4    S    
C28   C192  S    
C94   H168  S    
C99   H192  S    
C50   O46   A    
C63   C67   A    
C173  C186  A    
C74   C75   A    
C86   C171  S    
C186  C195  A    
C76   C77   A    
C40   C163  S    
C84   C169  S    
C43   C49   S    
H13   N45   S    
H136  N4    S    
C89   C196  S    
C171  C175  A    
O43   Zn2   S    
C13   C24   A    
C93   H165  S    
O45   Zn3   S    
C163  C167  A    
C85   H124  S    
C108  H89   S    
C173  C177  A    
C138  C147  A    
C114  H104  S    
H178  N11   S    
C38   C47   A    
C30   N5    S    
H1    N1    S    
C176  C177  A    
C93   H164  S    
H21   N22   S    
C48   O44   A    
C159  C163  A    
C86   H125  S    
C82   H112  S    
C128  C132  A    
H28   N26   S    
C106  C120  S    
O41   Zn4   S    
C59   N23   S    
C70   C190  A    
C190  N27   S    
C87   C194  S    
C108  C122  S    
O14   Zn1   S    
C57   C179  A    
H4    N14   S    
C110  H95   S    
C41   O38   A    
O47   Zn12  S    
C121  C126  A    
O27   Zn8   S    
C71   C75   A    
H138  N23   S    
C123  C128  A    
C82   H114  S    
C79   C132  A    
C140  C149  A    
H29   N26   S    
H53   N31   S    
H54   N32   S    
O16   Zn6   S    
C110  C125  S    
C113  C118  A    
C91   C197  S    
C61   C142  S    
H74   N42   S    
C42   O35   A    
C150  C154  A    
C91   H148  S    
C67   N20   S    
C48   O40   A    
C65   C70   A    
O21   Zn11  S    
C94   H166  S    
H55   N32   S    
