data_mof_unit_42195.cif
_audit_creation_date              2013-03-05T15:40:04-0500
_audit_creation_method            fapswitch 2.2
_symmetry_space_group_name_H-M    P1
_symmetry_Int_Tables_number       1
_space_group_crystal_system       triclinic
_cell_length_a                    7.488674
_cell_length_b                    9.016642
_cell_length_c                    11.365303
_cell_angle_alpha                 88.189112
_cell_angle_beta                  78.94914
_cell_angle_gamma                 104.109806
_cell_volume                      727.985106201

loop_
_atom_site_label
_atom_site_type_symbol
_atom_site_description
_atom_site_fract_x
_atom_site_fract_y
_atom_site_fract_z
_atom_type_partial_charge
O1    O     O_R   0.622710 0.286400 0.490790 -0.570803
O2    O     O_R   0.377290 0.713600 0.509210 -0.525318
O3    O     O_R   0.303660 0.256330 0.514730 -0.641226
O4    O     O_R   0.696340 0.743670 0.485270 -0.570190
C1    C     C_R   0.449649 0.198789 0.511265 0.694515
C2    C     C_R   0.546302 0.798708 0.500795 0.764799
O5    O     O_R   0.600900 0.509520 0.671740 -0.523869
O6    O     O_R   0.399100 0.490480 0.328260 -0.600876
O7    O     O_R   0.281840 0.479450 0.695690 -0.594833
O8    O     O_R   0.718160 0.520550 0.304310 -0.616847
C3    C     C_R   0.435598 0.485889 0.737671 0.853556
C4    C     C_R   0.564444 0.512720 0.262220 0.864717
Cu1   Cu    Cu3+1 0.688910 0.517800 0.485820 1.026776
Cu2   Cu    Cu3+1 0.311090 0.482200 0.514180 1.003573
C5    C     C_2   0.425745 0.436962 0.860606 -0.399389
C6    C     C_2   0.576113 0.561465 0.139051 -0.421434
C7    C     C_2   0.534710 0.515242 0.931238 0.371701
C8    C     C_2   0.467708 0.484723 0.067584 0.349175
H1    H     H_    0.669364 0.672771 0.111714 0.088467
H2    H     H_    0.332239 0.325819 0.889425 0.084451
C9    C     C_2   0.418964 0.027481 0.531343 0.167761
C10   C     C_2   0.568721 0.965537 0.496565 0.163399
N1    N     N_2   0.027170 0.455360 0.535550 0.085125
N2    N     N_2   0.972830 0.544640 0.464450 0.106924
O9    O     O_3   0.300188 0.376803 0.124386 -0.581075
C11   C     C_3   0.142808 0.380098 0.071549 -0.006092
H3    H     H_    0.100205 0.270328 0.030323 0.166381
H4    H     H_    0.169632 0.480260 0.005970 0.142128
C12   C     C_3   0.969767 0.390909 0.159636 -0.817507
H5    H     H_    0.959449 0.509980 0.151277 0.239010
H6    H     H_    0.841385 0.318192 0.135478 0.198115
H7    H     H_    0.973445 0.362384 0.253458 0.281569
O10   O     O_3   0.700271 0.624625 0.873212 -0.567080
C13   C     C_3   0.858973 0.629136 0.926498 -0.020640
H8    H     H_    0.837269 0.529033 0.990990 0.142152
H9    H     H_    0.893668 0.739129 0.968704 0.151085
C14   C     C_3   0.037167 0.627841 0.838525 -0.654930
H10   H     H_    0.039894 0.663512 0.745231 0.327802
H11   H     H_    0.161925 0.701465 0.866218 0.170233
H12   H     H_    0.050352 0.509837 0.843231 0.249941
O11   O     O_3   0.245413 0.926255 0.588780 -0.568032
C15   C     C_3   0.097459 0.997484 0.622524 0.063214
H13   H     H_    0.063872 0.042691 0.541238 0.219323
H14   H     H_    0.135041 0.086197 0.685542 0.143077
C16   C     C_3   0.914627 0.887027 0.684165 -0.674829
H15   H     H_    0.914566 0.874083 0.780860 0.238207
H16   H     H_    0.793794 0.934820 0.676706 0.191915
H17   H     H_    0.893511 0.776980 0.641941 0.321357
O12   O     O_3   0.749441 0.057440 0.462537 -0.619376
C17   C     C_3   0.814724 0.052521 0.338541 0.052831
H18   H     H_    0.757680 0.130986 0.288543 0.156053
H19   H     H_    0.770949 0.937451 0.304889 0.116644
C18   C     C_3   0.027876 0.100570 0.313339 -0.732852
H20   H     H_    0.079932 0.012474 0.355588 0.258333
H21   H     H_    0.083738 0.112188 0.215116 0.236533
H22   H     H_    0.080195 0.209064 0.353530 0.270137
O13   O     O_3   0.923512 0.435072 0.648636 -0.454819
C19   C     C_3   0.845163 0.276628 0.680038 0.274066
H23   H     H_    0.908403 0.204629 0.616970 0.141417
H24   H     H_    0.692871 0.249160 0.680968 0.150000
C20   C     C_3   0.859635 0.232700 0.807801 -0.961017
H25   H     H_    0.788513 0.300370 0.872256 0.262915
H26   H     H_    0.787277 0.109905 0.833187 0.211731
H27   H     H_    0.008683 0.251122 0.815294 0.240589
O14   O     O_3   0.086221 0.687029 0.430351 -0.437469
C21   C     C_3   0.180796 0.690454 0.308839 0.252101
H28   H     H_    0.164696 0.576487 0.276031 0.180177
H29   H     H_    0.333390 0.740772 0.302127 0.126623
C22   C     C_3   0.120446 0.787925 0.219944 -0.957064
H30   H     H_    0.212856 0.905732 0.208365 0.229850
H31   H     H_    0.145371 0.745893 0.128994 0.205398
H32   H     H_    0.969673 0.784858 0.247645 0.281722

loop_
_geom_bond_atom_site_label_1
_geom_bond_atom_site_label_2
_geom_bond_distance
_ccdc_geom_bond_type
Cu2   N1    2.045889 S    
N1    O13   1.349577 S    
C22   H32   1.105749 S    
C21   H29   1.108647 S    
O7    Cu2   2.031036 S    
C5    C7    1.347057 D    
C12   H5    1.097484 S    
O3    Cu2   2.023523 S    
C20   H27   1.107979 S    
C13   C14   1.509101 S    
O11   C15   1.409532 S    
C11   H4    1.105941 S    
C7    C8    1.528540 S    
O5    Cu1   2.082555 S    
O6    C4    1.284474 A    
C9    C10   1.369425 D    
C19   C20   1.523816 S    
C16   H16   1.108565 S    
O10   C13   1.426463 S    
O13   C19   1.411181 S    
C22   H31   1.110059 S    
C12   H6    1.111225 S    
C18   H20   1.100966 S    
O14   C21   1.421784 S    
O5    C3    1.282566 A    
O7    C3    1.317806 A    
C11   H3    1.110669 S    
O2    C2    1.294360 A    
C8    O9    1.411409 S    
C15   H14   1.111632 S    
N2    O14   1.352929 S    
C10   O12   1.378450 S    
O1    C1    1.315826 A    
O8    C4    1.316252 A    
O4    C2    1.319563 A    
O9    C11   1.427515 S    
C14   H10   1.093193 S    
C21   H28   1.091132 S    
C12   H7    1.096051 S    
C13   H9    1.110588 S    
C22   H30   1.105617 S    
C18   H21   1.106526 S    
C6    H1    1.070900 S    
C20   H25   1.108930 S    
O2    Cu2   2.019836 S    
O12   C17   1.406196 S    
C9    O11   1.416701 S    
C16   H17   1.105698 S    
C21   C22   1.519864 S    
O1    Cu1   2.019835 S    
C15   H13   1.094603 S    
N1    N2    1.308158 D    
C19   H24   1.104363 S    
C14   H12   1.092872 S    
C17   C18   1.515713 S    
C16   H15   1.101366 S    
C14   H11   1.111828 S    
C1    C9    1.508410 S    
C11   C12   1.503803 S    
C6    C8    1.346111 D    
C13   H8    1.104235 S    
C18   H22   1.108654 S    
C17   H19   1.112454 S    
C20   H26   1.109105 S    
C4    C6    1.433840 S    
O6    Cu2   2.082553 S    
C17   H18   1.104956 S    
C7    O10   1.412117 S    
C19   H23   1.099397 S    
Cu1   Cu2   2.722739 S    
C3    C5    1.434526 S    
O8    Cu1   2.031036 S    
O4    Cu1   2.023522 S    
Cu1   N2    2.045889 S    
C5    H2    1.072885 S    
O3    C1    1.314271 A    
C15   C16   1.510189 S    
C2    C10   1.470517 S    
