data_mof_unit_51191.cif
_audit_creation_date              2012-10-26T21:00:13-0400
_audit_creation_method            fapswitch 2.2
_symmetry_space_group_name_H-M    P1
_symmetry_Int_Tables_number       1
_space_group_crystal_system       triclinic
_cell_length_a                    19.325067
_cell_length_b                    8.686233
_cell_length_c                    7.510119
_cell_angle_alpha                 103.259081
_cell_angle_beta                  95.300905
_cell_angle_gamma                 93.305902
_cell_volume                      1217.75946269

loop_
_atom_site_label
_atom_site_type_symbol
_atom_type_description
_atom_site_fract_x
_atom_site_fract_y
_atom_site_fract_z
_atom_type_partial_charge
C1    C     C_R   0.497822 0.199725 0.453001 0.554693
C2    C     C_R   0.811470 0.472066 0.340215 -0.114752
C3    C     C_R   0.145626 0.489881 0.491594 0.025920
C4    C     C_R   0.854374 0.510119 0.508406 0.025920
C5    C     C_R   0.176462 0.450333 0.325178 -0.014998
C6    C     C_R   0.823538 0.549667 0.674822 -0.014998
C7    C     C_R   0.248871 0.454015 0.330124 -0.132146
C8    C     C_R   0.751129 0.545985 0.669876 -0.132146
C9    C     C_R   0.291436 0.494518 0.498561 0.009663
C10   C     C_R   0.708564 0.505482 0.501439 0.009663
C11   C     C_R   0.930343 0.506314 0.505321 0.336300
C12   C     C_R   0.502178 0.800275 0.546999 0.554693
C13   C     C_R   0.069657 0.493686 0.494679 0.336300
C14   C     C_1   0.135563 0.398975 0.147963 0.222233
C15   C     C_1   0.864437 0.601024 0.852037 0.222233
C16   C     C_1   0.430228 0.347706 0.927410 0.429602
C17   C     C_1   0.569772 0.652294 0.072590 0.429602
C18   C     C_2   0.496721 0.031421 0.427066 -0.132665
C19   C     C_2   0.503278 0.968579 0.572933 -0.132665
C20   C     C_R   0.367555 0.498428 0.500211 0.553459
C21   C     C_R   0.632445 0.501572 0.499789 0.553459
C22   C     C_R   0.260724 0.529962 0.663388 -0.122489
C23   C     C_R   0.739276 0.470038 0.336612 -0.122489
C24   C     C_R   0.188530 0.527934 0.659785 -0.114752
Cu1   Cu    Cu3+1 0.507710 0.517380 0.684380 0.990689
Cu2   Cu    Cu3+1 0.492290 0.482620 0.315620 0.990689
H1    H     H_    0.292431 0.561023 0.795110 0.139320
H2    H     H_    0.707569 0.438977 0.204890 0.139320
H3    H     H_    0.166246 0.558898 0.789192 0.156289
H4    H     H_    0.833754 0.441102 0.210808 0.156289
H5    H     H_    0.271939 0.423316 0.201601 0.137361
H6    H     H_    0.728061 0.576684 0.798399 0.137361
H7    H     H_    0.490492 0.958954 0.286911 0.139173
H8    H     H_    0.509508 0.041046 0.713089 0.139173
N1    N     N_R   0.029510 0.533603 0.356891 -0.185742
N2    N     N_1   0.612182 0.743753 0.163325 -0.333389
N3    N     N_R   0.970490 0.466397 0.643108 -0.185742
N4    N     N_R   0.961103 0.539124 0.361662 -0.189777
N5    N     N_R   0.038897 0.460876 0.638338 -0.189777
N6    N     N_2   0.480680 0.456420 0.038530 -0.202468
N7    N     N_2   0.519320 0.543580 0.961470 -0.202468
N8    N     N_1   0.102885 0.357392 0.005954 -0.231945
N9    N     N_1   0.897115 0.642608 0.994046 -0.231945
N10   N     N_1   0.387818 0.256247 0.836675 -0.333389
O1    O     O_R   0.505010 0.286130 0.619770 -0.505085
O2    O     O_R   0.494990 0.713870 0.380230 -0.505085
O3    O     O_R   0.491990 0.256780 0.308370 -0.506409
O4    O     O_R   0.508010 0.743220 0.691630 -0.506409
O5    O     O_R   0.406650 0.514660 0.655750 -0.505636
O6    O     O_R   0.593350 0.485340 0.344250 -0.505635
O7    O     O_R   0.393640 0.485310 0.344340 -0.517201
O8    O     O_R   0.606360 0.514690 0.655660 -0.517201

loop_
_geom_bond_atom_site_label_1
_geom_bond_atom_site_label_2
_ccdc_geom_bond_type
C11   N4    A    
C2    C4    A    
C20   O5    A    
C17   N2    T    
Cu1   O1    S    
C10   C23   A    
C12   O2    A    
C5    C7    A    
C16   N10   T    
C9    C20   S    
C12   O4    A    
C3    C13   S    
C14   N8    T    
C2    H4    S    
Cu2   N6    S    
C1    C18   S    
Cu1   O8    S    
C15   N9    T    
N3    N5    A    
Cu2   O7    S    
C4    C11   S    
Cu1   O4    S    
C1    O1    A    
C5    C14   S    
Cu2   O3    S    
C16   N6    S    
C12   C19   S    
C4    C6    A    
N6    N7    D    
Cu1   Cu2   S    
C13   N1    A    
C20   O7    A    
Cu1   O5    S    
C22   H1    S    
Cu2   O6    S    
C10   C21   S    
C18   H7    S    
C22   C24   A    
C9    C22   A    
C13   N5    A    
C17   N7    S    
C7    H5    S    
Cu2   O2    S    
C8    H6    S    
C7    C9    A    
N1    N4    A    
C8    C10   A    
C18   C19   D    
Cu1   N7    S    
C2    C23   A    
C11   N3    A    
C24   H3    S    
C1    O3    A    
C6    C8    A    
C21   O6    A    
C6    C15   S    
C23   H2    S    
C21   O8    A    
C3    C24   A    
C3    C5    A    
C19   H8    S    
