data_mof_unit_9743.cif
_audit_creation_date              2012-12-11T15:22:39-0500
_audit_creation_method            fapswitch 2.2
_symmetry_space_group_name_H-M    P1
_symmetry_Int_Tables_number       1
_space_group_crystal_system       triclinic
_cell_length_a                    22.446897
_cell_length_b                    12.998407
_cell_length_c                    27.005987
_cell_angle_alpha                 89.965717
_cell_angle_beta                  90.526464
_cell_angle_gamma                 89.990565
_cell_volume                      7879.30807613

loop_
_atom_site_label
_atom_site_type_symbol
_atom_type_description
_atom_site_fract_x
_atom_site_fract_y
_atom_site_fract_z
_atom_type_partial_charge
C1    C     C_R   0.720619 0.344791 0.178147 0.544915
C2    C     C_R   0.480555 0.257037 0.896661 -0.112013
C3    C     C_R   0.009452 0.586071 0.555142 -0.117169
C4    C     C_R   0.502954 0.082938 0.394457 -0.124215
C5    C     C_R   0.497216 0.083141 0.605630 -0.124124
C6    C     C_R   0.002954 0.582939 0.394457 -0.124216
C7    C     C_R   0.997215 0.583141 0.605630 -0.124123
C8    C     C_R   0.740609 0.955013 0.371483 0.028313
C9    C     C_R   0.259378 0.955106 0.628519 0.028249
C10   C     C_R   0.240609 0.455012 0.371483 0.028314
C11   C     C_R   0.759378 0.455107 0.628519 0.028248
C12   C     C_R   0.690842 0.916916 0.396699 -0.105880
C13   C     C_R   0.022086 0.758071 0.102988 -0.112033
C14   C     C_R   0.309111 0.916813 0.603334 -0.105860
C15   C     C_R   0.190843 0.416915 0.396699 -0.105879
C16   C     C_R   0.809111 0.416815 0.603334 -0.105861
C17   C     C_R   0.693891 0.900533 0.447277 -0.107580
C18   C     C_R   0.306044 0.900333 0.552767 -0.107472
C19   C     C_R   0.193892 0.400531 0.447277 -0.107580
C20   C     C_R   0.806045 0.400335 0.552767 -0.107472
C21   C     C_R   0.747169 0.919236 0.473125 0.038550
C22   C     C_R   0.252787 0.919177 0.526895 0.038522
C23   C     C_R   0.247169 0.419234 0.473124 0.038550
C24   C     C_R   0.980688 0.756976 0.896648 -0.112020
C25   C     C_R   0.752787 0.419177 0.526895 0.038522
C26   C     C_R   0.798499 0.947766 0.447189 -0.119669
C27   C     C_R   0.201491 0.947963 0.552805 -0.119637
C28   C     C_R   0.298499 0.447765 0.447189 -0.119669
C29   C     C_R   0.701492 0.447963 0.552804 -0.119636
C30   C     C_R   0.795168 0.966170 0.396565 -0.125990
C31   C     C_R   0.204837 0.966434 0.603415 -0.125958
C32   C     C_R   0.295169 0.466170 0.396565 -0.125990
C33   C     C_R   0.704837 0.466434 0.603415 -0.125959
C34   C     C_R   0.781705 0.981261 0.555698 -0.084088
C35   C     C_R   0.510233 0.260693 0.051736 0.032593
C36   C     C_R   0.218331 0.981209 0.444253 -0.084035
C37   C     C_R   0.281705 0.481260 0.555698 -0.084088
C38   C     C_R   0.718331 0.481210 0.444253 -0.084036
C39   C     C_R   0.721178 0.347050 0.321800 0.573422
C40   C     C_R   0.278816 0.347098 0.678208 0.573285
C41   C     C_R   0.221178 0.847049 0.321800 0.573428
C42   C     C_R   0.778816 0.847098 0.678208 0.573278
C43   C     C_R   0.787909 0.966756 0.606509 0.372407
C44   C     C_R   0.212140 0.966698 0.393447 0.372471
C45   C     C_R   0.287909 0.466756 0.606509 0.372408
C46   C     C_R   0.492176 0.260029 0.947969 0.033334
C47   C     C_R   0.712140 0.466698 0.393447 0.372470
C48   C     C_R   0.722863 0.817714 0.600996 -0.187803
C49   C     C_R   0.276984 0.817367 0.399093 -0.187842
C50   C     C_R   0.222864 0.317712 0.600995 -0.187801
C51   C     C_R   0.776985 0.317369 0.399093 -0.187843
C52   C     C_R   0.717818 0.831033 0.550356 -0.147419
C53   C     C_R   0.282024 0.830711 0.449731 -0.147367
C54   C     C_R   0.217819 0.331032 0.550356 -0.147419
C55   C     C_R   0.782025 0.330713 0.449730 -0.147368
C56   C     C_R   0.748712 0.910822 0.527139 -0.024218
C57   C     C_R   0.010372 0.760721 0.051723 0.032541
C58   C     C_R   0.251231 0.910668 0.472880 -0.024243
C59   C     C_R   0.248713 0.410820 0.527139 -0.024219
C60   C     C_R   0.751231 0.410669 0.472880 -0.024243
C61   C     C_R   0.760321 0.882154 0.629095 0.032524
C62   C     C_R   0.239646 0.881981 0.370926 0.032544
C63   C     C_R   0.260322 0.382153 0.629094 0.032524
C64   C     C_R   0.739646 0.381981 0.370926 0.032544
C65   C     C_R   0.554458 0.158874 0.321683 0.540004
C66   C     C_R   0.445546 0.158907 0.678320 0.540097
C67   C     C_R   0.054458 0.658874 0.321683 0.539996
C68   C     C_R   0.992306 0.759985 0.947958 0.033370
C69   C     C_R   0.945546 0.658907 0.678320 0.540105
C70   C     C_R   0.731741 0.001891 0.322911 0.546356
C71   C     C_R   0.268263 0.001933 0.677083 0.546416
C72   C     C_R   0.231741 0.501891 0.322911 0.546352
C73   C     C_R   0.768263 0.501934 0.677083 0.546418
C74   C     C_R   0.513629 0.071891 0.102930 -0.131568
C75   C     C_R   0.481400 0.070387 0.898443 -0.130709
C76   C     C_R   0.013359 0.571990 0.103003 -0.131616
C77   C     C_R   0.981106 0.570324 0.898520 -0.130642
C78   C     C_R   0.504019 0.072386 0.052101 0.018122
C79   C     C_R   0.502939 0.166772 0.026113 0.024606
C80   C     C_R   0.490431 0.071478 0.949305 0.017665
C81   C     C_R   0.003710 0.572457 0.052177 0.018153
C82   C     C_R   0.990109 0.571451 0.949383 0.017644
C83   C     C_R   0.492020 0.978583 0.975521 -0.134228
C84   C     C_R   0.498242 0.979071 0.026693 -0.133355
C85   C     C_R   0.991462 0.478594 0.975641 -0.134252
C86   C     C_R   0.997691 0.479136 0.026812 -0.133282
C87   C     C_R   0.495381 0.166358 0.974452 0.024636
C88   C     C_R   0.002845 0.666802 0.026145 0.024597
C89   C     C_R   0.279385 0.344712 0.821866 0.544860
C90   C     C_R   0.995281 0.666343 0.974486 0.024630
C91   C     C_R   0.508116 0.354556 0.025413 0.101372
C92   C     C_R   0.498454 0.354259 0.973467 0.101426
C93   C     C_R   0.008489 0.854549 0.025358 0.101385
C94   C     C_R   0.998820 0.854220 0.973413 0.101443
C95   C     C_R   0.739362 0.957183 0.129969 0.024017
C96   C     C_R   0.260728 0.957170 0.870056 0.024142
C97   C     C_R   0.239376 0.457147 0.129979 0.023997
C98   C     C_R   0.760734 0.457189 0.870062 0.024165
C99   C     C_R   0.794486 0.964370 0.106164 -0.127891
C100  C     C_R   0.220618 0.844788 0.178146 0.544915
C101  C     C_R   0.205519 0.963645 0.893765 -0.127960
C102  C     C_R   0.294506 0.464328 0.106180 -0.127875
C103  C     C_R   0.705529 0.463684 0.893776 -0.127972
C104  C     C_R   0.798393 0.944858 0.055561 -0.118756
C105  C     C_R   0.201608 0.944165 0.944380 -0.118281
C106  C     C_R   0.298423 0.444788 0.055580 -0.118729
C107  C     C_R   0.701624 0.444222 0.944393 -0.118326
C108  C     C_R   0.747069 0.919327 0.027971 0.035704
C109  C     C_R   0.253013 0.919473 0.972068 0.036118
C110  C     C_R   0.247105 0.419237 0.027987 0.035701
C111  C     C_R   0.779382 0.844718 0.821863 0.544859
C112  C     C_R   0.753033 0.419527 0.972077 0.036122
C113  C     C_R   0.692752 0.906277 0.052442 -0.120896
C114  C     C_R   0.307449 0.907182 0.947698 -0.121100
C115  C     C_R   0.192785 0.406185 0.052455 -0.120897
C116  C     C_R   0.807464 0.407220 0.947703 -0.121085
C117  C     C_R   0.553769 0.157331 0.177514 0.544672
C118  C     C_R   0.446068 0.157141 0.822595 0.544635
C119  C     C_R   0.053762 0.657340 0.177519 0.544671
C120  C     C_R   0.946057 0.657133 0.822601 0.544637
C121  C     C_R   0.689058 0.924007 0.103035 -0.124023
C122  C     C_R   0.473307 0.162482 0.872205 -0.018797
C123  C     C_R   0.311146 0.924789 0.897097 -0.124235
C124  C     C_R   0.189081 0.423942 0.103044 -0.124019
C125  C     C_R   0.811154 0.424809 0.897100 -0.124239
C126  C     C_R   0.716542 0.832104 0.949474 -0.118597
C127  C     C_R   0.283908 0.832990 0.050701 -0.118759
C128  C     C_R   0.216579 0.332026 0.949486 -0.118592
C129  C     C_R   0.783926 0.333031 0.050707 -0.118769
C130  C     C_R   0.722029 0.817744 0.898723 -0.125050
C131  C     C_R   0.278392 0.818656 0.101455 -0.125462
C132  C     C_R   0.222054 0.317694 0.898732 -0.125032
C133  C     C_R   0.525785 0.163651 0.128228 -0.019440
C134  C     C_R   0.778403 0.318680 0.101460 -0.125484
C135  C     C_R   0.792307 0.959114 0.895033 -0.118262
C136  C     C_R   0.207287 0.958862 0.104862 -0.117767
C137  C     C_R   0.292331 0.459064 0.895049 -0.118237
C138  C     C_R   0.707307 0.458897 0.104872 -0.117803
C139  C     C_R   0.786113 0.974485 0.945758 -0.114370
C140  C     C_R   0.213492 0.974200 0.054135 -0.114315
C141  C     C_R   0.286150 0.474408 0.945777 -0.114362
C142  C     C_R   0.713518 0.474253 0.054148 -0.114318
C143  C     C_R   0.749769 0.908769 0.973687 0.037519
C144  C     C_R   0.973246 0.662423 0.872233 -0.018751
C145  C     C_R   0.250271 0.909018 0.026348 0.038020
C146  C     C_R   0.249810 0.408682 0.973704 0.037519
C147  C     C_R   0.750295 0.409071 0.026358 0.038020
C148  C     C_R   0.761694 0.878565 0.871415 0.024166
C149  C     C_R   0.238300 0.878856 0.128618 0.023987
C150  C     C_R   0.261709 0.378533 0.871424 0.024163
C151  C     C_R   0.738310 0.378875 0.128624 0.023991
C152  C     C_R   0.527875 0.168872 0.370986 0.020443
C153  C     C_R   0.472111 0.168976 0.629011 0.020435
C154  C     C_R   0.027875 0.668872 0.370986 0.020443
C155  C     C_R   0.025742 0.663714 0.128251 -0.019470
C156  C     C_R   0.972111 0.668976 0.629011 0.020434
C157  C     C_R   0.537023 0.259711 0.398210 -0.124193
C158  C     C_R   0.462758 0.259703 0.601692 -0.124221
C159  C     C_R   0.037023 0.759711 0.398210 -0.124193
C160  C     C_R   0.962758 0.759703 0.601692 -0.124221
C161  C     C_R   0.525593 0.262166 0.448745 -0.119541
C162  C     C_R   0.474175 0.262120 0.551153 -0.119538
C163  C     C_R   0.025593 0.762166 0.448745 -0.119541
C164  C     C_R   0.974175 0.762120 0.551153 -0.119537
C165  C     C_R   0.731203 0.002040 0.179315 0.545229
C166  C     C_R   0.521939 0.258028 0.103004 -0.112031
C167  C     C_R   0.268806 0.001997 0.820684 0.545092
C168  C     C_R   0.231205 0.502033 0.179317 0.545228
C169  C     C_R   0.768807 0.502001 0.820685 0.545093
C170  C     C_R   0.503877 0.174388 0.472873 0.034198
C171  C     C_R   0.496082 0.174421 0.527117 0.034182
C172  C     C_R   0.003877 0.674388 0.472873 0.034198
C173  C     C_R   0.996082 0.674421 0.527117 0.034181
C174  C     C_R   0.490706 0.085901 0.444941 -0.117208
C175  C     C_R   0.509453 0.086071 0.555142 -0.117169
C176  C     C_R   0.990705 0.585901 0.444941 -0.117208
Cr1   Cr    Cr6+3 0.756570 0.170940 0.251190 1.015962
Cr2   Cr    Cr6+3 0.374010 0.036240 0.749520 1.023564
Cr3   Cr    Cr6+3 0.125990 0.536240 0.250480 1.023654
Cr4   Cr    Cr6+3 0.874010 0.536240 0.749520 1.023563
Cr5   Cr    Cr6+3 0.243430 0.170940 0.748810 1.016285
Cr6   Cr    Cr6+3 0.256570 0.670940 0.251190 1.015979
Cr7   Cr    Cr6+3 0.743430 0.670940 0.748810 1.016264
Cr8   Cr    Cr6+3 0.623740 0.299110 0.249580 1.053778
Cr9   Cr    Cr6+3 0.376260 0.299110 0.750420 1.054236
Cr10  Cr    Cr6+3 0.123740 0.799110 0.249580 1.053760
Cr11  Cr    Cr6+3 0.876260 0.799110 0.750420 1.054255
Cr12  Cr    Cr6+3 0.625990 0.036240 0.250480 1.023647
F1    F     F_    0.822964 0.032173 0.632965 -0.627027
F2    F     F_    0.177188 0.032256 0.366929 -0.627016
F3    F     F_    0.322964 0.532173 0.632965 -0.627027
F4    F     F_    0.677187 0.532255 0.366929 -0.627017
H1    H     H_    0.476156 0.996827 0.879979 0.130188
H2    H     H_    0.347898 0.889014 0.968047 0.105386
H3    H     H_    0.152404 0.387310 0.032181 0.106067
H4    H     H_    0.847914 0.389049 0.968049 0.105330
H5    H     H_    0.645743 0.918717 0.120214 0.132513
H6    H     H_    0.354523 0.920077 0.879989 0.130959
H7    H     H_    0.145763 0.418653 0.120219 0.132594
H8    H     H_    0.854528 0.420082 0.879988 0.130847
H9    H     H_    0.556837 0.326932 0.381290 0.154284
H10   H     H_    0.442791 0.326832 0.618544 0.154399
H11   H     H_    0.056837 0.826932 0.381290 0.154284
H12   H     H_    0.516134 0.998641 0.122094 0.130131
H13   H     H_    0.942791 0.826832 0.618544 0.154400
H14   H     H_    0.528078 0.018347 0.537817 0.105282
H15   H     H_    0.472228 0.018101 0.462337 0.105257
H16   H     H_    0.028078 0.518347 0.537817 0.105283
H17   H     H_    0.972228 0.518101 0.462337 0.105256
H18   H     H_    0.504986 0.012363 0.625871 0.129344
H19   H     H_    0.495340 0.012072 0.374292 0.129298
H20   H     H_    0.004986 0.512363 0.625871 0.129348
H21   H     H_    0.995340 0.512072 0.374292 0.129294
H22   H     H_    0.536516 0.331262 0.469275 0.108592
H23   H     H_    0.975705 0.496758 0.880092 0.130183
H24   H     H_    0.463094 0.331107 0.530549 0.108576
H25   H     H_    0.036516 0.831262 0.469275 0.108592
H26   H     H_    0.963094 0.831107 0.530549 0.108576
H27   H     H_    0.648105 0.907645 0.378279 0.141971
H28   H     H_    0.351834 0.907413 0.621769 0.142004
H29   H     H_    0.148106 0.407643 0.378279 0.141970
H30   H     H_    0.851835 0.407415 0.621769 0.142005
H31   H     H_    0.804038 0.045742 0.538508 0.126819
H32   H     H_    0.196070 0.045802 0.461386 0.126895
H33   H     H_    0.304038 0.545742 0.538507 0.126819
H34   H     H_    0.015713 0.498768 0.122204 0.130112
H35   H     H_    0.696069 0.545802 0.461385 0.126895
H36   H     H_    0.487710 0.905537 0.956480 0.098144
H37   H     H_    0.499422 0.906358 0.046349 0.099532
H38   H     H_    0.986973 0.405542 0.956632 0.098048
H39   H     H_    0.998697 0.406452 0.046499 0.099600
H40   H     H_    0.653645 0.878713 0.466431 0.106233
H41   H     H_    0.346265 0.878314 0.533634 0.106315
H42   H     H_    0.153646 0.378710 0.466431 0.106233
H43   H     H_    0.846265 0.378316 0.533634 0.106314
H44   H     H_    0.692273 0.775455 0.529161 0.123246
H45   H     H_    0.823069 0.007163 0.874759 0.133132
H46   H     H_    0.307493 0.775048 0.470979 0.123291
H47   H     H_    0.192274 0.275453 0.529161 0.123246
H48   H     H_    0.807494 0.275050 0.470979 0.123290
H49   H     H_    0.701194 0.751536 0.617295 0.149584
H50   H     H_    0.298568 0.751079 0.382845 0.149560
H51   H     H_    0.201195 0.251534 0.617295 0.149584
H52   H     H_    0.798569 0.251081 0.382845 0.149560
H53   H     H_    0.840618 0.959124 0.466296 0.105313
H54   H     H_    0.159386 0.959451 0.533686 0.105371
H55   H     H_    0.340618 0.459124 0.466296 0.105314
H56   H     H_    0.176189 0.006442 0.125018 0.134001
H57   H     H_    0.659386 0.459451 0.533686 0.105370
H58   H     H_    0.834240 0.994609 0.377706 0.129395
H59   H     H_    0.165789 0.995035 0.622244 0.129467
H60   H     H_    0.334240 0.494610 0.377706 0.129397
H61   H     H_    0.665789 0.495034 0.622244 0.129465
H62   H     H_    0.474296 0.327771 0.876040 0.169283
H63   H     H_    0.531276 0.328588 0.122923 0.171088
H64   H     H_    0.974604 0.827708 0.875991 0.169178
H65   H     H_    0.031594 0.828609 0.122869 0.171200
H66   H     H_    0.833932 0.989523 0.126133 0.128206
H67   H     H_    0.323089 0.507124 0.874776 0.133162
H68   H     H_    0.165993 0.988186 0.873705 0.128664
H69   H     H_    0.333946 0.489498 0.126151 0.128234
H70   H     H_    0.666003 0.488226 0.873718 0.128633
H71   H     H_    0.688464 0.779873 0.970029 0.100026
H72   H     H_    0.312338 0.781185 0.030253 0.099555
H73   H     H_    0.188506 0.279784 0.970040 0.100046
H74   H     H_    0.812355 0.281227 0.030257 0.099538
H75   H     H_    0.698357 0.754186 0.881649 0.134487
H76   H     H_    0.302401 0.755547 0.118641 0.134021
H77   H     H_    0.198377 0.254145 0.881655 0.134507
H78   H     H_    0.676210 0.506477 0.125031 0.133952
H79   H     H_    0.802407 0.255561 0.118643 0.134008
H80   H     H_    0.841248 0.952364 0.037808 0.106078
H81   H     H_    0.158681 0.951055 0.962066 0.104141
H82   H     H_    0.341281 0.452295 0.037832 0.106001
H83   H     H_    0.658700 0.451124 0.962082 0.104269
H84   H     H_    0.810843 0.036248 0.963296 0.100124
H85   H     H_    0.188430 0.035492 0.036488 0.098857
H86   H     H_    0.310884 0.536163 0.963317 0.100073
H87   H     H_    0.688462 0.535554 0.036503 0.098918
H88   H     H_    0.535068 0.489427 0.951477 0.223222
H89   H     H_    0.652367 0.887418 0.032171 0.106041
H90   H     H_    0.460174 0.493231 0.960351 0.225482
H91   H     H_    0.477911 0.495188 0.046165 0.223992
H92   H     H_    0.552739 0.488225 0.037303 0.224955
H93   H     H_    0.035781 0.989060 0.951357 0.223167
H94   H     H_    0.960902 0.993464 0.960236 0.225504
H95   H     H_    0.978660 0.995465 0.046047 0.224029
H96   H     H_    0.053466 0.987892 0.037181 0.224924
N1    N     N_3   0.495172 0.449211 0.946390 -0.660223
N2    N     N_3   0.515820 0.449756 0.051633 -0.660435
N3    N     N_3   0.995782 0.949141 0.946292 -0.660206
N4    N     N_3   0.016449 0.949743 0.051533 -0.660431
O1    O     O_R   0.769900 0.064540 0.196060 -0.520908
O2    O     O_R   0.433710 0.069580 0.694600 -0.519521
O3    O     O_R   0.066290 0.569580 0.305400 -0.519764
O4    O     O_R   0.933710 0.569580 0.694600 -0.519510
O5    O     O_R   0.680760 0.993330 0.302620 -0.501694
O6    O     O_R   0.319240 0.993330 0.697380 -0.501684
O7    O     O_R   0.180760 0.493330 0.302620 -0.501697
O8    O     O_R   0.819240 0.493330 0.697380 -0.501682
O9    O     O_3   0.668770 0.168760 0.250420 -0.250338
O10   O     O_3   0.331230 0.168760 0.749580 -0.250557
O11   O     O_3   0.168770 0.668760 0.250420 -0.250335
O12   O     O_R   0.230100 0.064540 0.803940 -0.520751
O13   O     O_3   0.831230 0.668760 0.749580 -0.250561
O14   O     O_R   0.750800 0.274080 0.199250 -0.506616
O15   O     O_R   0.249200 0.274080 0.800750 -0.506628
O16   O     O_R   0.250800 0.774080 0.199250 -0.506605
O17   O     O_R   0.749200 0.774080 0.800750 -0.506637
O18   O     O_R   0.669990 0.371670 0.194150 -0.512975
O19   O     O_R   0.330010 0.371670 0.805850 -0.512569
O20   O     O_R   0.169990 0.871670 0.194150 -0.512996
O21   O     O_R   0.830010 0.871670 0.805850 -0.512552
O22   O     O_R   0.574600 0.238480 0.197800 -0.503281
O23   O     O_R   0.269900 0.564540 0.196060 -0.520908
O24   O     O_R   0.425400 0.238480 0.802200 -0.502396
O25   O     O_R   0.074600 0.738480 0.197800 -0.503335
O26   O     O_R   0.925400 0.738480 0.802200 -0.502344
O27   O     O_R   0.566130 0.068680 0.194240 -0.522817
O28   O     O_R   0.433870 0.068680 0.805760 -0.523411
O29   O     O_R   0.066130 0.568680 0.194240 -0.522776
O30   O     O_R   0.933870 0.568680 0.805760 -0.523435
O31   O     O_R   0.680610 0.992490 0.199570 -0.502805
O32   O     O_R   0.319390 0.992490 0.800430 -0.503111
O33   O     O_R   0.180610 0.492490 0.199570 -0.502788
O34   O     O_R   0.730100 0.564540 0.803940 -0.520753
O35   O     O_R   0.819390 0.492490 0.800430 -0.503127
O36   O     O_R   0.770060 0.065440 0.307230 -0.523357
O37   O     O_R   0.229940 0.065440 0.692770 -0.523315
O38   O     O_R   0.270060 0.565440 0.307230 -0.523358
O39   O     O_R   0.729940 0.565440 0.692770 -0.523315
O40   O     O_R   0.750960 0.274920 0.302300 -0.523027
O41   O     O_R   0.249040 0.274920 0.697700 -0.523000
O42   O     O_R   0.250960 0.774920 0.302300 -0.523023
O43   O     O_R   0.749040 0.774920 0.697700 -0.523004
O44   O     O_R   0.670160 0.372580 0.305320 -0.448907
O45   O     O_R   0.574760 0.239320 0.300850 -0.504687
O46   O     O_R   0.329840 0.372580 0.694680 -0.448864
O47   O     O_R   0.170160 0.872580 0.305320 -0.448905
O48   O     O_R   0.829840 0.872580 0.694680 -0.448867
O49   O     O_R   0.425240 0.239320 0.699150 -0.504625
O50   O     O_R   0.074760 0.739320 0.300850 -0.504686
O51   O     O_R   0.925240 0.739320 0.699150 -0.504624
O52   O     O_R   0.566290 0.069580 0.305400 -0.519753

loop_
_geom_bond_atom_site_label_1
_geom_bond_atom_site_label_2
_ccdc_geom_bond_type
C21   C26   A    
C34   C56   A    
C132  C150  A    
C107  C112  A    
C123  H6    S    
C16   H30   S    
C51   H52   S    
C120  C144  S    
C136  C140  A    
C117  C133  S    
C79   C87   A    
C7    H20   S    
C135  C139  A    
C5    H18   S    
C52   H44   S    
H94   N3    S    
C86   H39   S    
C97   C124  A    
C138  H78   S    
C95   C99   A    
C111  O21   A    
C29   C33   A    
C126  C143  A    
C67   O50   A    
C137  C141  A    
C44   F2    S    
C98   C169  S    
C45   F3    S    
C120  O30   A    
C162  C171  A    
C68   C90   A    
C128  H73   S    
C25   C60   S    
C107  H83   S    
C36   H32   S    
C81   C86   A    
C83   H36   S    
Cr12  O52   S    
H92   N2    S    
Cr8   O45   S    
C14   H28   S    
C80   C83   A    
C2    H62   S    
C25   C29   A    
C27   C31   A    
Cr11  O13   S    
C47   C64   A    
C117  O27   A    
C99   H66   S    
C39   O40   A    
C118  O28   A    
C17   C21   A    
C135  H45   S    
Cr12  O31   S    
C28   H55   S    
C108  C113  A    
C19   C23   A    
C22   C58   S    
Cr3   O29   S    
C156  C160  A    
C16   C20   A    
Cr7   O39   S    
Cr10  O25   S    
C31   H59   S    
C164  C173  A    
C163  C172  A    
C4    H19   S    
C127  C145  A    
C130  H75   S    
C89   C150  S    
Cr6   O23   S    
C36   C44   A    
C37   C45   A    
C160  C164  A    
Cr11  O48   S    
C43   C61   A    
C170  C174  A    
C152  C157  A    
C49   C62   A    
C114  H2    S    
C40   O41   A    
C109  C145  S    
C51   C64   A    
C140  C145  A    
C141  H86   S    
C66   C153  S    
C165  O1    A    
C53   C58   A    
C138  C151  A    
C82   C85   A    
C76   C155  A    
H88   N1    S    
Cr2   O10   S    
Cr3   O7    S    
C133  C166  A    
Cr12  O9    S    
C6    H21   S    
C77   C82   A    
C49   C53   A    
C134  C151  A    
C126  H71   S    
C51   C55   A    
C127  C131  A    
C129  C147  A    
C81   C88   A    
C48   C52   A    
C72   O38   A    
C103  C107  A    
C111  C148  S    
C129  H74   S    
C1    O18   A    
C65   O45   A    
C162  H24   S    
C85   C86   A    
C23   C59   S    
C124  H7    S    
C67   C154  S    
C165  O31   A    
Cr9   O49   S    
C76   C81   A    
C100  O20   A    
Cr11  O51   S    
C13   C57   A    
C170  C171  S    
C66   O2    A    
C127  H72   S    
C65   O52   A    
C118  C122  S    
C47   F4    S    
C24   H64   S    
C13   H65   S    
Cr3   O33   S    
C139  C143  A    
C98   C125  A    
C7    C156  A    
Cr11  O21   S    
C169  O35   A    
C50   C63   A    
C17   H40   S    
C54   C59   A    
C137  H67   S    
H91   N2    S    
C4    C152  A    
C69   C156  S    
C11   C33   A    
C50   H51   S    
C91   C92   A    
C70   O36   A    
Cr6   O42   S    
C68   C94   A    
C29   H57   S    
C83   C84   A    
C8    C12   A    
C166  H63   S    
C69   O4    A    
C23   C28   A    
C37   C59   A    
C109  C114  A    
C38   C60   A    
C114  C123  A    
C163  H25   S    
C26   C30   A    
C116  C125  A    
C137  C150  A    
C157  H9    S    
C161  C170  A    
C41   O47   A    
C19   H42   S    
Cr10  O50   S    
C112  C116  A    
C34   H31   S    
C46   C87   A    
C105  C109  A    
C96   C123  A    
C18   C22   A    
C142  C147  A    
C34   C43   A    
Cr5   O41   S    
C97   C168  S    
Cr7   O43   S    
H93   N3    S    
C8    C70   S    
C112  C147  S    
C105  H81   S    
C154  C159  A    
C128  C146  A    
C74   H12   S    
C35   C79   A    
C70   O5    A    
Cr5   O10   S    
C116  H4    S    
C113  C121  A    
H95   N4    S    
C96   C101  A    
C172  C176  A    
C38   H35   S    
C10   C72   S    
C161  H22   S    
C72   O7    A    
Cr1   O1    S    
C75   C122  A    
Cr7   O13   S    
Cr3   O3    S    
Cr8   O44   S    
C136  C149  A    
Cr4   O35   S    
Cr10  O47   S    
C15   C19   A    
C39   C64   S    
C50   C54   A    
C40   C63   S    
H96   N4    S    
Cr8   O22   S    
C54   H47   S    
C3    C7    A    
C46   C92   A    
C20   C25   A    
C126  C130  A    
C98   C103  A    
C89   O19   A    
C35   C166  A    
C176  H17   S    
C136  H56   S    
Cr1   O14   S    
Cr9   O46   S    
C118  O24   A    
C125  H8    S    
C119  O29   A    
C12   C17   A    
C55   H48   S    
C167  O32   A    
C97   C102  A    
C93   N4    S    
Cr8   O9    S    
C95   C121  A    
C37   H33   S    
C99   C104  A    
C4    C174  A    
C55   C60   A    
Cr4   O4    S    
C5    C175  A    
C41   C62   S    
Cr12  O27   S    
C95   C165  S    
C2    C122  A    
Cr9   O10   S    
C138  C142  A    
C132  H77   S    
C131  H76   S    
Cr5   O12   S    
Cr6   O11   S    
C142  H87   S    
C9    C14   A    
C104  H80   S    
C11   C16   A    
C28   C32   A    
C20   H43   S    
C66   O49   A    
C96   C167  S    
C84   H37   S    
C6    C154  A    
Cr1   O40   S    
C141  C146  A    
C130  C148  A    
C88   C90   A    
C11   C73   S    
C174  H15   S    
C157  C161  A    
C104  C108  A    
C77   H23   S    
C164  H26   S    
C115  H3    S    
Cr9   O24   S    
C115  C124  A    
C140  H85   S    
C85   H38   S    
C9    C71   S    
C21   C56   S    
C100  C149  S    
C82   C90   A    
C8    C30   A    
C42   O43   A    
C73   O39   A    
C24   C144  A    
C103  H70   S    
C1    C151  S    
C71   O6    A    
C24   C68   A    
C129  C134  A    
C119  O25   A    
C111  O17   A    
C74   C78   A    
C67   O3    A    
C71   O37   A    
C175  H14   S    
C110  C115  A    
C108  C143  S    
Cr5   O37   S    
C94   N3    S    
C113  H89   S    
C101  H68   S    
C91   N2    S    
C93   C94   A    
C14   C18   A    
Cr10  O11   S    
C106  H82   S    
Cr9   O19   S    
C49   H50   S    
C18   H41   S    
C2    C46   A    
C10   C32   A    
C3    H16   S    
C80   C87   A    
C36   C58   A    
C10   C15   A    
C89   O15   A    
Cr7   O34   S    
C74   C133  A    
C153  C158  A    
Cr10  O20   S    
C13   C155  A    
C160  H13   S    
Cr2   O32   S    
C3    C173  A    
C167  O12   A    
C92   N1    S    
Cr2   O2    S    
C120  O26   A    
Cr2   O28   S    
C75   C80   A    
C12   H27   S    
C26   H53   S    
C39   O44   A    
C57   C93   A    
C73   O8    A    
Cr8   O18   S    
C128  C132  A    
C117  O22   A    
C101  C105  A    
C102  H69   S    
C76   H34   S    
C27   H54   S    
C9    C31   A    
C78   C79   A    
C169  O34   A    
C44   C62   A    
C134  H79   S    
Cr6   O38   S    
C171  C175  A    
C45   C63   A    
C30   H58   S    
Cr1   O36   S    
C15   H29   S    
C40   O46   A    
H90   N1    S    
C159  H11   S    
Cr4   O8    S    
Cr1   O9    S    
Cr7   O17   S    
Cr4   O30   S    
Cr2   O6    S    
C168  O23   A    
Cr3   O11   S    
C42   C61   S    
C121  H5    S    
C38   C47   A    
Cr12  O5    S    
C75   H1    S    
C158  H10   S    
C159  C163  A    
C139  H84   S    
C168  O33   A    
C172  C173  S    
C106  C110  A    
Cr4   O13   S    
C119  C155  S    
C48   H49   S    
C53   H46   S    
C1    O14   A    
C32   H60   S    
C69   O51   A    
C57   C88   A    
C22   C27   A    
C65   C152  S    
C33   H61   S    
C77   C144  A    
C110  C146  S    
C48   C61   A    
C6    C176  A    
C5    C153  A    
Cr5   O15   S    
Cr6   O16   S    
C102  C106  A    
C131  C149  A    
C158  C162  A    
C100  O16   A    
C78   C84   A    
C42   O48   A    
C43   F1    S    
C135  C148  A    
C41   O42   A    
Cr11  O26   S    
C52   C56   A    
C35   C91   A    
