data_mof_unit_23940.cif
_audit_creation_date              2012-12-11T14:00:04-0500
_audit_creation_method            fapswitch 2.2
_symmetry_space_group_name_H-M    P1
_symmetry_Int_Tables_number       1
_space_group_crystal_system       triclinic
_cell_length_a                    11.274619
_cell_length_b                    11.242583
_cell_length_c                    18.630012
_cell_angle_alpha                 90.299986
_cell_angle_beta                  90.247552
_cell_angle_gamma                 120.043825
_cell_volume                      2044.08931085

loop_
_atom_site_label
_atom_site_type_symbol
_atom_type_description
_atom_site_fract_x
_atom_site_fract_y
_atom_site_fract_z
_atom_type_partial_charge
C1    C     C_R   0.542816 0.479662 0.852706 0.559446
C2    C     C_R   0.478841 0.546145 0.353243 0.556454
C3    C     C_R   0.060068 0.519101 0.350168 0.570129
C4    C     C_R   0.459368 0.940596 0.350131 0.557864
C5    C     C_2   0.970592 0.478286 0.571981 -0.091927
C6    C     C_2   0.486469 0.506201 0.584963 -0.109706
C7    C     C_2   0.507767 0.030174 0.571450 -0.100250
C8    C     C_2   0.514827 0.022312 0.414605 -0.109348
C9    C     C_2   0.493406 0.521756 0.427932 -0.089767
C10   C     C_2   0.980591 0.493666 0.414758 -0.105226
C11   C     C_2   0.941579 0.378456 0.451080 -0.163621
C12   C     C_R   0.521227 0.063757 0.852790 0.561201
C13   C     C_2   0.540469 0.630523 0.472969 -0.148537
C14   C     C_2   0.439826 0.062614 0.451068 -0.163384
C15   C     C_2   0.462493 0.093560 0.527099 -0.150070
C16   C     C_2   0.562364 0.621635 0.548907 -0.164343
C17   C     C_2   0.910133 0.369452 0.526864 -0.148105
C18   C     C_2   0.035029 0.515867 0.911332 -0.112024
C19   C     C_2   0.497808 0.504397 0.921099 -0.111150
C20   C     C_2   0.498266 0.995379 0.921332 -0.110723
C21   C     C_2   0.501089 0.002993 0.078192 -0.108765
C22   C     C_2   0.499248 0.496898 0.077682 -0.106561
C23   C     C_R   0.940701 0.459566 0.851035 0.561799
C24   C     C_2   0.083174 0.532623 0.064308 -0.105810
C25   C     C_2   0.100459 0.640176 0.025174 -0.167567
C26   C     C_2   0.390633 0.413910 0.036429 -0.170016
C27   C     C_2   0.588844 0.983432 0.038303 -0.162200
C28   C     C_2   0.605425 0.015931 0.962056 -0.163793
C29   C     C_2   0.406441 0.397937 0.960018 -0.166218
C30   C     C_2   0.044393 0.618743 0.951947 -0.164397
C31   C     C_R   0.478345 0.542234 0.146982 0.553830
C32   C     C_R   0.128265 0.547810 0.138458 0.564848
C33   C     C_R   0.456866 0.935775 0.147039 0.549353
C34   C     C_R   0.540814 0.480854 0.649754 0.554493
C35   C     C_R   0.521399 0.067679 0.646511 0.550055
C36   C     C_R   0.932062 0.453675 0.646640 0.552215
Cr1   Cr    Cr6+3 0.464030 0.233680 0.750360 1.021186
Cr2   Cr    Cr6+3 0.766320 0.230350 0.750360 1.020834
Cr3   Cr    Cr6+3 0.769650 0.535970 0.750360 1.027094
Cr4   Cr    Cr6+3 0.233680 0.464030 0.249640 1.019648
Cr5   Cr    Cr6+3 0.230350 0.766320 0.249640 1.025031
Cr6   Cr    Cr6+3 0.535970 0.769650 0.249640 1.018134
H1    H     H_    0.943271 0.291235 0.426769 0.153474
H2    H     H_    0.541532 0.960609 0.552427 0.084415
H3    H     H_    0.393465 0.422011 0.561685 0.103906
H4    H     H_    0.038405 0.582263 0.553741 0.094523
H5    H     H_    0.145029 0.742163 0.049022 0.151696
H6    H     H_    0.287613 0.359859 0.058056 0.150302
H7    H     H_    0.646748 0.938964 0.060918 0.157297
H8    H     H_    0.708121 0.061818 0.940228 0.157040
H9    H     H_    0.345922 0.295836 0.936673 0.156433
H10   H     H_    0.999029 0.679316 0.934565 0.151008
H11   H     H_    0.031995 0.429155 0.041952 0.112079
H12   H     H_    0.574261 0.733190 0.452860 0.151015
H13   H     H_    0.602330 0.547789 0.056024 0.112818
H14   H     H_    0.446774 0.051456 0.055705 0.109647
H15   H     H_    0.395243 0.945553 0.943081 0.106553
H16   H     H_    0.554338 0.607115 0.944290 0.109070
H17   H     H_    0.086470 0.460232 0.927437 0.107119
H18   H     H_    0.351159 0.061032 0.426867 0.154175
H19   H     H_    0.430025 0.163232 0.547917 0.153756
H20   H     H_    0.650796 0.709045 0.573581 0.154026
H21   H     H_    0.842060 0.266630 0.546881 0.155612
H22   H     H_    0.971128 0.577635 0.437631 0.109512
H23   H     H_    0.458284 0.417925 0.446260 0.087074
H24   H     H_    0.608099 0.031862 0.437509 0.096606
O1    O     O_R   0.434100 0.092480 0.829780 -0.516323
O2    O     O_R   0.362730 0.477510 0.175360 -0.515090
O3    O     O_R   0.114780 0.637270 0.175360 -0.489387
O4    O     O_R   0.522490 0.885220 0.175360 -0.499525
O5    O     O_R   0.432250 0.092620 0.670380 -0.513503
O6    O     O_R   0.907380 0.339630 0.670380 -0.518055
O7    O     O_R   0.660370 0.567750 0.670380 -0.512928
O8    O     O_R   0.092620 0.432250 0.329620 -0.510149
O9    O     O_R   0.339630 0.907380 0.329620 -0.511159
O10   O     O_R   0.567750 0.660370 0.329620 -0.513340
O11   O     O_R   0.475790 0.362860 0.676880 -0.508144
O12   O     O_R   0.907520 0.341620 0.829780 -0.518860
O13   O     O_R   0.637140 0.112930 0.676880 -0.504200
O14   O     O_R   0.887070 0.524210 0.676880 -0.496314
O15   O     O_R   0.362860 0.475790 0.323120 -0.495656
O16   O     O_R   0.112930 0.637140 0.323120 -0.493958
O17   O     O_R   0.524210 0.887070 0.323120 -0.505651
O18   O     O_3   0.666667 0.333333 0.749450 -0.250658
O19   O     O_3   0.333333 0.666667 0.250550 -0.271332
O20   O     O_R   0.658380 0.565900 0.829780 -0.516297
O21   O     O_R   0.092480 0.434100 0.170220 -0.515614
O22   O     O_R   0.341620 0.907520 0.170220 -0.527915
O23   O     O_R   0.565900 0.658380 0.170220 -0.513665
O24   O     O_R   0.477510 0.362730 0.824640 -0.498696
O25   O     O_R   0.637270 0.114780 0.824640 -0.497264
O26   O     O_R   0.885220 0.522490 0.824640 -0.495579

loop_
_geom_bond_atom_site_label_1
_geom_bond_atom_site_label_2
_ccdc_geom_bond_type
C8    H24   S    
C1    O24   A    
C6    H3    S    
C12   O25   A    
C4    C8    S    
Cr1   O24   S    
Cr4   O21   S    
C33   O22   A    
Cr3   O18   S    
C34   O11   A    
C21   C33   S    
Cr2   O13   S    
C5    C36   S    
Cr6   O4    S    
C3    O8    A    
C9    C13   D    
C4    O9    A    
C28   H8    S    
C31   O23   A    
Cr1   O18   S    
C11   H1    S    
C18   C30   D    
C25   H5    S    
C20   C28   D    
C26   H6    S    
C7    C15   D    
C21   C27   D    
C35   O5    A    
C16   H20   S    
C19   H16   S    
C31   O2    A    
C12   O1    A    
Cr2   O6    S    
C1    C19   S    
C22   C31   S    
C18   C23   S    
C24   C25   D    
C36   O14   A    
C25   C30   S    
Cr2   O12   S    
C24   H11   S    
C32   O21   A    
Cr1   O11   S    
Cr2   O25   S    
C6    C34   S    
Cr4   O19   S    
C24   C32   S    
Cr5   O9    S    
C12   C20   S    
C3    O16   A    
C15   H19   S    
Cr6   O19   S    
C7    H2    S    
C32   O3    A    
C33   O4    A    
Cr1   O5    S    
Cr4   O2    S    
C19   C29   D    
Cr3   O26   S    
C2    O10   A    
Cr5   O3    S    
C13   H12   S    
C29   H9    S    
C14   H18   S    
Cr5   O22   S    
C30   H10   S    
C11   C17   S    
C8    C14   D    
Cr2   O18   S    
C14   C15   S    
C7    C35   S    
Cr4   O15   S    
C10   H22   S    
Cr6   O17   S    
C21   H14   S    
C22   H13   S    
Cr5   O19   S    
C5    H4    S    
Cr6   O10   S    
Cr6   O23   S    
Cr3   O14   S    
C3    C10   S    
C17   H21   S    
C4    O17   A    
Cr5   O16   S    
Cr1   O1    S    
C35   O13   A    
Cr4   O8    S    
Cr3   O7    S    
C23   O12   A    
C9    H23   S    
C10   C11   D    
C34   O7    A    
C6    C16   D    
C36   O6    A    
C18   H17   S    
C1    O20   A    
C5    C17   D    
C26   C29   S    
C22   C26   D    
C13   C16   S    
C27   C28   S    
C23   O26   A    
C2    O15   A    
Cr3   O20   S    
C20   H15   S    
C2    C9    S    
C27   H7    S    
