data_mof_unit_42176.cif
_audit_creation_date              2012-12-10T17:48:48-0500
_audit_creation_method            fapswitch 2.2
_symmetry_space_group_name_H-M    P1
_symmetry_Int_Tables_number       1
_space_group_crystal_system       triclinic
_cell_length_a                    15.739678
_cell_length_b                    10.723906
_cell_length_c                    9.907181
_cell_angle_alpha                 88.951643
_cell_angle_beta                  89.980657
_cell_angle_gamma                 91.667161
_cell_volume                      1671.25298436

loop_
_atom_site_label
_atom_site_type_symbol
_atom_type_description
_atom_site_fract_x
_atom_site_fract_y
_atom_site_fract_z
_atom_type_partial_charge
C1    C     C_R   0.505236 0.259886 0.502226 0.863857
C2    C     C_R   0.490111 0.038112 0.877866 0.264018
C3    C     C_R   0.443911 0.926046 0.865860 -0.162008
C4    C     C_R   0.338429 0.499028 0.500094 0.889701
C5    C     C_R   0.432314 0.874202 0.739319 -0.213617
C6    C     C_R   0.468177 0.933325 0.622870 0.097933
C7    C     C_R   0.497441 0.057082 0.631051 0.046205
C8    C     C_R   0.508819 0.125795 0.508059 -0.104960
C9    C     C_R   0.510497 0.065028 0.384748 -0.221049
C10   C     C_R   0.499121 0.938194 0.380944 -0.213667
C11   C     C_R   0.480334 0.871430 0.499795 -0.109169
C12   C     C_3   0.951043 0.452029 0.643085 -0.128552
C13   C     C_R   0.385297 0.341209 0.142495 -0.260159
C14   C     C_R   0.326896 0.264785 0.074361 0.008231
C15   C     C_R   0.327641 0.263375 0.932867 0.183381
C16   C     C_R   0.491318 0.738863 0.499379 0.876916
C17   C     C_R   0.386520 0.340151 0.862845 -0.186189
C18   C     C_R   0.443852 0.421294 0.929259 0.108650
C19   C     C_R   0.443602 0.421568 0.073548 0.155628
C20   C     C_R   0.553548 0.575640 0.069985 -0.116824
C21   C     C_R   0.553460 0.575705 0.926821 -0.103156
C22   C     C_R   0.661615 0.499917 0.499934 0.914326
C23   C     C_3   0.917359 0.494293 0.501803 0.280568
C24   C     C_3   0.049603 0.453612 0.641053 -0.450409
C25   C     C_3   0.046181 0.398171 0.394321 -0.132710
C26   C     C_3   0.947691 0.401519 0.394884 -0.456637
C27   C     C_1   0.750460 0.497637 0.500043 -0.178617
C28   C     C_3   0.082753 0.492801 0.498693 0.275080
C29   C     C_1   0.919867 0.529904 0.753283 0.175372
C30   C     C_3   0.512068 0.085132 0.015183 -0.952861
C31   C     C_1   0.268355 0.186784 0.153073 0.165289
C32   C     C_3   0.268096 0.181035 0.851982 -0.902694
C33   C     C_1   0.079946 0.422238 0.256650 0.185415
C34   C     C_3   0.954009 0.626081 0.463987 -0.394560
C35   C     C_3   0.051913 0.625828 0.465099 -0.391541
C36   C     C_1   0.825728 0.495641 0.500621 -0.099482
C37   C     C_1   0.174336 0.493960 0.499658 -0.099219
C38   C     C_1   0.249618 0.496188 0.500103 -0.168592
C39   C     C_R   0.515675 0.104498 0.760951 -0.177592
H1    H     H_    0.927484 0.354827 0.664810 0.127252
H2    H     H_    0.071930 0.358866 0.668526 0.160978
H3    H     H_    0.383638 0.334419 0.249655 0.221136
H4    H     H_    0.386171 0.332867 0.755979 0.222662
H5    H     H_    0.597055 0.637676 0.871742 0.155462
H6    H     H_    0.065377 0.302596 0.424816 0.133160
H7    H     H_    0.921094 0.306226 0.418416 0.160762
H8    H     H_    0.922486 0.428837 0.293739 0.189030
H9    H     H_    0.076437 0.692639 0.541553 0.175886
H10   H     H_    0.076807 0.658882 0.365147 0.183838
H11   H     H_    0.931397 0.696268 0.536084 0.179570
H12   H     H_    0.077005 0.518451 0.717415 0.190806
H13   H     H_    0.543119 0.179441 0.010173 0.243998
H14   H     H_    0.453402 0.089604 0.076598 0.250070
H15   H     H_    0.556087 0.019919 0.065382 0.236514
H16   H     H_    0.224298 0.122551 0.915781 0.251023
H17   H     H_    0.229090 0.240022 0.784319 0.236474
H18   H     H_    0.305631 0.117884 0.789164 0.247290
H19   H     H_    0.931591 0.654788 0.361770 0.178646
H20   H     H_    0.522316 0.115668 0.291047 0.183712
H21   H     H_    0.554003 0.188535 0.773854 0.174705
H22   H     H_    0.419903 0.876337 0.954781 0.153178
H23   H     H_    0.396515 0.786760 0.733833 0.174193
H24   H     H_    0.507032 0.892455 0.285310 0.171452
H25   H     H_    0.597239 0.637502 0.122517 0.145628
N1    N     N_R   0.499210 0.498800 0.142780 -0.110795
N2    N     N_R   0.499180 0.498720 0.857170 -0.119309
N3    N     N_1   0.895435 0.590819 0.839515 -0.211859
N4    N     N_1   0.221529 0.124451 0.216397 -0.219329
N5    N     N_1   0.106466 0.440988 0.148981 -0.200347
O1    O     O_R   0.500000 0.316780 0.614690 -0.655109
O2    O     O_R   0.499990 0.316750 0.385360 -0.637556
O3    O     O_R   0.377150 0.500020 0.614720 -0.639764
O4    O     O_R   0.377140 0.499990 0.385380 -0.625818
O5    O     O_R   0.500010 0.683250 0.614640 -0.621171
O6    O     O_R   0.500000 0.683220 0.385310 -0.620209
O7    O     O_R   0.622860 0.500010 0.614620 -0.610051
O8    O     O_R   0.622850 0.499980 0.385280 -0.610590
Zn1   Zn    Zn3+2 0.500010 0.500020 0.653130 0.928067
Zn2   Zn    Zn3+2 0.499990 0.499980 0.346870 0.940107

loop_
_geom_bond_atom_site_label_1
_geom_bond_atom_site_label_2
_ccdc_geom_bond_type
C20   H25   S    
N1    Zn2   S    
C12   C29   S    
O1    Zn1   S    
C1    C8    S    
C10   H24   S    
C22   O7    A    
C14   C31   S    
O2    Zn2   S    
C7    C8    A    
C25   C28   S    
C30   H15   S    
C12   C23   S    
C1    O2    A    
C16   O5    A    
O7    Zn1   S    
C18   C19   A    
C5    C6    A    
C21   N2    A    
C16   O6    A    
C34   C35   S    
C23   C26   S    
O3    Zn1   S    
C29   N3    T    
C2    C39   A    
C28   C35   S    
C8    C9    A    
C35   H10   S    
C9    C10   A    
C32   H16   S    
C33   N5    T    
C24   H12   S    
C3    H22   S    
C13   C14   A    
C24   H2    S    
C32   H18   S    
C35   H9    S    
C13   H3    S    
O8    Zn2   S    
C31   N4    T    
N2    Zn1   S    
C30   H14   S    
C34   H11   S    
C13   C19   A    
C20   N1    A    
C15   C32   S    
C6    C11   A    
C25   C26   S    
C9    H20   S    
C12   H1    S    
C17   H4    S    
C37   C38   T    
C21   H5    S    
C11   C16   S    
C23   C34   S    
C17   C18   A    
O4    Zn2   S    
C4    O4    A    
C26   H8    S    
C4    C38   S    
C22   C27   S    
C25   H6    S    
C4    O3    A    
C15   C17   A    
C30   H13   S    
C24   C28   S    
C22   O8    A    
C3    C5    A    
C6    C7    A    
C27   C36   T    
C18   N2    A    
C12   C24   S    
C1    O1    A    
C2    C30   S    
C2    C3    A    
C28   C37   S    
C39   H21   S    
C5    H23   S    
C19   N1    A    
C10   C11   A    
C26   H7    S    
C20   C21   A    
C23   C36   S    
O5    Zn1   S    
C34   H19   S    
C7    C39   A    
C14   C15   A    
O6    Zn2   S    
C32   H17   S    
C25   C33   S    
