data_mof_unit_15672.cif
_audit_creation_date              2012-12-11T17:02:18-0500
_audit_creation_method            fapswitch 2.2
_symmetry_space_group_name_H-M    P1
_symmetry_Int_Tables_number       1
_space_group_crystal_system       triclinic
_cell_length_a                    21.649423
_cell_length_b                    7.084364
_cell_length_c                    14.832295
_cell_angle_alpha                 90.359152
_cell_angle_beta                  106.082099
_cell_angle_gamma                 90.115699
_cell_volume                      2185.77981385

loop_
_atom_site_label
_atom_site_type_symbol
_atom_type_description
_atom_site_fract_x
_atom_site_fract_y
_atom_site_fract_z
_atom_type_partial_charge
O1    O     O_R   0.585850 0.505770 0.002130 -0.535689
O2    O     O_R   0.414150 0.005770 0.997870 -0.535382
O3    O     O_R   0.467530 0.173560 0.861970 -0.538733
O4    O     O_R   0.532470 0.673560 0.138030 -0.538650
C1    C     C_R   0.455434 0.343597 0.825288 0.683076
C2    C     C_R   0.544487 0.845170 0.174598 0.683364
O5    O     O_R   0.588690 0.175900 0.993250 -0.546308
O6    O     O_R   0.411310 0.675900 0.006750 -0.546489
O7    O     O_R   0.536170 0.007950 0.130090 -0.536439
O8    O     O_R   0.463830 0.507950 0.869910 -0.536905
C3    C     C_R   0.615059 0.344758 0.997887 0.693295
C4    C     C_R   0.384957 0.844525 0.002198 0.691939
O9    O     O_3   0.482630 0.339970 0.044740 -0.372511
O10   O     O_3   0.517370 0.839970 0.955260 -0.372653
V1    V     V_3+5 0.503220 0.064200 0.991700 1.412294
V2    V     V_3+5 0.496780 0.564200 0.008300 1.411338
C5    C     C_R   0.292041 0.013661 0.037974 0.038035
C6    C     C_R   0.708261 0.513064 0.962494 0.039685
C7    C     C_R   0.317014 0.853047 0.005181 -0.090053
C8    C     C_R   0.683025 0.353341 0.995077 -0.092331
C9    C     C_R   0.274852 0.699333 0.974881 -0.180152
C10   C     C_R   0.724885 0.200108 0.025069 -0.178851
H1    H     H_    0.291565 0.573768 0.947502 0.145720
H2    H     H_    0.707946 0.075289 0.052327 0.147137
C11   C     C_R   0.209464 0.711650 0.972818 -0.180200
C12   C     C_R   0.790259 0.212066 0.026970 -0.184318
H3    H     H_    0.177785 0.594852 0.944951 0.192016
H4    H     H_    0.821729 0.095882 0.054680 0.191784
C13   C     C_R   0.183984 0.878005 0.000344 -0.098217
C14   C     C_R   0.816011 0.377584 0.999582 -0.100336
C15   C     C_R   0.227061 0.026026 0.034974 0.025724
C16   C     C_R   0.773238 0.525128 0.965385 0.029991
C17   C     C_3   0.224036 0.227115 0.004313 0.192026
C18   C     C_3   0.776750 0.726818 0.996534 0.193580
C19   C     C_3   0.295253 0.214396 0.010077 -0.452206
C20   C     C_3   0.705538 0.714308 0.990927 -0.454046
H5    H     H_    0.212925 0.325915 0.056134 0.106162
H6    H     H_    0.788011 0.824451 0.944854 0.105586
H7    H     H_    0.326070 0.300876 0.068146 0.152595
H8    H     H_    0.674850 0.799756 0.933112 0.152886
H9    H     H_    0.306381 0.229093 0.941577 0.172732
H10   H     H_    0.694529 0.730312 0.059531 0.170826
C21   C     C_R   0.929269 0.879490 0.722945 -0.123264
C22   C     C_R   0.070613 0.389071 0.277412 -0.125755
C23   C     C_R   0.573001 0.856674 0.275914 -0.027075
C24   C     C_R   0.427118 0.347219 0.723686 -0.029707
C25   C     C_R   0.939799 0.825797 0.566773 -0.147727
C26   C     C_R   0.061611 0.445687 0.434235 -0.147513
C27   C     C_R   0.968645 0.846403 0.662792 0.347497
C28   C     C_R   0.032298 0.431011 0.338112 0.348462
C29   C     C_R   0.862512 0.891786 0.686114 -0.258298
C30   C     C_R   0.136821 0.360885 0.314061 -0.257662
C31   C     C_R   0.832613 0.869930 0.588908 0.086369
C32   C     C_R   0.167310 0.378104 0.411401 0.085813
C33   C     C_R   0.872838 0.836466 0.529623 0.052768
C34   C     C_R   0.128131 0.421464 0.471057 0.053294
C35   C     C_R   0.764373 0.878657 0.548848 0.077500
C36   C     C_R   0.235256 0.357191 0.451170 0.077988
C37   C     C_R   0.737768 0.853914 0.449725 0.052280
C38   C     C_R   0.262637 0.381016 0.550242 0.051777
C39   C     C_R   0.780228 0.820768 0.394104 -0.177113
C40   C     C_R   0.221151 0.423724 0.606210 -0.178743
C41   C     C_R   0.846190 0.812561 0.433437 -0.155447
C42   C     C_R   0.155446 0.442796 0.567251 -0.153961
C43   C     C_R   0.721861 0.911011 0.604510 -0.189596
C44   C     C_R   0.276725 0.313504 0.395267 -0.189249
C45   C     C_R   0.655895 0.919529 0.565202 -0.205041
C46   C     C_R   0.342390 0.293244 0.434261 -0.205018
C47   C     C_R   0.629277 0.896878 0.468991 0.141435
C48   C     C_R   0.369704 0.314599 0.530409 0.141693
C49   C     C_R   0.669581 0.863480 0.409597 0.082906
C50   C     C_R   0.330540 0.359869 0.590050 0.082605
C51   C     C_R   0.562297 0.908950 0.431626 -0.162103
C52   C     C_R   0.436128 0.287570 0.567548 -0.162780
C53   C     C_R   0.534373 0.889847 0.335512 -0.174557
C54   C     C_R   0.464470 0.301380 0.663746 -0.171915
C55   C     C_R   0.639701 0.842904 0.312179 -0.208964
C56   C     C_R   0.361098 0.378299 0.687467 -0.211216
H11   H     H_    0.876739 0.786517 0.387806 0.155206
H12   H     H_    0.125665 0.476096 0.613144 0.152374
H13   H     H_    0.666504 0.818957 0.261922 0.090824
H14   H     H_    0.335079 0.410304 0.737878 0.093727
H15   H     H_    0.482717 0.901988 0.307508 0.103709
H16   H     H_    0.515451 0.274590 0.691622 0.104501
H17   H     H_    0.625322 0.945109 0.610839 0.121613
H18   H     H_    0.372117 0.258559 0.388481 0.122075
H19   H     H_    0.970154 0.800018 0.520830 0.142941
H20   H     H_    0.032042 0.478671 0.480475 0.141883
H21   H     H_    0.835485 0.915899 0.736063 0.108339
H22   H     H_    0.163217 0.332042 0.263768 0.109292
H23   H     H_    0.764285 0.799852 0.319316 0.125358
H24   H     H_    0.237695 0.443851 0.681011 0.127608
H25   H     H_    0.737734 0.930960 0.679347 0.119715
H26   H     H_    0.260172 0.292404 0.320538 0.118871
H27   H     H_    0.531500 0.934949 0.476857 0.113443
H28   H     H_    0.466013 0.251841 0.522175 0.113461
O11   O     O_R   0.036080 0.231270 0.130120 -0.540017
O12   O     O_R   0.963920 0.731270 0.869880 -0.539986
O13   O     O_R   0.911300 0.558970 0.006750 -0.523680
O14   O     O_R   0.088700 0.058970 0.993250 -0.524197
C57   C     C_R   0.884977 0.389855 0.002306 0.690953
C58   C     C_R   0.115022 0.890092 0.997690 0.689940
O15   O     O_R   0.032450 0.561140 0.138040 -0.536047
O16   O     O_R   0.967550 0.061140 0.861960 -0.536558
O17   O     O_R   0.085870 0.728910 0.002130 -0.545938
O18   O     O_R   0.914130 0.228910 0.997870 -0.546445
C59   C     C_R   0.044393 0.393298 0.175134 0.678773
C60   C     C_R   0.955640 0.891687 0.824975 0.678584
O19   O     O_3   0.017320 0.394650 0.955270 -0.366687
O20   O     O_3   0.982680 0.894650 0.044730 -0.366376
V3    V     V_3+5 0.996780 0.670490 0.008300 1.476353
V4    V     V_3+5 0.003220 0.170490 0.991700 1.471484
O21   O     O_3   0.034835 0.832116 0.693948 -0.646033
H29   H     H_    0.049710 0.854952 0.762437 0.275034
O22   O     O_3   0.966690 0.460009 0.307282 -0.646149
H30   H     H_    0.950834 0.431981 0.239333 0.277282
O23   O     O_3   0.184328 0.253037 0.912294 -0.638370
H31   H     H_    0.196560 0.160163 0.869835 0.305727
O24   O     O_3   0.816617 0.754474 0.088557 -0.637640
H32   H     H_    0.804256 0.662496 0.130872 0.304053

loop_
_geom_bond_atom_site_label_1
_geom_bond_atom_site_label_2
_ccdc_geom_bond_type
C27   O21   S    
C17   O23   S    
C2    C23   S    
C46   H18   S    
C44   C46   A    
O1    C3    A    
O16   C60   A    
O2    C4    A    
C54   H16   S    
C2    O7    A    
C24   C54   A    
C25   C27   A    
C41   H11   S    
O5    C3    A    
C52   C54   A    
O15   V3    S    
C7    C9    A    
O19   V3    S    
C35   C37   A    
C38   C50   A    
C36   C38   A    
O22   H30   S    
C57   O18   A    
O12   C60   A    
C14   C57   S    
C58   O17   A    
C38   C40   A    
C28   O22   S    
C39   C41   A    
O20   V3    S    
C50   C56   A    
C17   C19   S    
C30   H22   S    
C36   C44   A    
C43   C45   A    
C33   C41   A    
C48   C52   A    
C40   C42   A    
C34   C42   A    
C47   C51   A    
C18   C20   S    
C44   H26   S    
C22   C30   A    
C26   C28   A    
O17   V3    S    
C25   C33   A    
C47   C49   A    
O6    V2    S    
C42   H12   S    
O14   C58   A    
C30   C32   A    
C31   C33   A    
C11   C13   A    
C32   C34   A    
C3    C8    S    
C45   H17   S    
C37   C39   A    
C15   C17   S    
C53   H15   S    
C52   H28   S    
C20   H8    S    
O4    C2    A    
O19   V4    S    
C24   C56   A    
O11   V4    S    
C31   C35   A    
C21   C27   A    
O18   V4    S    
C48   C50   A    
C17   H5    S    
C40   H24   S    
C29   C31   A    
C16   C18   S    
O4    V2    S    
C19   H7    S    
C56   H14   S    
C55   H13   S    
O6    C4    A    
O13   V3    S    
C26   H20   S    
O1    V2    S    
O2    V1    S    
O13   C57   A    
C8    C10   A    
C12   C14   A    
C9    H1    S    
C5    C15   A    
C10   H2    S    
C6    C16   A    
C51   C53   A    
C49   C55   A    
O3    V1    S    
O16   V4    S    
O21   H29   S    
C32   C36   A    
C22   C59   S    
C22   C28   A    
C18   O24   S    
C26   C34   A    
C9    C11   A    
O12   V3    S    
C18   H6    S    
C35   C43   A    
O3    C1    A    
C20   H10   S    
O15   C59   A    
O24   H32   S    
O14   V4    S    
C11   H3    S    
C1    C24   S    
C12   H4    S    
C23   C53   A    
O7    V1    S    
C1    O8    A    
C13   C15   A    
O8    V2    S    
O23   H31   S    
C29   H21   S    
C14   C16   A    
C21   C29   A    
C4    C7    S    
O5    V1    S    
C43   H25   S    
C5    C7    A    
C13   C58   S    
C6    C8    A    
C21   C60   S    
C19   H9    S    
O20   V4    S    
O11   C59   A    
C46   C48   A    
C10   C12   A    
O9    V2    S    
C51   H27   S    
O10   V1    S    
C23   C55   A    
C5    C19   S    
C45   C47   A    
C6    C20   S    
C39   H23   S    
C37   C49   A    
C25   H19   S    
