data_mof_unit_12030.cif
_audit_creation_date              2012-10-26T21:19:35-0400
_audit_creation_method            fapswitch 2.2
_symmetry_space_group_name_H-M    P1
_symmetry_Int_Tables_number       1
_space_group_crystal_system       triclinic
_cell_length_a                    10.806311
_cell_length_b                    15.124036
_cell_length_c                    13.858122
_cell_angle_alpha                 90.130488
_cell_angle_beta                  90.076081
_cell_angle_gamma                 89.671286
_cell_volume                      2264.85757051

loop_
_atom_site_label
_atom_site_type_symbol
_atom_type_description
_atom_site_fract_x
_atom_site_fract_y
_atom_site_fract_z
_atom_type_partial_charge
C1    C     C_R   0.496806 0.329799 0.499853 0.541019
C2    C     C_R   0.553637 0.813172 0.426812 -0.139603
C3    C     C_R   0.488254 0.233266 0.499368 0.009845
C4    C     C_R   0.494259 0.766019 0.499919 0.014421
C5    C     C_R   0.482785 0.187016 0.411642 -0.132869
C6    C     C_R   0.427855 0.811015 0.571601 -0.138022
C7    C     C_R   0.476983 0.095236 0.411187 -0.122009
C8    C     C_R   0.420318 0.902793 0.569957 -0.124193
C9    C     C_R   0.478746 0.048132 0.498394 0.036326
C10   C     C_R   0.481703 0.950735 0.497856 0.032913
C11   C     C_R   0.561871 0.564197 0.107660 -0.146965
C12   C     C_R   0.499018 0.669943 0.500057 0.542498
C13   C     C_R   0.390454 0.502018 0.893233 -0.147793
C14   C     C_R   0.562529 0.563182 0.208988 0.044215
C15   C     C_R   0.391441 0.501526 0.791805 0.031728
C16   C     C_R   0.262369 0.502591 0.499873 0.548175
C17   C     C_R   0.737864 0.497431 0.500081 0.546100
C18   C     C_R   0.434823 0.437007 0.210221 0.043949
C19   C     C_R   0.609498 0.499558 0.790750 0.043952
C20   C     C_R   0.432828 0.433783 0.108157 -0.039685
C21   C     C_R   0.614015 0.499433 0.892844 -0.035586
C22   C     C_R   0.498315 0.498876 0.055054 0.005803
C23   C     C_R   0.871940 0.495760 0.499893 -0.001950
C24   C     C_R   0.501705 0.500005 0.945949 0.008417
C25   C     C_R   0.251062 0.731903 0.315143 -0.096455
C26   C     C_R   0.772833 0.250012 0.670454 -0.108541
C27   C     C_R   0.186414 0.682418 0.383429 -0.068760
C28   C     C_R   0.812367 0.315302 0.606435 -0.058367
C29   C     C_R   0.122641 0.605889 0.355201 0.048417
C30   C     C_R   0.883747 0.386417 0.639997 0.038795
C31   C     C_R   0.123831 0.579820 0.257910 -0.082789
C32   C     C_R   0.914667 0.390858 0.738539 -0.108462
C33   C     C_R   0.189810 0.629034 0.190028 -0.105179
C34   C     C_R   0.128639 0.504423 0.499791 -0.002494
C35   C     C_R   0.873970 0.325745 0.802239 -0.114039
C36   C     C_R   0.253371 0.704940 0.218644 -0.097752
C37   C     C_R   0.802565 0.255608 0.768345 -0.115357
C38   C     C_R   0.932891 0.544994 0.428918 -0.151388
C39   C     C_R   0.068171 0.455300 0.570269 -0.153921
C40   C     C_R   0.363125 0.361509 0.060195 0.010121
C41   C     C_R   0.239500 0.345394 0.086000 -0.113974
C42   C     C_R   0.171984 0.279294 0.039292 -0.111280
C43   C     C_R   0.227549 0.227996 0.967283 -0.102881
C44   C     C_R   0.351120 0.242117 0.942508 -0.110785
C45   C     C_R   0.940040 0.449009 0.570657 -0.031278
C46   C     C_R   0.419008 0.308093 0.989072 -0.084535
C47   C     C_R   0.737367 0.497754 0.940386 0.014999
C48   C     C_R   0.828656 0.558425 0.912295 -0.113585
C49   C     C_R   0.946425 0.555536 0.953928 -0.119739
C50   C     C_R   0.974088 0.492408 0.024098 -0.108516
C51   C     C_R   0.884025 0.432330 0.053311 -0.122529
C52   C     C_R   0.766407 0.434383 0.011221 -0.090148
C53   C     C_R   0.061213 0.550208 0.428417 -0.033995
C54   C     C_R   0.481320 0.094745 0.586132 -0.129024
C55   C     C_R   0.548724 0.904999 0.426418 -0.126179
C56   C     C_R   0.484016 0.186592 0.586566 -0.144292
Cu1   Cu    Cu3+1 0.500000 0.499990 0.596430 0.934414
Cu2   Cu    Cu3+1 0.500000 0.500010 0.403570 0.937094
H1    H     H_    0.304599 0.742766 0.166062 0.099970
H2    H     H_    0.695374 0.498438 0.751417 0.144430
H3    H     H_    0.300217 0.790740 0.337168 0.114559
H4    H     H_    0.722052 0.193717 0.643828 0.112336
H5    H     H_    0.187164 0.703030 0.458341 0.092155
H6    H     H_    0.791205 0.308675 0.530354 0.100293
H7    H     H_    0.076307 0.520400 0.235376 0.096041
H8    H     H_    0.971987 0.443942 0.765637 0.110311
H9    H     H_    0.192662 0.608167 0.115351 0.096187
H10   H     H_    0.899987 0.328603 0.877504 0.125317
H11   H     H_    0.880256 0.581501 0.375320 0.124796
H12   H     H_    0.772292 0.204698 0.817585 0.099285
H13   H     H_    0.121798 0.417860 0.622531 0.125429
H14   H     H_    0.484410 0.060420 0.654554 0.099299
H15   H     H_    0.599188 0.940047 0.371130 0.102573
H16   H     H_    0.486312 0.220831 0.655290 0.129370
H17   H     H_    0.605585 0.779016 0.371096 0.111091
H18   H     H_    0.483227 0.221590 0.343275 0.123636
H19   H     H_    0.379791 0.775089 0.627622 0.117992
H20   H     H_    0.194908 0.384728 0.141464 0.088121
H21   H     H_    0.076471 0.267920 0.058806 0.098848
H22   H     H_    0.175031 0.177023 0.931020 0.103898
H23   H     H_    0.471481 0.061245 0.342492 0.100781
H24   H     H_    0.394392 0.201921 0.887174 0.098733
H25   H     H_    0.514798 0.317504 0.969253 0.103543
H26   H     H_    0.808745 0.607883 0.857965 0.098662
H27   H     H_    0.016451 0.602038 0.931505 0.099337
H28   H     H_    0.065530 0.489857 0.055377 0.098144
H29   H     H_    0.905838 0.383397 0.107684 0.098898
H30   H     H_    0.699067 0.385753 0.032986 0.104217
H31   H     H_    0.365764 0.936034 0.624694 0.102494
H32   H     H_    0.611616 0.615774 0.070322 0.107622
H33   H     H_    0.302447 0.503865 0.930561 0.102685
H34   H     H_    0.613275 0.613344 0.247934 0.117568
H35   H     H_    0.303862 0.502628 0.754372 0.126597
H36   H     H_    0.385249 0.387841 0.251286 0.123658
N1    N     N_R   0.500000 0.500020 0.258690 -0.225655
N2    N     N_R   0.500000 0.499980 0.741310 -0.230312
O1    O     O_R   0.500010 0.371450 0.581430 -0.494379
O2    O     O_R   0.499990 0.628550 0.418570 -0.506303
O3    O     O_R   0.500010 0.371460 0.418560 -0.516104
O4    O     O_R   0.499990 0.628540 0.581440 -0.497552
O5    O     O_R   0.319640 0.500000 0.581430 -0.525202
O6    O     O_R   0.680360 0.500000 0.418570 -0.506924
O7    O     O_R   0.319640 0.500010 0.418560 -0.487337
O8    O     O_R   0.680360 0.499990 0.581440 -0.507393

loop_
_geom_bond_atom_site_label_1
_geom_bond_atom_site_label_2
_ccdc_geom_bond_type
C23   C45   A    
C27   C29   A    
C41   C42   A    
C30   C45   S    
Cu2   O2    S    
Cu2   N1    S    
C36   H1    S    
C1    O3    A    
C40   C46   A    
C17   C23   S    
C19   N2    A    
C19   C21   A    
C17   O8    A    
C44   H24   S    
C2    C55   A    
C20   C40   S    
C11   C14   A    
C33   C36   A    
C31   H7    S    
C16   C34   S    
C9    C54   A    
Cu1   N2    S    
C31   C33   A    
Cu2   O6    S    
C4    C12   S    
C9    C10   S    
C12   O2    A    
C39   C45   A    
C38   H11   S    
C42   H21   S    
C37   H12   S    
C13   H33   S    
C18   N1    A    
C44   C46   A    
C54   C56   A    
C56   H16   S    
C34   C39   A    
C32   C35   A    
C49   H27   S    
C52   H30   S    
C4    C6    A    
C51   H29   S    
C15   N2    A    
C5    C7    A    
C6    H19   S    
C6    C8    A    
C43   H22   S    
Cu1   O4    S    
C48   H26   S    
C13   C24   A    
C1    C3    S    
C2    C4    A    
C17   O6    A    
C3    C56   A    
C16   O7    A    
C47   C48   A    
Cu1   O1    S    
C50   C51   A    
C25   H3    S    
C10   C55   A    
C14   H34   S    
C27   H5    S    
C28   H6    S    
C40   C41   A    
C7    H23   S    
C20   C22   A    
C13   C15   A    
C43   C44   A    
C18   H36   S    
C22   C24   S    
C42   C43   A    
C1    O1    A    
C14   N1    A    
C41   H20   S    
C33   H9    S    
C32   H8    S    
C7    C9    A    
Cu1   O8    S    
C48   C49   A    
C35   C37   A    
Cu2   O3    S    
C3    C5    A    
C15   H35   S    
C26   C37   A    
C47   C52   A    
C8    H31   S    
C19   H2    S    
C25   C27   A    
C23   C38   A    
Cu1   O5    S    
C11   C22   A    
C26   C28   A    
C5    H18   S    
C28   C30   A    
C26   H4    S    
C51   C52   A    
C29   C31   A    
C30   C32   A    
C11   H32   S    
Cu1   Cu2   S    
C38   C53   A    
C29   C53   S    
C35   H10   S    
C18   C20   A    
C12   O4    A    
C50   H28   S    
C25   C36   A    
C46   H25   S    
C55   H15   S    
C16   O5    A    
C54   H14   S    
C34   C53   A    
C8    C10   A    
C49   C50   A    
C21   C24   A    
C39   H13   S    
Cu2   O7    S    
C2    H17   S    
C21   C47   S    
