data_mof_unit_62790.cif
_audit_creation_date              2013-03-05T16:39:47-0500
_audit_creation_method            fapswitch 2.2
_symmetry_space_group_name_H-M    P1
_symmetry_Int_Tables_number       1
_space_group_crystal_system       triclinic
_cell_length_a                    14.771028
_cell_length_b                    16.006722
_cell_length_c                    16.956572
_cell_angle_alpha                 89.696784
_cell_angle_beta                  94.455179
_cell_angle_gamma                 90.107244
_cell_volume                      3996.96537261

loop_
_atom_site_label
_atom_site_type_symbol
_atom_site_description
_atom_site_fract_x
_atom_site_fract_y
_atom_site_fract_z
_atom_type_partial_charge
O1    O     O_R   0.575320 0.380310 0.499960 -0.548839
O2    O     O_R   0.424680 0.619690 0.500040 -0.548839
O3    O     O_R   0.424640 0.380310 0.500000 -0.572557
O4    O     O_R   0.575360 0.619690 0.500000 -0.572557
C1    C     C_R   0.499905 0.340897 0.500200 0.848196
C2    C     C_R   0.500095 0.659103 0.499800 0.848196
O5    O     O_R   0.583590 0.499240 0.613900 -0.544087
O6    O     O_R   0.416410 0.500760 0.386100 -0.544087
O7    O     O_R   0.432900 0.499240 0.613940 -0.559833
O8    O     O_R   0.567100 0.500760 0.386060 -0.559833
C3    C     C_R   0.511720 0.500391 0.651677 0.951461
C4    C     C_R   0.488280 0.499609 0.348323 0.951460
Cu1   Cu    Cu3+1 0.589220 0.500000 0.499980 1.088357
Cu2   Cu    Cu3+1 0.410780 0.500000 0.500020 1.088357
C5    C     C_R   0.520339 0.505666 0.738629 -0.311603
C6    C     C_R   0.479661 0.494334 0.261371 -0.311603
C7    C     C_R   0.462834 0.559081 0.778051 0.207857
C8    C     C_R   0.537166 0.440918 0.221949 0.207857
C9    C     C_R   0.472147 0.564573 0.860710 0.336493
C10   C     C_R   0.527853 0.435426 0.139290 0.336493
C11   C     C_R   0.535659 0.512845 0.904593 0.070491
C12   C     C_R   0.464340 0.487154 0.095407 0.070490
C13   C     C_R   0.595270 0.462012 0.865517 0.186091
C14   C     C_R   0.404729 0.537987 0.134483 0.186090
C15   C     C_R   0.588609 0.459308 0.781953 0.274597
C16   C     C_R   0.411390 0.540691 0.218046 0.274596
N1    N     N_2   0.537949 0.508117 0.988104 -0.147189
N2    N     N_2   0.462050 0.491882 0.011896 -0.147189
H1    H     H_    0.639507 0.082027 0.481905 0.212746
H2    H     H_    0.360493 0.917973 0.518094 0.212746
C17   C     C_R   0.582154 0.958431 0.486891 0.351200
C18   C     C_R   0.417846 0.041568 0.513109 0.351199
C19   C     C_R   0.501996 0.912685 0.497064 -0.046441
C20   C     C_R   0.498004 0.087315 0.502936 -0.046441
C21   C     C_R   0.421108 0.954183 0.509600 -0.235473
C22   C     C_R   0.578892 0.045816 0.490399 -0.235473
C23   C     C_1   0.501166 0.823098 0.498131 0.099582
C24   C     C_1   0.498834 0.176902 0.501869 0.099582
C25   C     C_1   0.499612 0.251889 0.500954 -0.045712
C26   C     C_1   0.500388 0.748111 0.499046 -0.045712
C27   C     C_R   0.944392 0.514376 0.430991 -0.128071
C28   C     C_R   0.055608 0.485624 0.569009 -0.128072
H3    H     H_    0.902066 0.525650 0.376879 0.203067
H4    H     H_    0.097934 0.474350 0.623121 0.203067
C29   C     C_R   0.902941 0.499614 0.501727 -0.173807
C30   C     C_R   0.097059 0.500386 0.498273 -0.173807
C31   C     C_R   0.960201 0.484983 0.571899 0.456098
C32   C     C_R   0.039799 0.515016 0.428101 0.456099
C33   C     C_1   0.802666 0.499870 0.500616 0.223764
C34   C     C_1   0.197334 0.500129 0.499384 0.223764
N3    N     N_1   0.276710 0.499980 0.499980 -0.133655
N4    N     N_1   0.723290 0.500020 0.500020 -0.133655
N5    N     N_R   0.601417 0.387613 0.265677 0.182147
O9    O     O_R   0.574534 0.337177 0.319597 -0.359513
O10   O     O_R   0.684598 0.382729 0.245885 -0.229646
N6    N     N_R   0.398583 0.612387 0.734323 0.182147
O11   O     O_R   0.425466 0.662823 0.680403 -0.359513
O12   O     O_R   0.315402 0.617270 0.754114 -0.229646
O13   O     O_3   0.579944 0.377203 0.103463 -0.580524
H5    H     H_    0.551257 0.364470 0.050153 0.373642
O14   O     O_3   0.420056 0.622797 0.896537 -0.580524
H6    H     H_    0.448742 0.635529 0.949847 0.373642
N7    N     N_R   0.658462 0.409261 0.911089 0.144242
O15   O     O_R   0.659956 0.329294 0.897818 -0.281123
O16   O     O_R   0.709838 0.439862 0.969796 -0.244242
N8    N     N_R   0.341536 0.590737 0.088911 0.144243
O17   O     O_R   0.340040 0.670703 0.102183 -0.281121
O18   O     O_R   0.290161 0.560136 0.030203 -0.244242
O19   O     O_3   0.646465 0.410974 0.740918 -0.665203
H7    H     H_    0.702446 0.399140 0.775014 0.379668
O20   O     O_3   0.353533 0.589023 0.259082 -0.665202
H8    H     H_    0.297551 0.600855 0.224987 0.379667
N9    N     N_R   0.666683 0.918050 0.473154 0.147062
O21   O     O_R   0.743478 0.956155 0.490703 -0.285873
O22   O     O_R   0.667681 0.846788 0.436666 -0.315152
N10   N     N_R   0.333316 0.081950 0.526846 0.147062
O23   O     O_R   0.256522 0.043845 0.509297 -0.285873
O24   O     O_R   0.332319 0.153212 0.563334 -0.315152
O25   O     O_3   0.073062 0.530213 0.355421 -0.669054
H9    H     H_    0.140208 0.529274 0.360562 0.340838
O26   O     O_3   0.926938 0.469786 0.644579 -0.669054
H10   H     H_    0.859792 0.470726 0.639438 0.340839

loop_
_geom_bond_atom_site_label_1
_geom_bond_atom_site_label_2
_geom_bond_distance
_ccdc_geom_bond_type
N8    O18   1.301227 A    
N7    O16   1.301228 A    
N9    O22   1.301191 A    
N9    O21   1.301605 A    
O26   H10   0.989009 S    
N5    O9    1.301069 A    
O5    C3    1.281987 A    
H1    C22   1.084233 S    
H2    C21   1.084233 S    
O1    C1    1.279436 A    
C32   O25   1.381966 S    
C9    C11   1.416802 A    
N10   O24   1.301191 A    
C23   C26   1.200356 T    
O19   H7    0.989466 S    
C24   C25   1.200356 T    
C17   N9    1.442504 S    
N6    O11   1.301067 A    
C28   C30   1.407099 A    
C29   C31   1.423891 A    
O4    Cu1   1.927137 S    
C8    N5    1.437198 S    
C7    C9    1.400872 A    
C3    C5    1.472870 S    
C4    C6    1.472870 S    
C17   C19   1.412443 A    
C20   C22   1.399247 A    
C14   N8    1.437131 S    
C13   N7    1.437131 S    
N8    O17   1.301330 A    
C11   N1    1.415463 S    
O13   H5    0.990125 S    
C12   N2    1.415463 S    
Cu1   Cu2   2.635795 S    
C16   O20   1.383328 S    
C27   H3    1.083919 S    
O2    C2    1.279435 A    
C28   H4    1.083921 S    
N5    O10   1.301180 A    
C6    C16   1.410381 A    
C30   C32   1.423891 A    
C18   C21   1.401403 A    
C2    C26   1.424718 S    
N10   O23   1.301605 A    
O4    C2    1.279062 A    
C31   O26   1.381966 S    
C19   C23   1.434064 S    
N7    O15   1.301329 A    
C18   C20   1.412443 A    
O7    Cu2   1.933921 S    
Cu1   N4    1.980300 S    
Cu2   N3    1.980299 S    
C29   C33   1.479826 S    
O6    C4    1.281986 A    
C33   N4    1.171733 T    
C34   N3    1.171733 T    
C10   O13   1.382368 S    
O7    C3    1.284367 A    
C7    N6    1.437198 S    
O3    Cu2   1.927139 S    
O8    C4    1.284368 A    
C10   C12   1.416802 A    
C11   C13   1.405502 A    
C12   C14   1.405502 A    
O1    Cu1   1.926432 S    
C5    C7    1.412918 A    
O6    Cu2   1.939898 S    
C20   C24   1.434064 S    
C14   C16   1.413596 A    
O3    C1    1.279062 A    
O8    Cu1   1.933923 S    
C18   N10   1.442504 S    
C30   C34   1.479828 S    
C1    C25   1.424718 S    
O20   H8    0.989465 S    
C9    O14   1.382369 S    
C19   C21   1.399247 A    
C27   C32   1.413925 A    
N6    O12   1.301180 A    
C8    C10   1.400874 A    
C28   C31   1.413927 A    
C13   C15   1.413596 A    
O14   H6    0.990126 S    
O2    Cu2   1.926430 S    
C5    C15   1.410380 A    
O25   H9    0.989010 S    
O5    Cu1   1.939898 S    
C15   O19   1.383328 S    
C6    C8    1.412917 A    
N1    N2    1.247102 D    
C27   C29   1.407101 A    
C17   C22   1.401403 A    
