data_mof_unit_54358.cif
_audit_creation_date              2013-03-05T15:54:38-0500
_audit_creation_method            fapswitch 2.2
_symmetry_space_group_name_H-M    P1
_symmetry_Int_Tables_number       1
_space_group_crystal_system       triclinic
_cell_length_a                    9.926662
_cell_length_b                    10.678385
_cell_length_c                    16.750857
_cell_angle_alpha                 92.62947
_cell_angle_beta                  85.526592
_cell_angle_gamma                 90.012367
_cell_volume                      1768.3198486

loop_
_atom_site_label
_atom_site_type_symbol
_atom_site_description
_atom_site_fract_x
_atom_site_fract_y
_atom_site_fract_z
_atom_type_partial_charge
O1    O     O_R   0.385310 0.683220 0.500000 -0.653616
O2    O     O_R   0.614640 0.683250 0.500010 -0.611949
C1    C     C_R   0.500799 0.739254 0.492487 0.910697
O3    O     O_R   0.371780 0.500010 0.615800 -0.629558
O4    O     O_R   0.601110 0.500030 0.615800 -0.560389
C2    C     C_R   0.480851 0.500235 0.653016 0.910800
Zn1   Zn    Zn3+2 0.346870 0.499980 0.499990 0.951041
Zn2   Zn    Zn3+2 0.653130 0.500020 0.500010 0.981465
O5    O     O_R   0.385360 0.316750 0.499990 -0.600484
O6    O     O_R   0.614690 0.316780 0.500000 -0.629548
O7    O     O_R   0.398890 0.499970 0.384200 -0.623398
O8    O     O_R   0.628220 0.499990 0.384200 -0.622727
C3    C     C_R   0.497900 0.261026 0.508341 0.888961
C4    C     C_R   0.518607 0.505002 0.347325 0.841439
C5    C     C_R   0.465987 0.516864 0.739559 -0.006446
C6    C     C_R   0.565529 0.472897 0.785745 -0.110789
C7    C     C_R   0.560526 0.506300 0.866855 -0.123508
C8    C     C_R   0.454929 0.582903 0.902084 0.185078
C9    C     C_R   0.349926 0.618435 0.857203 -0.158466
C10   C     C_R   0.355676 0.586122 0.775922 -0.153006
C11   C     C_R   0.444406 0.661085 0.161283 -0.152159
C12   C     C_R   0.429568 0.616533 0.237748 -0.216785
C13   C     C_R   0.649801 0.516049 0.216196 -0.195658
C14   C     C_R   0.663639 0.558972 0.138966 -0.171273
C15   C     C_R   0.558849 0.627619 0.110392 0.197870
C16   C     C_2   0.448229 0.618826 0.987043 -0.227189
C17   C     C_2   0.560513 0.642519 0.024305 -0.228228
C18   C     C_R   0.530738 0.541394 0.264817 -0.023407
H1    H     H_    0.648561 0.415687 0.758712 0.168918
H2    H     H_    0.339762 0.642122 0.275964 0.147508
H3    H     H_    0.730528 0.461226 0.237367 0.148961
H4    H     H_    0.657894 0.646748 0.989984 0.161592
H5    H     H_    0.265960 0.674184 0.884549 0.138912
H6    H     H_    0.364328 0.717615 0.140975 0.130746
H7    H     H_    0.276738 0.619575 0.741116 0.153726
H8    H     H_    0.350113 0.612671 0.020189 0.151643
H9    H     H_    0.638734 0.472013 0.901912 0.133393
H10   H     H_    0.752541 0.532720 0.100126 0.128856
H11   H     H_    0.714987 0.889312 0.504377 0.163137
C19   C     C_R   0.268140 0.886930 0.441502 -0.153234
H12   H     H_    0.276683 0.799911 0.405730 0.151691
C20   C     C_R   0.143516 0.948355 0.449491 -0.175183
H13   H     H_    0.057614 0.907064 0.422252 0.147023
C21   C     C_R   0.126715 0.055870 0.499537 -0.203481
H14   H     H_    0.026350 0.094066 0.514212 0.154251
C22   C     C_R   0.238200 0.110304 0.533575 0.184768
C23   C     C_R   0.369768 0.061046 0.511937 0.058803
C24   C     C_R   0.379815 0.938852 0.478665 0.056064
C25   C     C_R   0.501236 0.873055 0.485660 -0.115403
C26   C     C_R   0.619405 0.937152 0.502083 -0.153488
H15   H     H_    0.710249 0.113222 0.522875 0.165955
C27   C     C_R   0.615845 0.064468 0.515775 -0.211830
C28   C     C_R   0.492421 0.127853 0.518657 -0.108518
H16   H     H_    0.884309 0.333816 0.428371 0.137354
C29   C     C_R   0.856582 0.701729 0.584308 0.331773
C30   C     C_R   0.930383 0.809671 0.602658 -0.263135
H17   H     H_    0.879113 0.891800 0.630733 0.193104
C31   C     C_R   0.067467 0.799503 0.609700 -0.214570
H18   H     H_    0.121286 0.874898 0.638625 0.192008
C32   C     C_R   0.132963 0.688318 0.585705 -0.131239
H19   H     H_    0.232867 0.677481 0.603596 0.207390
C33   C     C_R   0.068358 0.594596 0.541484 0.147926
C34   C     C_R   0.923996 0.597255 0.541224 0.044118
N1    N     N_R   0.857140 0.501200 0.500750 -0.118504
C35   C     C_R   0.933610 0.408569 0.460621 -0.112729
H20   H     H_    0.134374 0.334723 0.427592 0.147784
C36   C     C_R   0.076577 0.409102 0.460211 -0.083103
N2    N     N_R   0.142740 0.501280 0.500770 -0.107390
I1    I     I_    0.193866 0.232994 0.636125 -0.373809
N3    N     N_R   0.748115 0.682625 0.642863 0.241153
O9    O     O_R   0.651232 0.765293 0.653557 -0.422878
O10   O     O_R   0.775454 0.618264 0.703704 -0.408832

loop_
_geom_bond_atom_site_label_1
_geom_bond_atom_site_label_2
_geom_bond_distance
_ccdc_geom_bond_type
O4    Zn2   1.967833 S    
C14   H10   1.083729 S    
C13   C14   1.388960 A    
C14   C15   1.399519 A    
C33   C34   1.433663 A    
C7    H9    1.082852 S    
C15   C17   1.456839 S    
C26   C27   1.368334 A    
C9    C10   1.385939 A    
C8    C16   1.453300 S    
C33   N2    1.364791 A    
Zn2   O8    1.974637 S    
N1    C35   1.366093 A    
C29   C30   1.400727 A    
C19   C20   1.394650 A    
C7    C8    1.405598 A    
C1    C25   1.438543 S    
H16   C35   1.081686 S    
C12   C18   1.400978 A    
C11   C12   1.383859 A    
C27   C28   1.396301 A    
C36   N2    1.367396 A    
Zn1   O7    1.967833 S    
C35   C36   1.418670 A    
C16   C17   1.337860 D    
N3    O9    1.302015 A    
C29   C34   1.436797 A    
C20   C21   1.392346 A    
Zn2   N1    2.026175 S    
O3    Zn1   1.974637 S    
O4    C2    1.302885 A    
C23   C28   1.420432 A    
C16   H8    1.086354 S    
C24   C25   1.410700 A    
O8    C4    1.294698 A    
O2    C1    1.296145 A    
C3    C28   1.440884 S    
O1    Zn1   1.993481 S    
C32   C33   1.402643 A    
C5    C10   1.404290 A    
O7    C4    1.298151 A    
C21   C22   1.398364 A    
C2    C5    1.448401 S    
C29   N3    1.420036 S    
N3    O10   1.300834 A    
C20   H13   1.082508 S    
C17   H4    1.087507 S    
C34   N1    1.399383 A    
C31   C32   1.381908 A    
H15   C27   1.083917 S    
Zn1   N2    2.025399 S    
H11   C26   1.081840 S    
H20   C36   1.081677 S    
C30   H17   1.083658 S    
C6    H1    1.083622 S    
Zn2   O6    1.993481 S    
C25   C26   1.397448 A    
C9    H5    1.083789 S    
Zn1   O5    1.993639 S    
C8    C9    1.394333 A    
C11   C15   1.402194 A    
C22   C23   1.422221 A    
C19   H12   1.081995 S    
C22   I1    2.129974 S    
O5    C3    1.286061 A    
C11   H6    1.083154 S    
C12   H2    1.083609 S    
C4    C18   1.448781 S    
C31   H18   1.082932 S    
C13   C18   1.401141 A    
C10   H7    1.082610 S    
O3    C2    1.290749 A    
C19   C24   1.414060 A    
C5    C6    1.395753 A    
O2    Zn2   1.993637 S    
C21   H14   1.082661 S    
C23   C24   1.395649 A    
C6    C7    1.385894 A    
C30   C31   1.379756 A    
C32   H19   1.065967 S    
O1    C1    1.293157 A    
O6    C3    1.303883 A    
C13   H3    1.083618 S    
