data_mof_unit_65842.cif
_audit_creation_date              2013-03-05T16:00:59-0500
_audit_creation_method            fapswitch 2.2
_symmetry_space_group_name_H-M    P1
_symmetry_Int_Tables_number       1
_space_group_crystal_system       triclinic
_cell_length_a                    36.58859
_cell_length_b                    29.011934
_cell_length_c                    22.448652
_cell_angle_alpha                 89.290772
_cell_angle_beta                  127.543413
_cell_angle_gamma                 90.37617
_cell_volume                      18892.654178

loop_
_atom_site_label
_atom_site_type_symbol
_atom_site_description
_atom_site_fract_x
_atom_site_fract_y
_atom_site_fract_z
_atom_type_partial_charge
O1    O     O_R   0.936850 0.964330 0.936870 -0.623639
O2    O     O_R   0.063150 0.035670 0.063130 -0.603690
O3    O     O_R   0.063150 0.964330 0.063130 -0.610685
O4    O     O_R   0.936850 0.035670 0.936870 -0.612058
O5    O     O_R   0.436850 0.464330 0.936870 -0.622707
O6    O     O_R   0.563150 0.535670 0.063130 -0.603599
O7    O     O_R   0.563150 0.464330 0.063130 -0.609098
O8    O     O_R   0.436850 0.535670 0.936870 -0.612105
C1    C     C_R   0.913143 0.999947 0.913003 0.862226
C2    C     C_R   0.086840 0.999747 0.088594 0.872135
C3    C     C_R   0.413143 0.499940 0.912949 0.863086
C4    C     C_R   0.586848 0.499765 0.088412 0.872756
O9    O     O_R   0.999990 0.964330 0.907390 -0.673158
O10   O     O_R   0.000010 0.035670 0.092610 -0.650881
O11   O     O_R   0.000010 0.964330 0.092610 -0.650395
O12   O     O_R   0.999990 0.035670 0.907390 -0.539530
O13   O     O_R   0.499990 0.464330 0.907390 -0.672435
O14   O     O_R   0.500010 0.535670 0.092610 -0.650847
O15   O     O_R   0.500010 0.464330 0.092610 -0.650520
O16   O     O_R   0.499990 0.535670 0.907390 -0.536888
C5    C     C_R   0.002979 0.000675 0.880420 0.871392
C6    C     C_R   0.997983 0.999778 0.120674 0.802220
C7    C     C_R   0.502505 0.500655 0.879899 0.864840
C8    C     C_R   0.497984 0.499777 0.120675 0.802019
Zn1   Zn    Zn3+2 0.000000 0.952370 0.000000 0.906643
Zn2   Zn    Zn3+2 0.000000 0.047630 0.000000 0.990494
Zn3   Zn    Zn3+2 0.500000 0.452370 0.000000 0.906978
Zn4   Zn    Zn3+2 0.500000 0.547630 0.000000 0.991342
C9    C     C_3   0.966874 0.959397 0.754914 -0.054763
C10   C     C_3   0.037019 0.038108 0.248799 -0.045465
C11   C     C_3   0.012459 0.943617 0.224633 -0.001353
C12   C     C_3   0.982123 0.056572 0.770581 -0.058904
C13   C     C_3   0.466578 0.459472 0.753982 -0.052804
C14   C     C_3   0.537024 0.538108 0.248807 -0.045245
C15   C     C_3   0.512483 0.443619 0.224654 -0.000809
C16   C     C_3   0.481915 0.556725 0.770462 -0.062604
C17   C     C_3   0.961022 0.957893 0.674496 -0.059763
C18   C     C_3   0.040490 0.037194 0.327281 -0.032742
C19   C     C_3   0.015165 0.939493 0.302088 -0.075286
C20   C     C_3   0.976824 0.055859 0.690011 -0.079252
C21   C     C_3   0.460314 0.458626 0.673159 -0.032662
C22   C     C_3   0.540488 0.537198 0.327281 -0.032658
C23   C     C_3   0.515180 0.439495 0.302108 -0.074842
C24   C     C_3   0.477097 0.556268 0.690350 -0.054635
C25   C     C_3   0.057935 0.997500 0.843655 -0.138745
C26   C     C_3   0.943533 0.015455 0.157989 -0.124494
C27   C     C_3   0.557528 0.497165 0.843666 -0.094959
C28   C     C_3   0.443537 0.515437 0.157990 -0.124250
C29   C     C_3   0.002113 0.003134 0.812246 -0.158663
C30   C     C_3   0.997754 0.998934 0.187969 -0.151983
C31   C     C_3   0.501720 0.503138 0.811790 -0.176780
C32   C     C_3   0.497762 0.498931 0.187976 -0.151930
C33   C     C_3   0.996701 0.002211 0.687094 -0.151653
C34   C     C_3   0.002134 0.995051 0.312001 -0.150646
C35   C     C_3   0.496624 0.502659 0.686986 -0.183196
C36   C     C_3   0.502137 0.495049 0.312005 -0.153165
C37   C     C_3   0.051573 0.989255 0.765373 -0.140359
C38   C     C_3   0.948037 0.009273 0.235916 -0.103151
C39   C     C_3   0.551373 0.489009 0.765428 -0.122843
C40   C     C_3   0.448039 0.509259 0.235915 -0.102751
C41   C     C_1   0.862452 0.999907 0.865723 -0.243847
C42   C     C_1   0.137569 0.998853 0.135811 -0.253673
C43   C     C_1   0.362455 0.499866 0.865670 -0.242694
C44   C     C_1   0.637566 0.498962 0.135393 -0.255776
C45   C     C_1   0.820135 0.000017 0.824879 -0.012509
C46   C     C_1   0.179861 0.998112 0.176240 -0.005460
C47   C     C_1   0.320138 0.499948 0.824833 -0.013369
C48   C     C_1   0.679856 0.498275 0.175763 -0.008786
C49   C     C_1   0.770266 0.000075 0.774668 -0.018589
C50   C     C_1   0.229738 0.997955 0.225955 -0.015165
C51   C     C_1   0.270269 0.499998 0.774621 -0.018808
C52   C     C_1   0.729734 0.498112 0.225539 -0.017528
C53   C     C_1   0.727973 0.000059 0.731164 -0.010637
C54   C     C_1   0.272036 0.998240 0.269200 -0.010893
C55   C     C_1   0.227975 0.499991 0.731128 -0.010606
C56   C     C_1   0.772032 0.498368 0.268892 -0.011404
C57   C     C_1   0.678092 0.000030 0.679501 -0.007405
C58   C     C_1   0.321917 0.998820 0.320662 -0.006946
C59   C     C_1   0.178093 0.499983 0.679482 -0.007662
C60   C     C_1   0.821912 0.498903 0.320502 -0.006840
C61   C     C_1   0.635781 0.000011 0.635999 -0.195962
C62   C     C_1   0.364225 0.999351 0.364054 -0.196032
C63   C     C_1   0.135782 0.499985 0.635993 -0.196193
C64   C     C_1   0.864220 0.499396 0.363998 -0.195978
O17   O     O_R   0.964320 0.936860 0.464320 -0.643849
O18   O     O_R   0.035680 0.063140 0.535680 -0.640809
O19   O     O_R   0.035680 0.936860 0.535680 -0.585673
O20   O     O_R   0.964320 0.063140 0.464320 -0.589548
O21   O     O_R   0.464320 0.436860 0.464320 -0.630752
O22   O     O_R   0.535680 0.563140 0.535680 -0.634746
O23   O     O_R   0.535680 0.436860 0.535680 -0.611582
O24   O     O_R   0.464320 0.563140 0.464320 -0.586143
C65   C     C_R   0.000235 0.913169 0.503100 0.908044
C66   C     C_R   0.999772 0.086841 0.499389 0.927775
C67   C     C_R   0.500228 0.413175 0.503256 0.871982
C68   C     C_R   0.499784 0.586843 0.499356 0.936163
O25   O     O_R   0.964330 1.000000 0.556950 -0.678231
O26   O     O_R   0.035670 1.000000 0.443050 -0.673837
O27   O     O_R   0.464330 0.500000 0.556950 -0.653301
O28   O     O_R   0.535670 0.500000 0.443050 -0.669437
O29   O     O_R   0.035630 1.000000 0.628230 -0.578761
O30   O     O_R   0.964370 0.000000 0.371770 -0.525394
O31   O     O_R   0.535630 0.500000 0.628230 -0.645879
O32   O     O_R   0.464370 0.500000 0.371770 -0.523624
C69   C     C_R   0.999173 0.001106 0.621975 0.897625
C70   C     C_R   0.000679 0.996601 0.378148 0.910538
C71   C     C_R   0.499163 0.501641 0.621909 0.816681
C72   C     C_R   0.500680 0.496600 0.378149 0.915840
Zn5   Zn    Zn3+2 0.952370 0.000000 0.452390 0.986447
Zn6   Zn    Zn3+2 0.047630 0.000000 0.547610 0.974767
Zn7   Zn    Zn3+2 0.452370 0.500000 0.452390 0.986667
Zn8   Zn    Zn3+2 0.547630 0.500000 0.547610 0.932087
O33   O     O_R   0.499940 0.063120 0.447680 -0.590693
O34   O     O_R   0.500060 0.936880 0.552320 -0.591109
O35   O     O_R   0.500060 0.063120 0.552320 -0.589058
O36   O     O_R   0.499940 0.936880 0.447680 -0.589563
O37   O     O_R   0.999940 0.563120 0.447680 -0.590618
O38   O     O_R   0.000060 0.436880 0.552320 -0.591155
O39   O     O_R   0.000060 0.563120 0.552320 -0.589425
O40   O     O_R   0.999940 0.436880 0.447680 -0.589383
C73   C     C_R   0.500111 0.085033 0.499749 0.859088
C74   C     C_R   0.499902 0.914962 0.500295 0.858178
C75   C     C_R   0.000114 0.585033 0.499748 0.859054
C76   C     C_R   0.999896 0.414963 0.500287 0.858316
O41   O     O_R   0.563110 1.000000 0.510830 -0.591285
O42   O     O_R   0.436890 0.000000 0.489170 -0.591442
O43   O     O_R   0.063110 0.500000 0.510830 -0.591235
O44   O     O_R   0.936890 0.500000 0.489170 -0.591496
O45   O     O_R   0.563120 0.000000 0.615390 -0.589004
O46   O     O_R   0.436880 0.000000 0.384610 -0.588851
O47   O     O_R   0.063120 0.500000 0.615390 -0.589217
O48   O     O_R   0.936880 0.500000 0.384610 -0.588695
C77   C     C_R   0.585021 0.999997 0.584952 0.858842
C78   C     C_R   0.414980 0.999883 0.415055 0.858534
C79   C     C_R   0.085022 0.499992 0.584951 0.858811
C80   C     C_R   0.914978 0.499891 0.415048 0.858618
Zn9   Zn    Zn3+2 0.499970 0.000000 0.430170 0.956130
Zn10  Zn    Zn3+2 0.500030 1.000000 0.569830 0.956140
Zn11  Zn    Zn3+2 0.999970 0.500000 0.430170 0.956500
Zn12  Zn    Zn3+2 0.000030 0.500000 0.569830 0.955361
C81   C     C_1   0.001435 0.862468 0.500800 -0.214297
C82   C     C_1   0.998695 0.137481 0.502004 -0.197455
C83   C     C_1   0.501392 0.362470 0.501065 -0.225226
C84   C     C_1   0.498750 0.637478 0.502175 -0.204184
C85   C     C_1   0.002237 0.820203 0.499554 0.012550
C86   C     C_1   0.997992 0.179755 0.503140 0.013434
C87   C     C_1   0.502183 0.320206 0.499827 0.010818
C88   C     C_1   0.498079 0.679749 0.503420 0.014444
C89   C     C_1   0.002266 0.770337 0.498813 -0.010583
C90   C     C_1   0.997962 0.229639 0.503349 -0.018409
C91   C     C_1   0.502217 0.270340 0.499036 -0.011415
C92   C     C_1   0.498053 0.729634 0.503634 -0.017962
C93   C     C_1   0.501838 0.228030 0.498863 -0.009428
C94   C     C_1   0.498383 0.771951 0.503070 -0.012623
C95   C     C_1   0.001878 0.728028 0.498707 -0.009916
C96   C     C_1   0.998305 0.271955 0.502842 -0.012367
C97   C     C_1   0.501197 0.178123 0.499043 -0.005764
C98   C     C_1   0.498944 0.821863 0.501949 -0.007213
C99   C     C_1   0.001223 0.678121 0.498972 -0.006288
C100  C     C_1   0.998892 0.321866 0.501819 -0.007034
C101  C     C_1   0.500646 0.135798 0.499348 -0.195177
C102  C     C_1   0.499429 0.864190 0.501001 -0.196380
C103  C     C_1   0.000660 0.635797 0.499331 -0.195548
C104  C     C_1   0.999401 0.364192 0.500947 -0.196226
C105  C     C_2   0.989983 0.914102 0.793533 0.306117
H1    H     H_    0.025433 0.910931 0.823934 0.068971
O49   O     O_2   0.969120 0.878004 0.781889 -0.628014
C106  C     C_2   0.023341 0.087089 0.213676 0.274590
H2    H     H_    0.996802 0.094235 0.155964 0.158334
O50   O     O_2   0.047859 0.120582 0.246910 -0.622041
C107  C     C_2   0.974601 0.912189 0.160307 0.327506
H3    H     H_    0.979568 0.895897 0.122249 0.127621
O51   O     O_2   0.938154 0.902746 0.147751 -0.627772
C108  C     C_2   0.017196 0.094770 0.824583 0.373838
H4    H     H_    0.036277 0.115887 0.813093 0.111563
O52   O     O_2   0.022849 0.106578 0.881843 -0.544747
C109  C     C_2   0.490526 0.414388 0.791207 0.290554
H5    H     H_    0.525762 0.411811 0.817650 0.130030
O53   O     O_2   0.470487 0.377990 0.781461 -0.622714
C110  C     C_2   0.523345 0.587086 0.213677 0.274513
H6    H     H_    0.496794 0.594230 0.155970 0.158326
O54   O     O_2   0.547865 0.620579 0.246902 -0.622098
C111  C     C_2   0.474638 0.412176 0.160342 0.327501
H7    H     H_    0.479614 0.395880 0.122297 0.127551
O55   O     O_2   0.438192 0.402725 0.147785 -0.627787
C112  C     C_2   0.516666 0.595104 0.824768 0.379355
H8    H     H_    0.536446 0.615839 0.814295 0.112016
O56   O     O_2   0.521418 0.607319 0.881132 -0.543217
C113  C     C_R   0.919429 0.956820 0.747127 0.079683
C114  C     C_R   0.878568 0.980970 0.691098 -0.191002
C115  C     C_R   0.835802 0.973089 0.675420 -0.134071
C116  C     C_R   0.831707 0.940682 0.716748 -0.121493
C117  C     C_R   0.870899 0.918548 0.776681 -0.178238
C118  C     C_R   0.913795 0.927443 0.793213 -0.001646
H9    H     H_    0.878976 0.004705 0.656192 0.161625
H10   H     H_    0.805667 0.991707 0.629958 0.140764
H11   H     H_    0.798491 0.933778 0.703881 0.139770
H12   H     H_    0.868281 0.894658 0.811362 0.134155
H13   H     H_    0.941943 0.909044 0.841922 0.196138
C119  C     C_R   0.085299 0.034196 0.260293 0.070729
C120  C     C_R   0.122087 0.005826 0.315192 -0.173262
C121  C     C_R   0.166780 0.009014 0.336884 -0.127112
C122  C     C_R   0.176841 0.041433 0.303059 -0.115007
C123  C     C_R   0.141407 0.067767 0.243681 -0.163644
C124  C     C_R   0.096381 0.062652 0.220161 -0.050797
H14   H     H_    0.116773 0.983476 0.345365 0.158308
H15   H     H_    0.193863 0.987343 0.381965 0.137649
H16   H     H_    0.211722 0.045222 0.321322 0.138324
H17   H     H_    0.148562 0.091692 0.214569 0.135909
H18   H     H_    0.071013 0.083636 0.172130 0.173909
C125  C     C_R   0.054890 0.917290 0.234058 -0.005464
C126  C     C_R   0.080348 0.933757 0.209174 -0.048487
C127  C     C_R   0.111804 0.906635 0.208859 -0.128439
C128  C     C_R   0.118506 0.860821 0.230423 -0.141943
C129  C     C_R   0.095273 0.842438 0.255611 -0.136747
C130  C     C_R   0.065074 0.869816 0.258211 -0.205091
H19   H     H_    0.077169 0.967774 0.188932 0.149437
H20   H     H_    0.130952 0.920991 0.190939 0.143739
H21   H     H_    0.142687 0.840021 0.229708 0.127386
H22   H     H_    0.102411 0.807384 0.277087 0.133626
H23   H     H_    0.057664 0.855136 0.293272 0.147601
C131  C     C_R   0.939636 0.079924 0.763623 0.115277
C132  C     C_R   0.930292 0.128714 0.749014 -0.119399
C133  C     C_R   0.891223 0.149712 0.733896 -0.150539
C134  C     C_R   0.860919 0.124139 0.738086 -0.143545
C135  C     C_R   0.872159 0.079031 0.763671 -0.172022
C136  C     C_R   0.912331 0.058594 0.781104 -0.068643
H24   H     H_    0.955124 0.152653 0.756425 0.128463
H25   H     H_    0.885332 0.186244 0.721115 0.132659
H26   H     H_    0.830273 0.139920 0.725897 0.135012
H27   H     H_    0.849557 0.060118 0.770377 0.152629
H28   H     H_    0.920522 0.025820 0.807614 0.143200
C137  C     C_R   0.419625 0.455829 0.747584 0.078838
C138  C     C_R   0.378228 0.479703 0.692495 -0.196226
C139  C     C_R   0.335996 0.471003 0.678353 -0.134920
C140  C     C_R   0.332996 0.438113 0.720336 -0.122194
C141  C     C_R   0.372757 0.416265 0.779442 -0.177306
C142  C     C_R   0.415111 0.425850 0.794381 0.004294
H29   H     H_    0.377658 0.503986 0.657099 0.159392
H30   H     H_    0.305406 0.489432 0.633614 0.141362
H31   H     H_    0.300196 0.430645 0.708685 0.139753
H32   H     H_    0.371004 0.392013 0.814680 0.133319
H33   H     H_    0.443768 0.407582 0.842578 0.194583
C143  C     C_R   0.585307 0.534196 0.260306 0.070693
C144  C     C_R   0.622110 0.505839 0.315223 -0.173143
C145  C     C_R   0.666780 0.508982 0.336812 -0.127424
C146  C     C_R   0.676811 0.541339 0.302868 -0.114431
C147  C     C_R   0.641370 0.567680 0.243516 -0.163184
C148  C     C_R   0.596364 0.562619 0.220109 -0.050917
H34   H     H_    0.616828 0.483510 0.345459 0.158328
H35   H     H_    0.693870 0.487315 0.381889 0.137670
H36   H     H_    0.711675 0.545085 0.321041 0.138577
H37   H     H_    0.648503 0.591572 0.214339 0.135800
H38   H     H_    0.570993 0.583610 0.172092 0.173903
C149  C     C_R   0.554930 0.417324 0.234074 -0.005598
C150  C     C_R   0.580371 0.433815 0.209166 -0.048272
C151  C     C_R   0.611851 0.406729 0.208866 -0.128521
C152  C     C_R   0.618586 0.360916 0.230447 -0.141843
C153  C     C_R   0.595360 0.342505 0.255633 -0.136505
C154  C     C_R   0.565139 0.369851 0.258225 -0.205191
H39   H     H_    0.577168 0.467828 0.188889 0.149645
H40   H     H_    0.630988 0.421118 0.190941 0.143758
H41   H     H_    0.642781 0.340139 0.229739 0.127734
H42   H     H_    0.602517 0.307450 0.277110 0.133811
H43   H     H_    0.557721 0.355149 0.293261 0.147673
C155  C     C_R   0.439099 0.579729 0.762799 0.115087
C156  C     C_R   0.429310 0.628407 0.747500 -0.117890
C157  C     C_R   0.389925 0.649060 0.731700 -0.149373
C158  C     C_R   0.359744 0.623246 0.735896 -0.143221
C159  C     C_R   0.371422 0.578301 0.762218 -0.173586
C160  C     C_R   0.411917 0.558236 0.780358 -0.069096
H44   H     H_    0.454045 0.652535 0.755103 0.128043
H45   H     H_    0.383697 0.685520 0.718428 0.132351
H46   H     H_    0.328846 0.638742 0.723162 0.134891
H47   H     H_    0.348881 0.559217 0.768861 0.152907
H48   H     H_    0.420407 0.525580 0.807316 0.143355
C161  C     C_R   0.906373 0.955064 0.607785 0.079732
C162  C     C_R   0.879560 0.981288 0.540156 -0.167328
C163  C     C_R   0.832401 0.973864 0.484653 -0.156344
C164  C     C_R   0.810302 0.937266 0.490812 -0.124541
C165  C     C_R   0.835792 0.906833 0.550917 -0.135290
C166  C     C_R   0.882692 0.914683 0.606706 -0.085230
H49   H     H_    0.893673 0.004868 0.523704 0.196864
H50   H     H_    0.813349 0.995597 0.434830 0.141238
H51   H     H_    0.773939 0.931318 0.447313 0.129540
H52   H     H_    0.819375 0.876880 0.554438 0.135272
H53   H     H_    0.900784 0.889055 0.650877 0.194500
C167  C     C_R   0.094785 0.035808 0.397835 0.059476
C168  C     C_R   0.122941 0.073875 0.405914 -0.096146
C169  C     C_R   0.169995 0.077261 0.464757 -0.141101
C170  C     C_R   0.191516 0.044055 0.521084 -0.123898
C171  C     C_R   0.165454 0.008763 0.519970 -0.163057
C172  C     C_R   0.118206 0.005633 0.461255 -0.154226
H54   H     H_    0.108743 0.101845 0.366400 0.211939
H55   H     H_    0.189643 0.106052 0.466666 0.136837
H56   H     H_    0.227982 0.046545 0.566889 0.129919
H57   H     H_    0.181667 0.984135 0.566086 0.142112
H58   H     H_    0.102126 0.980285 0.471244 0.202584
C173  C     C_R   0.063254 0.920760 0.379515 0.045618
C174  C     C_R   0.062021 0.906342 0.439056 -0.113683
C175  C     C_R   0.098845 0.886385 0.506815 -0.117251
C176  C     C_R   0.140601 0.879768 0.520392 -0.148702
C177  C     C_R   0.145122 0.892849 0.465902 -0.150229
C178  C     C_R   0.107936 0.912407 0.397894 -0.162075
H59   H     H_    0.032069 0.911521 0.433998 0.126754
H60   H     H_    0.094972 0.876312 0.549251 0.158708
H61   H     H_    0.169311 0.864503 0.572827 0.135174
H62   H     H_    0.177710 0.887352 0.475846 0.133917
H63   H     H_    0.117774 0.917628 0.362968 0.155753
C179  C     C_R   0.926565 0.068106 0.612191 0.080793
C180  C     C_R   0.924671 0.081885 0.548826 -0.092371
C181  C     C_R   0.884869 0.097004 0.480065 -0.151077
C182  C     C_R   0.843986 0.100800 0.470526 -0.152341
C183  C     C_R   0.843600 0.090882 0.530559 -0.135637
C184  C     C_R   0.883752 0.076170 0.599680 -0.174607
H64   H     H_    0.955375 0.082559 0.553796 0.153752
H65   H     H_    0.886117 0.106435 0.434530 0.155573
H66   H     H_    0.812962 0.112519 0.417413 0.133663
H67   H     H_    0.811970 0.095316 0.524092 0.133520
H68   H     H_    0.877490 0.072657 0.639306 0.150707
C185  C     C_R   0.405595 0.456563 0.606962 0.097197
C186  C     C_R   0.378968 0.482988 0.539527 -0.170743
C187  C     C_R   0.331731 0.475973 0.484046 -0.159725
C188  C     C_R   0.309391 0.439466 0.489845 -0.125262
C189  C     C_R   0.334728 0.408657 0.549438 -0.141392
C190  C     C_R   0.381705 0.416125 0.605209 -0.076723
H69   H     H_    0.393368 0.506240 0.523050 0.197027
H70   H     H_    0.312827 0.497874 0.434414 0.142304
H71   H     H_    0.272976 0.433811 0.446338 0.130460
H72   H     H_    0.318144 0.378704 0.552550 0.136458
H73   H     H_    0.399760 0.390198 0.649001 0.196223
C191  C     C_R   0.594781 0.535820 0.397842 0.059612
C192  C     C_R   0.622934 0.573888 0.405918 -0.096193
C193  C     C_R   0.669988 0.577276 0.464759 -0.141159
C194  C     C_R   0.691511 0.544072 0.521088 -0.123754
C195  C     C_R   0.665452 0.508779 0.519979 -0.163518
C196  C     C_R   0.618205 0.505646 0.461265 -0.153756
H74   H     H_    0.608734 0.601857 0.366404 0.211915
H75   H     H_    0.689635 0.606068 0.466665 0.136701
H76   H     H_    0.727977 0.546565 0.566893 0.129707
H77   H     H_    0.681667 0.484151 0.566095 0.141376
H78   H     H_    0.602128 0.480292 0.471254 0.203083
C197  C     C_R   0.563258 0.420762 0.379546 0.043674
C198  C     C_R   0.562020 0.406336 0.439087 -0.110675
C199  C     C_R   0.598842 0.386365 0.506832 -0.117928
C200  C     C_R   0.640598 0.379752 0.520406 -0.149868
C201  C     C_R   0.645123 0.392850 0.465926 -0.149388
C202  C     C_R   0.607939 0.412417 0.397926 -0.161749
H79   H     H_    0.532069 0.411499 0.434051 0.133530
H80   H     H_    0.594964 0.376276 0.549258 0.153715
H81   H     H_    0.669306 0.364478 0.572834 0.134540
H82   H     H_    0.677711 0.387359 0.475871 0.133833
H83   H     H_    0.617777 0.417661 0.363006 0.155715
C203  C     C_R   0.427075 0.568847 0.612510 0.079553
C204  C     C_R   0.425498 0.583013 0.549614 -0.089493
C205  C     C_R   0.385948 0.598862 0.481170 -0.152990
C206  C     C_R   0.344996 0.602749 0.471414 -0.152742
C207  C     C_R   0.344204 0.591849 0.530777 -0.135557
C208  C     C_R   0.384057 0.576258 0.599538 -0.172648
H84   H     H_    0.456268 0.583424 0.554780 0.154415
H85   H     H_    0.387439 0.608757 0.436041 0.155441
H86   H     H_    0.314177 0.615049 0.418543 0.133623
H87   H     H_    0.312437 0.595973 0.523974 0.133897
H88   H     H_    0.377436 0.571387 0.638473 0.150104
C209  C     C_R   0.970968 0.909417 0.646786 0.084337
C210  C     C_R   0.993078 0.867386 0.688913 -0.012611
C211  C     C_R   0.983797 0.824002 0.656101 -0.115600
C212  C     C_R   0.952527 0.819317 0.579259 -0.122078
C213  C     C_R   0.934262 0.858515 0.534839 -0.172735
C214  C     C_R   0.946430 0.902099 0.567482 -0.097248
H89   H     H_    0.019376 0.864862 0.747911 0.120918
H90   H     H_    0.000699 0.793642 0.691100 0.133761
H91   H     H_    0.944095 0.785574 0.554014 0.138560
H92   H     H_    0.911159 0.855392 0.474260 0.137009
H93   H     H_    0.929003 0.929467 0.527159 0.180280
C215  C     C_R   0.030434 0.085456 0.352666 0.138688
C216  C     C_R   0.003478 0.123135 0.304888 0.041992
C217  C     C_R   0.006370 0.167773 0.330026 -0.106615
C218  C     C_R   0.036770 0.177414 0.405758 -0.114552
C219  C     C_R   0.060959 0.141545 0.456375 -0.183133
C220  C     C_R   0.055158 0.096432 0.430912 -0.103128
H94   H     H_    0.980049 0.119285 0.246929 0.123072
H95   H     H_    0.985658 0.195149 0.290021 0.124943
H96   H     H_    0.040459 0.212270 0.425342 0.139639
H97   H     H_    0.083676 0.148400 0.516058 0.139896
H98   H     H_    0.075443 0.071278 0.474984 0.178406
C221  C     C_R   0.981561 0.896702 0.293738 0.102336
C222  C     C_R   0.956119 0.897752 0.322969 -0.214221
C223  C     C_R   0.930540 0.861046 0.321171 -0.090561
C224  C     C_R   0.931282 0.818665 0.294963 -0.111753
C225  C     C_R   0.956662 0.813589 0.268785 -0.132820
C226  C     C_R   0.980720 0.850974 0.268014 -0.027557
H99   H     H_    0.955255 0.926473 0.349210 0.188288
H100  H     H_    0.911294 0.865327 0.342971 0.139813
H101  H     H_    0.912178 0.789935 0.294743 0.127902
H102  H     H_    0.956506 0.780731 0.246221 0.125045
H103  H     H_    0.992044 0.842630 0.235824 0.121470
C227  C     C_R   0.002749 0.100897 0.688230 0.018245
C228  C     C_R   0.984248 0.145866 0.680376 -0.163639
C229  C     C_R   0.007770 0.186432 0.688927 -0.131305
C230  C     C_R   0.048326 0.184143 0.696749 -0.090899
C231  C     C_R   0.061781 0.141950 0.687503 -0.138997
C232  C     C_R   0.036942 0.102076 0.677623 -0.248609
H104  H     H_    0.949390 0.150104 0.660575 0.144770
H105  H     H_    0.993312 0.219600 0.685888 0.129983
H106  H     H_    0.066483 0.215330 0.702152 0.124320
H107  H     H_    0.089321 0.140498 0.682380 0.133438
H108  H     H_    0.041701 0.074839 0.652838 0.156439
C233  C     C_R   0.469341 0.410267 0.643479 -0.014480
C234  C     C_R   0.491894 0.368073 0.684570 -0.077748
C235  C     C_R   0.482028 0.324874 0.650990 -0.111092
C236  C     C_R   0.449969 0.320581 0.574217 -0.117481
C237  C     C_R   0.431544 0.360007 0.530448 -0.157738
C238  C     C_R   0.443986 0.403388 0.563799 -0.102769
H109  H     H_    0.518820 0.365177 0.743235 0.183364
H110  H     H_    0.499190 0.294352 0.685348 0.140334
H111  H     H_    0.441206 0.286986 0.548434 0.136257
H112  H     H_    0.408069 0.357229 0.469835 0.134383
H113  H     H_    0.426434 0.430900 0.523793 0.186666
C239  C     C_R   0.530420 0.585461 0.352644 0.138619
C240  C     C_R   0.503455 0.623133 0.304852 0.042190
C241  C     C_R   0.506316 0.667767 0.329975 -0.107023
C242  C     C_R   0.536697 0.677416 0.405707 -0.114413
C243  C     C_R   0.560907 0.641557 0.456334 -0.182895
C244  C     C_R   0.555134 0.596444 0.430885 -0.103729
H114  H     H_    0.480038 0.619279 0.246892 0.123083
H115  H     H_    0.485593 0.695135 0.289961 0.124658
H116  H     H_    0.540360 0.712270 0.425281 0.139562
H117  H     H_    0.583619 0.648418 0.516015 0.140162
H118  H     H_    0.575428 0.571296 0.474966 0.179239
C245  C     C_R   0.481586 0.396699 0.293766 0.100342
C246  C     C_R   0.456145 0.397741 0.323005 -0.212065
C247  C     C_R   0.430613 0.361012 0.321279 -0.087179
C248  C     C_R   0.431387 0.318628 0.295112 -0.112244
C249  C     C_R   0.456755 0.313568 0.268906 -0.133023
C250  C     C_R   0.480777 0.350970 0.268083 -0.027236
H119  H     H_    0.455263 0.426467 0.349221 0.189543
H120  H     H_    0.411373 0.365282 0.343091 0.139904
H121  H     H_    0.412315 0.289883 0.294940 0.127873
H122  H     H_    0.456622 0.280707 0.246373 0.125165
H123  H     H_    0.492110 0.342633 0.235905 0.121525
C251  C     C_R   0.503597 0.601090 0.689510 0.020320
C252  C     C_R   0.485498 0.646217 0.682019 -0.169219
C253  C     C_R   0.509517 0.686556 0.691371 -0.128707
C254  C     C_R   0.550137 0.683896 0.699429 -0.090159
C255  C     C_R   0.563146 0.641622 0.689559 -0.142977
C256  C     C_R   0.537867 0.601988 0.679061 -0.247169
H124  H     H_    0.450559 0.650769 0.661607 0.144219
H125  H     H_    0.495352 0.719856 0.688597 0.129922
H126  H     H_    0.568634 0.714916 0.705318 0.124006
H127  H     H_    0.590603 0.639977 0.684256 0.133912
H128  H     H_    0.541800 0.575068 0.652809 0.165657
C257  C     C_R   0.094084 0.959201 0.906824 -0.010169
C258  C     C_R   0.087605 0.927391 0.948960 -0.186362
C259  C     C_R   0.122628 0.898609 0.005522 -0.125733
C260  C     C_R   0.166524 0.900597 0.025134 -0.111803
C261  C     C_R   0.175759 0.932077 0.989139 -0.133187
C262  C     C_R   0.140944 0.960972 0.932896 -0.064958
H129  H     H_    0.056026 0.920583 0.938892 0.188113
H130  H     H_    0.115454 0.874418 0.034347 0.130308
H131  H     H_    0.193567 0.878439 0.069254 0.127598
H132  H     H_    0.210503 0.935337 0.006511 0.138115
H133  H     H_    0.152682 0.987968 0.915385 0.188674
C263  C     C_R   0.925170 0.064967 0.112243 0.001857
C264  C     C_R   0.909415 0.106148 0.125822 -0.212247
C265  C     C_R   0.893647 0.145446 0.079472 -0.115301
C266  C     C_R   0.889240 0.145535 0.013880 -0.130817
C267  C     C_R   0.899337 0.105790 0.993534 -0.124184
C268  C     C_R   0.915705 0.067002 0.040642 -0.053578
H134  H     H_    0.908556 0.113048 0.171106 0.126985
H135  H     H_    0.884009 0.176004 0.094256 0.130785
H136  H     H_    0.876492 0.175749 0.977702 0.130292
H137  H     H_    0.893433 0.104589 0.940122 0.150837
H138  H     H_    0.919123 0.036839 0.018948 0.141937
C269  C     C_R   0.898474 0.987761 0.090260 0.112863
C270  C     C_R   0.854422 0.998515 0.071607 -0.128726
C271  C     C_R   0.813616 0.977295 0.013148 -0.116754
C272  C     C_R   0.814096 0.946221 0.967254 -0.105641
C273  C     C_R   0.854985 0.938249 0.977752 -0.094351
C274  C     C_R   0.895520 0.960487 0.035170 -0.094341
H139  H     H_    0.850795 0.023944 0.101804 0.126535
H140  H     H_    0.781409 0.985601 0.002916 0.135774
H141  H     H_    0.782545 0.929720 0.921857 0.128397
H142  H     H_    0.855147 0.915806 0.939725 0.126088
H143  H     H_    0.924051 0.954598 0.035391 0.147753
C275  C     C_R   0.089311 0.040734 0.894404 0.078443
C276  C     C_R   0.101664 0.044025 0.967569 0.002215
C277  C     C_R   0.131564 0.077583 0.019141 -0.096382
C278  C     C_R   0.151381 0.109487 0.000299 -0.119696
C279  C     C_R   0.139999 0.108749 0.929104 -0.121199
C280  C     C_R   0.109330 0.075746 0.877163 -0.200580
H144  H     H_    0.088789 0.018744 0.984935 0.121384
H145  H     H_    0.139596 0.078843 0.074063 0.130005
H146  H     H_    0.174527 0.135517 0.040070 0.127642
H147  H     H_    0.153279 0.135267 0.912595 0.135661
H148  H     H_    0.096791 0.084212 0.821834 0.127399
C281  C     C_R   0.593165 0.459073 0.908197 0.110983
C282  C     C_R   0.584754 0.425832 0.946384 -0.178962
C283  C     C_R   0.619323 0.397994 0.005588 -0.115066
C284  C     C_R   0.664535 0.401996 0.031606 -0.110619
C285  C     C_R   0.675467 0.434283 0.998960 -0.137298
C286  C     C_R   0.641163 0.462269 0.940060 0.041657
H149  H     H_    0.552123 0.416901 0.931169 0.178081
H150  H     H_    0.610730 0.372843 0.031343 0.130229
H151  H     H_    0.691162 0.380529 0.077719 0.129348
H152  H     H_    0.711025 0.438770 0.020778 0.134320
H153  H     H_    0.653920 0.489471 0.924544 0.175962
C287  C     C_R   0.425164 0.564945 0.112230 0.001902
C288  C     C_R   0.415694 0.566975 0.040625 -0.053659
C289  C     C_R   0.399313 0.605759 0.993506 -0.123910
C290  C     C_R   0.389210 0.645502 0.013844 -0.131185
C291  C     C_R   0.393622 0.645416 0.079441 -0.116072
C292  C     C_R   0.409402 0.606124 0.125802 -0.212149
H154  H     H_    0.419115 0.536812 0.018933 0.141817
H155  H     H_    0.393403 0.604555 0.940091 0.150967
H156  H     H_    0.376452 0.675713 0.977657 0.129887
H157  H     H_    0.383979 0.675973 0.094219 0.130028
H158  H     H_    0.408546 0.613026 0.171088 0.126873
C293  C     C_R   0.398485 0.487731 0.090265 0.112994
C294  C     C_R   0.395537 0.460455 0.035182 -0.094475
C295  C     C_R   0.355005 0.438215 0.977760 -0.094411
C296  C     C_R   0.314113 0.446183 0.967254 -0.105606
C297  C     C_R   0.313626 0.477254 0.013144 -0.117088
C298  C     C_R   0.354429 0.498478 0.071605 -0.128719
H159  H     H_    0.424068 0.454567 0.035405 0.147753
H160  H     H_    0.355172 0.415774 0.939735 0.126214
H161  H     H_    0.282565 0.429680 0.921853 0.128338
H162  H     H_    0.281418 0.485555 0.002906 0.135497
H163  H     H_    0.350796 0.523906 0.101796 0.126388
C299  C     C_R   0.588470 0.540918 0.893309 0.036145
C300  C     C_R   0.600423 0.545045 0.966133 -0.030647
C301  C     C_R   0.629970 0.579018 0.017004 -0.085803
C302  C     C_R   0.649751 0.610652 0.997712 -0.122014
C303  C     C_R   0.638932 0.609002 0.926924 -0.127332
C304  C     C_R   0.608780 0.575418 0.875739 -0.172434
H164  H     H_    0.587723 0.519931 0.984003 0.120252
H165  H     H_    0.637809 0.580684 0.071785 0.130121
H166  H     H_    0.672626 0.637028 0.036930 0.127790
H167  H     H_    0.652476 0.635077 0.910228 0.135963
H168  H     H_    0.597385 0.582591 0.820584 0.131675
C305  C     C_2   0.061935 0.938499 0.759813 0.440928
H169  H     H_    0.075594 0.913703 0.804677 0.066025
O57   O     O_2   0.061873 0.925496 0.708040 -0.539767
C306  C     C_2   0.925978 0.050392 0.246847 0.446067
H170  H     H_    0.889528 0.056800 0.204992 0.081212
O58   O     O_2   0.943797 0.072814 0.303758 -0.588693
C307  C     C_2   0.913870 0.971326 0.223587 0.305963
H171  H     H_    0.908768 0.940538 0.194289 0.203366
O59   O     O_2   0.888593 0.974987 0.242067 -0.579484
C308  C     C_2   0.092803 0.010521 0.770338 0.447863
H172  H     H_    0.091882 0.042408 0.747385 0.068345
O60   O     O_2   0.128803 0.989870 0.795874 -0.579572
C309  C     C_2   0.560726 0.439153 0.754482 0.418560
H173  H     H_    0.550409 0.429432 0.699784 0.100846
O61   O     O_2   0.586994 0.412197 0.805385 -0.572797
C310  C     C_2   0.425969 0.550374 0.246832 0.445613
H174  H     H_    0.389518 0.556773 0.204974 0.081200
O62   O     O_2   0.443783 0.572804 0.303733 -0.589257
C311  C     C_2   0.413880 0.471304 0.223593 0.305033
H175  H     H_    0.408788 0.440514 0.194303 0.203407
O63   O     O_2   0.388601 0.474959 0.242068 -0.579879
C312  C     C_2   0.592923 0.509559 0.771278 0.384906
H176  H     H_    0.591350 0.539542 0.743295 0.086414
O64   O     O_2   0.630662 0.490775 0.805559 -0.570632

loop_
_geom_bond_atom_site_label_1
_geom_bond_atom_site_label_2
_geom_bond_distance
_ccdc_geom_bond_type
C144  H34   1.032029 S    
C206  C207  1.383212 A    
C35   C39   1.721803 S    
C309  H173  1.082589 S    
C82   C86   1.227782 T    
C300  C301  1.397696 A    
C14   C22   1.687291 S    
C182  H66   1.082257 S    
C192  C193  1.395702 A    
C147  C148  1.397661 A    
C107  O51   1.213192 D    
C25   C37   1.646434 S    
C237  C238  1.397191 A    
C19   C221  1.671191 S    
C141  H32   1.082744 S    
C38   C307  1.555387 S    
C239  C240  1.419171 A    
O18   Zn6   1.863894 S    
C94   C98   1.448182 S    
C20   C179  1.624129 S    
C15   C111  1.553555 S    
C240  H114  1.040777 S    
C143  C144  1.405751 A    
C10   C18   1.687314 S    
C299  C300  1.418072 A    
C261  C262  1.395443 A    
C201  C202  1.400393 A    
C164  H51   1.082233 S    
O47   Zn12  1.870117 S    
C86   C90   1.447324 S    
C288  H154  1.051121 S    
C273  C274  1.398409 A    
C207  H87   1.083340 S    
C263  C264  1.443903 A    
C298  H163  1.069912 S    
C50   C54   1.227452 T    
C120  H14   1.032006 S    
C28   C40   1.661566 S    
C211  H90   1.083229 S    
C81   C85   1.227804 T    
O25   C69   1.220552 A    
O37   C75   1.334064 A    
C223  H100  1.083256 S    
C39   C309  1.545138 S    
C144  C145  1.395817 A    
C123  C124  1.397673 A    
C171  H57   1.083037 S    
O37   Zn11  1.877841 S    
O38   Zn12  1.877844 S    
C212  C213  1.379829 A    
C110  O54   1.223261 D    
C287  C292  1.443907 A    
C243  H117  1.082918 S    
C121  C122  1.383909 A    
C292  H158  1.057588 S    
O16   Zn4   2.111739 S    
C183  C184  1.400640 A    
C175  C176  1.377991 A    
C13   C109  1.507494 S    
C24   C251  1.623753 S    
O31   Zn8   2.106327 S    
O13   Zn3   2.103266 S    
C62   C78   1.472607 S    
C129  C130  1.395149 A    
C247  C248  1.377150 A    
C229  H105  1.082398 S    
C68   C84   1.472898 S    
C75   C103  1.472743 S    
C297  H162  1.082534 S    
C58   C62   1.227896 T    
C204  C205  1.395626 A    
C48   C52   1.447015 S    
C73   C101  1.472758 S    
C291  C292  1.401062 A    
C312  H176  1.047709 S    
C27   C299  1.616618 S    
O9    C5    1.246491 A    
C275  C280  1.429665 A    
O2    Zn2   1.864179 S    
O38   C76   1.333628 A    
C164  C165  1.384788 A    
C224  C225  1.377828 A    
C203  C208  1.432730 A    
O45   C77   1.332810 A    
O20   Zn5   1.864767 S    
C268  H138  1.051075 S    
C106  H2    1.061672 S    
C179  C184  1.433314 A    
C303  H167  1.082954 S    
C223  C224  1.377140 A    
O8    Zn4   1.865068 S    
C9    C113  1.636590 S    
C16   C24   1.696972 S    
C279  C280  1.398026 A    
C11   C30   1.726685 S    
C221  C222  1.429513 A    
C269  C270  1.432274 A    
C174  C175  1.398226 A    
C165  H52   1.082356 S    
C290  H156  1.082412 S    
C193  C194  1.383224 A    
C14   C32   1.687157 S    
C63   C79   1.472658 S    
C264  H134  1.057591 S    
C195  C196  1.399281 A    
O24   Zn7   1.864767 S    
O39   C75   1.334619 A    
C134  H26   1.082383 S    
O26   C70   1.224804 A    
C18   C215  1.643951 S    
C306  H170  1.080628 S    
C89   C95   1.227484 T    
C216  H94   1.040789 S    
C133  H25   1.082678 S    
C24   C35   1.737344 S    
C218  H96   1.082137 S    
C46   C50   1.446967 S    
C131  C136  1.413761 A    
C277  C278  1.384416 A    
C270  H139  1.069914 S    
O15   C8    1.238542 A    
C91   C93   1.227495 T    
C278  H146  1.082340 S    
C254  C255  1.386671 A    
C285  H152  1.082706 S    
C27   C39   1.648919 S    
C194  C195  1.384567 A    
C41   C45   1.227939 T    
C28   C32   1.730783 S    
C301  C302  1.384610 A    
O42   C78   1.336191 A    
C117  C118  1.398176 A    
C301  H165  1.080900 S    
C258  H129  1.051202 S    
C53   C57   1.447873 S    
C303  C304  1.398339 A    
O30   Zn5   2.106327 S    
O31   C71   1.254018 A    
C217  C218  1.381601 A    
C129  H22   1.082967 S    
C55   C59   1.447887 S    
C210  H89   1.063354 S    
C117  H12   1.082748 S    
C137  C138  1.418827 A    
C219  C220  1.397061 A    
C174  H59   1.042376 S    
C140  H31   1.082154 S    
C10   C119  1.626778 S    
C161  C166  1.444152 A    
C240  C241  1.396531 A    
O35   C73   1.334555 A    
C192  H74   1.068297 S    
C139  H30   1.082509 S    
C5    C29   1.512136 S    
C230  C231  1.386588 A    
C18   C167  1.619110 S    
C200  H81   1.082317 S    
O19   Zn6   1.864770 S    
C9    C29   1.710413 S    
O48   Zn11  1.870114 S    
C128  C129  1.378073 A    
C184  H68   1.048825 S    
O13   C7    1.245698 A    
C158  H46   1.082384 S    
O14   C8    1.235492 A    
O39   Zn12  1.868313 S    
C44   C48   1.227555 T    
C236  C237  1.379591 A    
C3    C43   1.472107 S    
C155  C160  1.413121 A    
C308  H172  1.043973 S    
C4    C44   1.473517 S    
O11   Zn1   2.111739 S    
C19   C34   1.738725 S    
C228  C229  1.397707 A    
O24   C68   1.238186 A    
C284  C285  1.381964 A    
C151  C152  1.380159 A    
C199  H80   1.081699 S    
C108  H4    1.067318 S    
C36   C72   1.519147 S    
C201  H82   1.083579 S    
C115  H10   1.082493 S    
O17   C65   1.248979 A    
C220  H98   1.075442 S    
O6    Zn4   1.864179 S    
C266  C267  1.378001 A    
C222  C223  1.397682 A    
C109  O53   1.224959 D    
C264  C265  1.401071 A    
C244  H118  1.075448 S    
C208  H88   1.047432 S    
C15   C23   1.683222 S    
C173  C178  1.443012 A    
C197  C202  1.442923 A    
C196  H78   1.043211 S    
C23   C197  1.635272 S    
C167  C172  1.421196 A    
C125  C130  1.439397 A    
C241  H115  1.082771 S    
C105  O49   1.225097 D    
C161  C162  1.418518 A    
C26   C38   1.661580 S    
C15   C149  1.627880 S    
C239  C244  1.441744 A    
C275  C276  1.417638 A    
C207  C208  1.400643 A    
C193  H75   1.082509 S    
C294  C295  1.398406 A    
C145  H35   1.082428 S    
O7    C4    1.238461 A    
O20   C66   1.237866 A    
O28   C72   1.224787 A    
C143  C148  1.442233 A    
C42   C46   1.227609 T    
C95   C99   1.447932 S    
C299  C304  1.430868 A    
C66   C82   1.472818 S    
C96   C100  1.448135 S    
O14   Zn4   2.103266 S    
C191  C192  1.440879 A    
C147  H37   1.082735 S    
C188  C189  1.384840 A    
C188  H71   1.082232 S    
C142  H33   1.077699 S    
C39   C312  1.559024 S    
C213  H92   1.083140 S    
C253  C254  1.386021 A    
O23   Zn8   1.864770 S    
C87   C91   1.447047 S    
C114  C115  1.396669 A    
C305  H169  1.074694 S    
C20   C227  1.623987 S    
O25   Zn5   2.109306 S    
C140  C141  1.384733 A    
C245  C246  1.429563 A    
O16   C7    1.227703 A    
O48   C80   1.332771 A    
O27   Zn7   2.109306 S    
C168  C169  1.395704 A    
C126  C127  1.402070 A    
C234  C235  1.398229 A    
C114  H9    1.043633 S    
C113  C114  1.417141 A    
C243  C244  1.397061 A    
C185  C186  1.418521 A    
C162  H49   1.045250 S    
C54   C58   1.447852 S    
C241  C242  1.381596 A    
C175  H60   1.081692 S    
C273  H142  1.082901 S    
C290  C291  1.380091 A    
C209  C214  1.442012 A    
C15   C32   1.726637 S    
C13   C137  1.637184 S    
C178  H63   1.052432 S    
C231  C232  1.400119 A    
C115  C116  1.383127 A    
C145  C146  1.383879 A    
C235  H110  1.083258 S    
C23   C245  1.671107 S    
C159  H47   1.072778 S    
C146  H36   1.081911 S    
C88   C92   1.447348 S    
C229  C230  1.385865 A    
C191  C196  1.421218 A    
C253  H125  1.082396 S    
C297  C298  1.396565 A    
C61   C77   1.472649 S    
C177  H62   1.083579 S    
C226  H103  1.059700 S    
C122  H16   1.081917 S    
C282  H149  1.053752 S    
C74   C102  1.472990 S    
C121  H15   1.082427 S    
O10   C6    1.235483 A    
C232  H108  1.046447 S    
C233  C234  1.444969 A    
C11   C107  1.553556 S    
C124  H18   1.079900 S    
O19   C65   1.238535 A    
C266  H136  1.082413 S    
C279  H147  1.082966 S    
O34   Zn10  1.877844 S    
C272  C273  1.385900 A    
C12   C29   1.720046 S    
C250  H123  1.059675 S    
O23   C67   1.238768 A    
C33   C69   1.519377 S    
C259  C260  1.383592 A    
O33   C73   1.334138 A    
C198  C199  1.398205 A    
C203  C204  1.432635 A    
C276  C277  1.398350 A    
C27   C281  1.642336 S    
C37   C305  1.548293 S    
C162  C163  1.399184 A    
C19   C173  1.635351 S    
C225  H102  1.083391 S    
O4    C1    1.244646 A    
C150  H39   1.058314 S    
C260  H131  1.082365 S    
C153  C154  1.395193 A    
C17   C161  1.612182 S    
C287  C288  1.423570 A    
O2    C2    1.247995 A    
C8    C32   1.515677 S    
C302  H166  1.082320 S    
C67   C83   1.474246 S    
C294  H159  1.055892 S    
O26   Zn6   2.109307 S    
C280  H148  1.054987 S    
C14   C110  1.546632 S    
C307  H171  1.062082 S    
C60   C64   1.227945 T    
C133  C134  1.379579 A    
C281  C286  1.439770 A    
C248  C249  1.377850 A    
C218  C219  1.383669 A    
O46   C78   1.332871 A    
C127  C128  1.380162 A    
C255  C256  1.400105 A    
O36   C74   1.335232 A    
C100  C104  1.228087 T    
C22   C239  1.643944 S    
O43   C79   1.336263 A    
O5    C3    1.240336 A    
O17   Zn5   1.863897 S    
O44   C80   1.336328 A    
O6    C4    1.247607 A    
C288  C289  1.396745 A    
C126  H19   1.058296 S    
C265  H135  1.083742 S    
C183  H67   1.083357 S    
O7    Zn3   1.865062 S    
C169  C170  1.383224 A    
C9    C105  1.512082 S    
C233  C238  1.443617 A    
C210  C211  1.398076 A    
C21   C35   1.725740 S    
C26   C269  1.622719 S    
C22   C36   1.727205 S    
C269  C274  1.423867 A    
C149  C154  1.439375 A    
C170  H56   1.082258 S    
C254  H126  1.082261 S    
O11   C6    1.238553 A    
O42   Zn10  1.875540 S    
C211  C212  1.378982 A    
C310  O62   1.216681 D    
C123  H17   1.082732 S    
C312  O64   1.224883 D    
C139  C140  1.383173 A    
C49   C53   1.227416 T    
C276  H144  1.060218 S    
C28   C293  1.622753 S    
C230  H106  1.082265 S    
C198  H79   1.042560 S    
C52   C56   1.227491 T    
C6    C30   1.515679 S    
C106  O50   1.223264 D    
C186  C187  1.399272 A    
C10   C30   1.687134 S    
C148  H38   1.079889 S    
C302  C303  1.385333 A    
C309  O61   1.220788 D    
C2    C42   1.473610 S    
C270  C271  1.396564 A    
C286  H153  1.071686 S    
O12   Zn2   2.111739 S    
C228  H104  1.071995 S    
C160  H48   1.058718 S    
C284  H151  1.082370 S    
C34   C70   1.519162 S    
C14   C143  1.626817 S    
C151  H40   1.077898 S    
C186  H69   1.046981 S    
C56   C60   1.447924 S    
C194  H76   1.082257 S    
O3    Zn1   1.865062 S    
O1    C1    1.240512 A    
C132  C133  1.394540 A    
C153  H42   1.082964 S    
C224  H101  1.082402 S    
C33   C37   1.718698 S    
C215  C220  1.441760 A    
C27   C31   1.712427 S    
O41   Zn9   1.875543 S    
C222  H99   1.038022 S    
C12   C108  1.569449 S    
C176  H61   1.082318 S    
C187  C188  1.386294 A    
C306  O58   1.216680 D    
O21   C67   1.248887 A    
C137  C142  1.440251 A    
C271  C272  1.385551 A    
C12   C131  1.617165 S    
C125  C126  1.424638 A    
C18   C34   1.727200 S    
C57   C61   1.227920 T    
C127  H20   1.077794 S    
C113  C118  1.440470 A    
C189  H72   1.082344 S    
C116  H11   1.082120 S    
O22   C68   1.247206 A    
C252  H124  1.071656 S    
C289  H155  1.082029 S    
O28   Zn8   2.109307 S    
C262  H133  1.070552 S    
C259  H130  1.083300 S    
C1    C41   1.472178 S    
C138  C139  1.396850 A    
C25   C257  1.639923 S    
C97   C101  1.227969 T    
O32   C72   1.250889 A    
C65   C81   1.474364 S    
C310  H174  1.080628 S    
C16   C112  1.571148 S    
C249  H122  1.083389 S    
C26   C30   1.730808 S    
C179  C180  1.433222 A    
C64   C80   1.472683 S    
C37   C308  1.566347 S    
C289  C290  1.378002 A    
C24   C203  1.622246 S    
C227  C232  1.409007 A    
C214  H93   1.068561 S    
O4    Zn2   1.865068 S    
C245  C250  1.446033 A    
C13   C31   1.711107 S    
O27   C71   1.220234 A    
C261  H132  1.082676 S    
C17   C209  1.673755 S    
C168  H54   1.068306 S    
C296  H161  1.082341 S    
C156  C157  1.394496 A    
C13   C21   1.685029 S    
C300  H164  1.059842 S    
O29   Zn6   2.106327 S    
C163  C164  1.386222 A    
C10   C106  1.546659 S    
C234  H109  1.062613 S    
C274  H143  1.055918 S    
C116  C117  1.384986 A    
C308  O60   1.226475 D    
C197  C198  1.422495 A    
C182  C183  1.383013 A    
C272  H141  1.082342 S    
C45   C49   1.446828 S    
C152  C153  1.378128 A    
C47   C51   1.446822 S    
C93   C97   1.447950 S    
C189  C190  1.395682 A    
C108  O52   1.224072 D    
C231  H107  1.082712 S    
C36   C40   1.696550 S    
C157  C158  1.379604 A    
C109  H5    1.042868 S    
O36   Zn9   1.868316 S    
C9    C17   1.684510 S    
C235  C236  1.378888 A    
O3    C2    1.238101 A    
C159  C160  1.403603 A    
C217  H95   1.082769 S    
C209  C210  1.444912 A    
C154  H43   1.060458 S    
O46   Zn9   1.870114 S    
C237  H112  1.083115 S    
C85   C89   1.447017 S    
C110  H6    1.061676 S    
C283  C284  1.383021 A    
O44   Zn12  1.875540 S    
C76   C104  1.472948 S    
C28   C287  1.644578 S    
C107  H3    1.089380 S    
C105  H1    1.038178 S    
C120  C121  1.395822 A    
C152  H41   1.082455 S    
O22   Zn8   1.863894 S    
C295  H160  1.082907 S    
C225  C226  1.398964 A    
C311  O63   1.228284 D    
C181  C182  1.380860 A    
C83   C87   1.227764 T    
C246  H119  1.038065 S    
C171  C172  1.399279 A    
C307  O59   1.228279 D    
C187  H70   1.082834 S    
O47   C79   1.332828 A    
C128  H21   1.082456 S    
C111  O55   1.213193 D    
C212  H91   1.082326 S    
C22   C191  1.619096 S    
C25   C275  1.616067 S    
C135  H27   1.072995 S    
C119  C124  1.442213 A    
C267  H137  1.082036 S    
C172  H58   1.043195 S    
C158  C159  1.382934 A    
C281  C282  1.434137 A    
C156  H44   1.069831 S    
C251  C256  1.409176 A    
C40   C311  1.555381 S    
C291  H157  1.083742 S    
O18   C66   1.247462 A    
O45   Zn10  1.870117 S    
C177  C178  1.400403 A    
C11   C19   1.683043 S    
C119  C120  1.405651 A    
C59   C63   1.227925 T    
C157  H45   1.082673 S    
C219  H97   1.082918 S    
O30   C70   1.250881 A    
C25   C29   1.715180 S    
O15   Zn3   2.111739 S    
C295  C296  1.385896 A    
C21   C233  1.678933 S    
C248  H121  1.082402 S    
C170  C171  1.384568 A    
C136  H28   1.058485 S    
C112  H8    1.067266 S    
O5    Zn3   1.864185 S    
C180  H64   1.059207 S    
O1    Zn1   1.864185 S    
O9    Zn1   2.103266 S    
C131  C132  1.444406 A    
O43   Zn11  1.875543 S    
C202  H83   1.052369 S    
C282  C283  1.398770 A    
O29   C69   1.253886 A    
C293  C298  1.432280 A    
C43   C47   1.227959 T    
C169  H55   1.082507 S    
C247  H120  1.083255 S    
C221  C226  1.446081 A    
C296  C297  1.385553 A    
C242  C243  1.383660 A    
C173  C174  1.422316 A    
C132  H24   1.070469 S    
C260  C261  1.382607 A    
C38   C306  1.547922 S    
C180  C181  1.395664 A    
C165  C166  1.395626 A    
C163  H50   1.082853 S    
C271  H140  1.082536 S    
O10   Zn2   2.103266 S    
C35   C71   1.519966 S    
C111  H7    1.089378 S    
C195  H77   1.083038 S    
C7    C31   1.512441 S    
C311  H175  1.062099 S    
O35   Zn10  1.868313 S    
C256  H128  1.046042 S    
C150  C151  1.402033 A    
C134  C135  1.382826 A    
C257  C262  1.435774 A    
C135  C136  1.403513 A    
O40   Zn11  1.868316 S    
C304  H168  1.056298 S    
C267  C268  1.396741 A    
C26   C263  1.644580 S    
C216  C217  1.396531 A    
C258  C259  1.398713 A    
C16   C31   1.721228 S    
C238  H113  1.068720 S    
C92   C94   1.227642 T    
C236  H111  1.082333 S    
C283  H150  1.083340 S    
C277  H145  1.080352 S    
C99   C103  1.227956 T    
C149  C150  1.424750 A    
C40   C310  1.547917 S    
C215  C216  1.419155 A    
C213  C214  1.397126 A    
C34   C38   1.696567 S    
O41   C77   1.336276 A    
C206  H86   1.082255 S    
C293  C294  1.423889 A    
C176  C177  1.379104 A    
C246  C247  1.397671 A    
C181  H65   1.082435 S    
C16   C155  1.616049 S    
O32   Zn7   2.106327 S    
C21   C185  1.610905 S    
C146  C147  1.386695 A    
O12   C5    1.227458 A    
C242  H116  1.082140 S    
O21   Zn7   1.863897 S    
C265  C266  1.380103 A    
C278  C279  1.384842 A    
C167  C168  1.440884 A    
C251  C252  1.432156 A    
C17   C33   1.724620 S    
C252  C253  1.397767 A    
C305  O57   1.225024 D    
C263  C268  1.423554 A    
C51   C55   1.227420 T    
C200  C201  1.379110 A    
O8    C3    1.244824 A    
C205  H85   1.082438 S    
C205  C206  1.381091 A    
C130  H23   1.060473 S    
C185  C190  1.444898 A    
C204  H84   1.059147 S    
O33   Zn9   1.877841 S    
C138  H29   1.046045 S    
C12   C20   1.697923 S    
C257  C258  1.432258 A    
C141  C142  1.398073 A    
C155  C156  1.444101 A    
C98   C102  1.228111 T    
C249  C250  1.398964 A    
O34   C74   1.333578 A    
C118  H13   1.077763 S    
C255  H127  1.082700 S    
C23   C36   1.738685 S    
C166  H53   1.078203 S    
C11   C125  1.627774 S    
C20   C33   1.740990 S    
C190  H73   1.079527 S    
C227  C228  1.432396 A    
C90   C96   1.227616 T    
C122  C123  1.386722 A    
C199  C200  1.378004 A    
C285  C286  1.395391 A    
C112  O56   1.224314 D    
O40   C76   1.335163 A    
C84   C88   1.227773 T    
