data_mof_unit_57529.cif
_audit_creation_date              2012-12-11T14:58:40-0500
_audit_creation_method            fapswitch 2.2
_symmetry_space_group_name_H-M    P1
_symmetry_Int_Tables_number       1
_space_group_crystal_system       triclinic
_cell_length_a                    10.94673
_cell_length_b                    10.908241
_cell_length_c                    18.773314
_cell_angle_alpha                 90.40774
_cell_angle_beta                  90.509595
_cell_angle_gamma                 59.831905
_cell_volume                      1937.99822438

loop_
_atom_site_label
_atom_site_type_symbol
_atom_type_description
_atom_site_fract_x
_atom_site_fract_y
_atom_site_fract_z
_atom_type_partial_charge
C1    C     C_R   0.359020 0.773162 0.397837 0.542807
C2    C     C_R   0.246670 0.442531 0.198975 -0.154329
C3    C     C_R   0.245007 0.450254 0.273147 -0.033561
C4    C     C_R   0.385986 0.354804 0.387379 0.536891
C5    C     C_R   0.878461 0.801227 0.368549 -0.120617
C6    C     C_R   0.927593 0.663813 0.393422 -0.094537
C7    C     C_R   0.045942 0.549083 0.362430 -0.044587
C8    C     C_R   0.118487 0.571105 0.307042 0.053685
C9    C     C_R   0.362675 0.343427 0.311404 -0.003163
C10   C     C_R   0.955361 0.301525 0.308033 -0.157767
C11   C     C_R   0.984125 0.293226 0.235835 -0.128421
C12   C     C_R   0.612900 0.117049 0.166297 0.059226
C13   C     C_R   0.874770 0.332239 0.185857 0.037092
C14   C     C_R   0.736139 0.383111 0.207338 -0.151453
C15   C     C_R   0.707050 0.393600 0.279496 -0.119834
C16   C     C_R   0.778440 0.377691 0.403279 0.543459
C17   C     C_R   0.816706 0.352971 0.329539 0.037463
C18   C     C_R   0.470584 0.789095 0.287389 -0.142338
C19   C     C_R   0.458351 0.815775 0.214590 -0.153845
C20   C     C_R   0.323968 0.888894 0.184271 0.033305
C21   C     C_R   0.202966 0.946159 0.227546 -0.142522
C22   C     C_R   0.215054 0.921172 0.299606 -0.149152
C23   C     C_R   0.359786 0.331341 0.162493 -0.004297
C24   C     C_R   0.348027 0.836081 0.329018 0.030697
C25   C     C_R   0.366341 0.205274 0.692894 -0.127883
C26   C     C_R   0.352286 0.191045 0.764688 -0.127677
C27   C     C_R   0.299987 0.309834 0.810044 0.026159
C28   C     C_R   0.345021 0.769028 0.604757 0.542787
C29   C     C_R   0.252344 0.444788 0.783008 -0.171672
C30   C     C_R   0.266594 0.459188 0.710861 -0.137298
C31   C     C_R   0.326726 0.338686 0.666211 0.061369
C32   C     C_R   0.925555 0.380665 0.705373 0.008127
C33   C     C_R   0.955769 0.365990 0.777939 -0.160459
C34   C     C_R   0.479377 0.238176 0.274046 -0.150726
C35   C     C_R   0.920441 0.283937 0.820601 0.016075
C36   C     C_R   0.860433 0.209254 0.789643 -0.143934
C37   C     C_R   0.823432 0.228228 0.717730 -0.163248
C38   C     C_R   0.848610 0.319839 0.675955 0.039426
C39   C     C_R   0.193943 0.856299 0.710336 -0.140109
C40   C     C_R   0.369888 0.351428 0.595965 0.570415
C41   C     C_R   0.182806 0.866999 0.783518 -0.140510
C42   C     C_R   0.299359 0.844100 0.825096 0.029942
C43   C     C_R   0.428326 0.806716 0.792877 -0.146077
C44   C     C_R   0.439981 0.794606 0.719559 -0.145182
C45   C     C_R   0.482574 0.232883 0.200472 -0.024918
C46   C     C_R   0.323139 0.817827 0.677949 0.028246
C47   C     C_R   0.910689 0.316251 0.111824 0.543125
C48   C     C_R   0.329694 0.295320 0.091916 0.540057
C49   C     C_R   0.300854 0.911270 0.108417 0.551477
C50   C     C_R   0.948015 0.280398 0.896993 0.575142
C51   C     C_R   0.294022 0.286736 0.884747 0.538417
C52   C     C_R   0.770450 0.372659 0.608687 0.581814
C53   C     C_R   0.275489 0.893417 0.898027 0.542034
C54   C     C_R   0.849253 0.895373 0.097924 -0.112915
C55   C     C_R   0.792462 0.034681 0.074180 -0.084788
C56   C     C_R   0.067336 0.710143 0.282262 -0.087899
C57   C     C_R   0.676141 0.145447 0.108643 -0.057728
C58   C     C_2   0.973174 0.463098 0.663224 0.239262
C59   C     C_R   0.948354 0.824354 0.313047 -0.113915
C60   C     C_R   0.671341 0.976057 0.189757 -0.095691
C61   C     C_R   0.788553 0.866067 0.155593 -0.123650
Cr1   Cr    Cr6+3 0.601770 0.606860 0.505860 1.019753
Cr2   Cr    Cr6+3 0.291380 0.601660 0.495070 1.041229
Cr3   Cr    Cr6+3 0.606880 0.291510 0.499120 1.011900
Cr4   Cr    Cr6+3 0.062440 0.063090 0.008210 0.978672
Cr5   Cr    Cr6+3 0.062880 0.375170 0.998920 1.000553
Cr6   Cr    Cr6+3 0.374700 0.061720 0.992470 1.020498
H1    H     H_    0.573620 0.161157 0.302202 0.141144
H2    H     H_    0.552043 0.773217 0.181876 0.123579
H3    H     H_    0.097519 0.006401 0.205209 0.150574
H4    H     H_    0.831922 0.757931 0.173698 0.123939
H5    H     H_    0.120498 0.960163 0.331409 0.130265
H6    H     H_    0.412885 0.112178 0.658894 0.124049
H7    H     H_    0.385001 0.086433 0.785191 0.142713
H8    H     H_    0.209601 0.536798 0.817676 0.120791
H9    H     H_    0.237048 0.563283 0.690658 0.143234
H10   H     H_    0.006142 0.420186 0.801655 0.123309
H11   H     H_    0.834736 0.143102 0.821588 0.131958
H12   H     H_    0.786521 0.889822 0.392407 0.112252
H13   H     H_    0.766190 0.179071 0.696208 0.137445
H14   H     H_    0.102764 0.873279 0.679360 0.133182
H15   H     H_    0.910148 0.930899 0.293711 0.115820
H16   H     H_    0.081119 0.899140 0.807140 0.130855
H17   H     H_    0.518621 0.791170 0.824204 0.130137
H18   H     H_    0.541714 0.762186 0.695882 0.137502
H19   H     H_    0.939617 0.810024 0.071297 0.110482
H20   H     H_    0.837761 0.056579 0.028484 0.148222
H21   H     H_    0.632519 0.252498 0.088913 0.096613
H22   H     H_    0.120101 0.730253 0.239255 0.117049
H23   H     H_    0.874567 0.646462 0.437189 0.149902
H24   H     H_    0.624944 0.950808 0.233874 0.109299
H25   H     H_    0.153395 0.518590 0.169772 0.134204
H26   H     H_    0.982533 0.547793 0.688475 0.090457
H27   H     H_    0.083321 0.443771 0.382969 0.108893
H28   H     H_    0.040035 0.268098 0.346666 0.102971
H29   H     H_    0.091786 0.254592 0.218698 0.125379
H30   H     H_    0.651319 0.416033 0.168781 0.101229
H31   H     H_    0.598729 0.436105 0.296550 0.124250
H32   H     H_    0.575095 0.722839 0.309861 0.143853
O1    O     O_R   0.748800 0.497470 0.428000 -0.523540
O2    O     O_R   0.417600 0.174890 0.067840 -0.502017
O3    O     O_R   0.375320 0.946260 0.070860 -0.490925
O4    O     O_R   0.476420 0.724060 0.429470 -0.514327
O5    O     O_R   0.160600 0.919630 0.926660 -0.535849
O6    O     O_R   0.933060 0.190520 0.936020 -0.520808
O7    O     O_R   0.908880 0.403460 0.925020 -0.514052
O8    O     O_R   0.179600 0.361450 0.918490 -0.527308
O9    O     O_R   0.391510 0.170860 0.907530 -0.521023
O10   O     O_R   0.351130 0.942530 0.922260 -0.508150
O11   O     O_3   0.166667 0.166667 0.999870 -0.269993
O12   O     O_R   0.300070 0.471040 0.567100 -0.489289
O13   O     O_R   0.264580 0.744340 0.416750 -0.505168
O14   O     O_R   0.309380 0.472470 0.418200 -0.489382
O15   O     O_R   0.501710 0.260430 0.414300 -0.532005
O16   O     O_R   0.728090 0.305600 0.428960 -0.504560
O17   O     O_R   0.738760 0.495930 0.588610 -0.482921
O18   O     O_R   0.467110 0.722640 0.578360 -0.510915
O19   O     O_R   0.254530 0.742800 0.577360 -0.527432
O20   O     O_2   0.007898 0.433650 0.601010 -0.503384
O21   O     O_R   0.491670 0.258900 0.574910 -0.527389
O22   O     O_R   0.718780 0.304180 0.577850 -0.514083
O23   O     O_3   0.500010 0.500010 0.500020 -0.256611
O24   O     O_R   0.186690 0.923650 0.086970 -0.531548
O25   O     O_R   0.957250 0.194250 0.084630 -0.516198
O26   O     O_R   0.934970 0.407490 0.085330 -0.512299
O27   O     O_R   0.203780 0.365190 0.067090 -0.508779

loop_
_geom_bond_atom_site_label_1
_geom_bond_atom_site_label_2
_ccdc_geom_bond_type
C11   H29   S    
C25   C31   A    
C23   C45   A    
C27   C29   A    
C41   C42   A    
C19   C20   A    
C59   H15   S    
C32   C58   S    
Cr5   O8    S    
C8    C56   A    
C7    C8    A    
C39   C41   A    
C28   C46   S    
C26   C27   A    
C29   C30   A    
C18   C24   A    
C4    O15   A    
C36   C37   A    
C37   C38   A    
C28   O18   A    
C1    O13   A    
C30   C31   A    
Cr6   O9    S    
C38   C52   S    
C10   C17   A    
Cr3   O22   S    
C41   H16   S    
C31   C40   S    
C18   C19   A    
Cr4   O25   S    
C22   H5    S    
Cr2   O13   S    
Cr1   O18   S    
C26   H7    S    
Cr6   O10   S    
C35   C36   A    
C27   C51   S    
C16   C17   S    
C50   O6    A    
C32   C38   A    
C5    H12   S    
C1    O4    A    
C61   H4    S    
Cr3   O16   S    
C21   C22   A    
Cr2   O12   S    
C43   H17   S    
Cr5   O7    S    
Cr4   O6    S    
C44   C46   A    
C47   O26   A    
C40   O12   A    
C52   O17   A    
C37   H13   S    
Cr3   O15   S    
C5    C59   A    
C4    O14   A    
C39   H14   S    
C3    C8    S    
C34   H1    S    
C49   O3    A    
C54   H19   S    
Cr2   O19   S    
C16   O1    A    
C25   C26   A    
C6    H23   S    
Cr5   O27   S    
C60   C61   A    
Cr2   O14   S    
C43   C44   A    
Cr1   O17   S    
C20   C49   S    
C3    C9    A    
C30   H9    S    
C52   O22   A    
Cr6   O11   S    
C35   C50   S    
C34   C45   A    
Cr5   O11   S    
C2    H25   S    
C39   C46   A    
Cr1   O1    S    
C12   C57   A    
C56   H22   S    
C40   O21   A    
C51   O9    A    
C55   C57   A    
C9    C34   A    
C22   C24   A    
C19   H2    S    
C42   C43   A    
C15   H31   S    
C44   H18   S    
C16   O16   A    
Cr1   O23   S    
Cr2   O23   S    
Cr6   O2    S    
C14   H30   S    
C13   C47   S    
Cr1   O4    S    
C60   H24   S    
C53   O10   A    
C15   C17   A    
C7    H27   S    
C54   C55   A    
C23   C48   S    
C58   H26   S    
C12   C45   S    
Cr5   O26   S    
C6    C7    A    
C29   H8    S    
C54   C61   A    
Cr3   O21   S    
C56   C59   A    
C21   H3    S    
C32   C33   A    
C2    C3    A    
C57   H21   S    
C42   C53   S    
C36   H11   S    
C11   C13   A    
C33   H10   S    
C47   O25   A    
C5    C6    A    
C10   H28   S    
Cr3   O23   S    
C48   O2    A    
C58   O20   D    
C33   C35   A    
C25   H6    S    
Cr4   O24   S    
C55   H20   S    
Cr4   O11   S    
C10   C11   A    
C48   O27   A    
C12   C60   A    
C20   C21   A    
C1    C24   S    
C51   O8    A    
C18   H32   S    
C2    C23   A    
C50   O7    A    
C14   C15   A    
C28   O19   A    
C53   O5    A    
Cr4   O5    S    
C4    C9    S    
C13   C14   A    
Cr6   O3    S    
C49   O24   A    
