data_mof_unit_52109.cif
_audit_creation_date              2012-12-10T17:08:47-0500
_audit_creation_method            fapswitch 2.2
_symmetry_space_group_name_H-M    P1
_symmetry_Int_Tables_number       1
_space_group_crystal_system       triclinic
_cell_length_a                    27.582889
_cell_length_b                    10.821345
_cell_length_c                    9.850732
_cell_angle_alpha                 110.634353
_cell_angle_beta                  97.355136
_cell_angle_gamma                 91.244879
_cell_volume                      2721.93442063

loop_
_atom_site_label
_atom_site_type_symbol
_atom_type_description
_atom_site_fract_x
_atom_site_fract_y
_atom_site_fract_z
_atom_type_partial_charge
C1    C     C_R   0.499362 0.253256 0.441711 0.849149
C2    C     C_R   0.505862 0.746899 0.558234 0.854370
C3    C     C_R   0.098276 0.499694 0.452396 -0.068680
C4    C     C_R   0.892820 0.488598 0.409487 -0.070739
C5    C     C_R   0.121364 0.387875 0.369331 -0.076917
C6    C     C_R   0.869436 0.605852 0.474574 -0.073662
C7    C     C_R   0.092187 0.274363 0.269522 0.092857
C8    C     C_R   0.897840 0.729620 0.537281 0.127559
C9    C     C_R   0.126663 0.609611 0.561296 -0.096250
C10   C     C_R   0.864859 0.365939 0.343202 -0.078374
C11   C     C_R   0.354687 0.515778 0.506976 -0.079775
C12   C     C_R   0.644718 0.480295 0.490023 -0.094576
C13   C     C_R   0.966972 0.378549 0.335928 0.027562
C14   C     C_R   0.023297 0.613136 0.506456 0.027022
C15   C     C_R   0.971811 0.615865 0.475419 0.000705
C16   C     C_R   0.018021 0.387065 0.329381 0.001812
C17   C     C_R   0.943855 0.494258 0.407347 0.036961
C18   C     C_R   0.046584 0.499798 0.429656 0.036487
C19   C     C_R   0.939556 0.256240 0.285881 -0.188890
C20   C     C_R   0.051275 0.716193 0.620424 -0.192691
C21   C     C_R   0.888871 0.247749 0.286173 0.001603
C22   C     C_R   0.102372 0.719019 0.645831 0.005942
C23   C     C_R   0.407662 0.504576 0.502648 0.874236
C24   C     C_R   0.592270 0.496356 0.497085 0.794764
C25   C     C_R   0.041841 0.286105 0.230675 0.131913
C26   C     C_R   0.947097 0.734458 0.511987 0.132418
C27   C     C_2   0.503511 0.111104 0.413735 0.001184
C28   C     C_2   0.512664 0.889575 0.586811 -0.075618
C29   C     C_2   0.536048 0.070850 0.504584 0.022149
C30   C     C_2   0.535330 0.931519 0.493547 -0.159802
C31   C     C_2   0.510924 0.474629 0.064337 0.017553
C32   C     C_2   0.495256 0.486255 0.917613 0.042552
C33   C     C_R   0.172982 0.398338 0.381426 0.585823
C34   C     C_R   0.817895 0.593985 0.467438 0.639817
C35   C     C_R   0.178018 0.602287 0.584018 0.559748
C36   C     C_R   0.813725 0.366829 0.339028 0.505508
C37   C     C_R   0.275102 0.581881 0.424783 0.085243
C38   C     C_R   0.712980 0.345381 0.416130 0.194685
C39   C     C_R   0.326849 0.586854 0.431517 -0.038051
C40   C     C_R   0.661897 0.360982 0.399759 -0.019754
C41   C     C_R   0.331414 0.446530 0.579098 -0.375288
C42   C     C_R   0.678229 0.577221 0.593191 -0.282975
C43   C     C_R   0.280736 0.443738 0.577461 0.024555
C44   C     C_R   0.728607 0.566652 0.592980 0.024328
C45   C     C_R   0.252281 0.510180 0.498399 0.337270
C46   C     C_R   0.745486 0.461227 0.479502 0.218136
Cu1   Cu    Cu3+1 0.508480 0.521810 0.644910 0.997760
Cu2   Cu    Cu3+1 0.491520 0.478190 0.355090 0.960263
H1    H     H_    0.352900 0.390355 0.633508 0.155673
H2    H     H_    0.664972 0.660504 0.675372 0.151039
H3    H     H_    0.552786 0.607239 0.925056 0.259717
H4    H     H_    0.442426 0.447109 0.098353 0.200037
H5    H     H_    0.958244 0.165863 0.258337 0.168256
H6    H     H_    0.033147 0.794324 0.693929 0.171941
N1    N     N_R   0.199740 0.502563 0.488898 -0.418412
N2    N     N_R   0.793653 0.472288 0.433119 -0.417899
N3    N     N_2   0.478780 0.445430 0.137360 -0.323693
N4    N     N_2   0.521220 0.554570 0.862640 -0.308732
O1    O     O_R   0.504520 0.332330 0.577400 -0.519247
O2    O     O_R   0.495480 0.667670 0.422600 -0.555962
O3    O     O_R   0.490210 0.295500 0.332650 -0.593072
O4    O     O_R   0.509790 0.704500 0.667350 -0.578375
O5    O     O_R   0.437420 0.518430 0.622370 -0.601947
O6    O     O_R   0.562580 0.481570 0.377630 -0.623620
O7    O     O_R   0.423110 0.481600 0.377610 -0.556535
O8    O     O_R   0.576890 0.518400 0.622390 -0.524894
O9    O     O_2   0.196518 0.309301 0.283020 -0.571349
O10   O     O_2   0.791705 0.700254 0.480205 -0.566976
O11   O     O_2   0.784716 0.271242 0.231145 -0.553211
O12   O     O_2   0.206520 0.692938 0.698744 -0.562711
C47   C     C_3   0.494994 0.984426 0.723712 -0.406804
C48   C     C_3   0.439985 0.962804 0.721475 -0.657605
H7    H     H_    0.419305 0.979787 0.626305 0.270098
H8    H     H_    0.430281 0.860953 0.716281 0.248809
H9    H     H_    0.428998 0.033873 0.823270 0.237967
H10   H     H_    0.514722 0.968662 0.821286 0.211505
H11   H     H_    0.503178 0.089674 0.739978 0.239319
C49   C     C_3   0.469452 0.014116 0.284088 -0.378611
C50   C     C_3   0.415691 0.031422 0.303768 -0.791802
H12   H     H_    0.408644 0.016280 0.405254 0.268948
H13   H     H_    0.405637 0.131834 0.309686 0.244137
H14   H     H_    0.392072 0.957270 0.209026 0.247309
H15   H     H_    0.475761 0.031185 0.182701 0.215081
H16   H     H_    0.476456 0.909327 0.265472 0.244587
C51   C     C_2   0.449161 0.412099 0.833984 0.435648
H17   H     H_    0.416714 0.465137 0.826488 0.048964
O13   O     O_2   0.446296 0.291393 0.783154 -0.590237
C52   C     C_2   0.563611 0.466305 0.106280 0.469618
H18   H     H_    0.576195 0.376041 0.118381 0.078534
O14   O     O_2   0.593273 0.559032 0.128365 -0.546734
C53   C     C_2   0.259315 0.368265 0.658510 0.398472
H19   H     H_    0.282923 0.314075 0.710974 0.062692
O15   O     O_2   0.215784 0.365998 0.669728 -0.533968
C54   C     C_2   0.761685 0.657393 0.722177 0.426473
H20   H     H_    0.749320 0.751055 0.788910 0.086381
O16   O     O_2   0.802039 0.625835 0.759555 -0.546276
C55   C     C_3   0.112575 0.137818 0.217214 -0.306370
C56   C     C_3   0.079158 0.029248 0.231261 -0.836823
H21   H     H_    0.069187 0.060379 0.343679 0.246683
H22   H     H_    0.045350 0.005456 0.150288 0.254599
H23   H     H_    0.098723 0.937173 0.210552 0.264581
H24   H     H_    0.119936 0.111335 0.102760 0.255674
H25   H     H_    0.147367 0.136590 0.286500 0.251516
C57   C     C_3   0.878777 0.852703 0.644437 -0.348153
C58   C     C_3   0.914537 0.916490 0.786925 -0.811807
H26   H     H_    0.924672 0.841590 0.836984 0.277225
H27   H     H_    0.948260 0.961725 0.768104 0.231110
H28   H     H_    0.896829 0.996357 0.866041 0.277551
H29   H     H_    0.870195 0.926310 0.591483 0.203287
H30   H     H_    0.844947 0.828145 0.681604 0.266045
C59   C     C_2   0.626989 0.250102 0.299066 0.397227
H31   H     H_    0.588944 0.245215 0.314380 0.086033
O17   O     O_2   0.640181 0.163946 0.194956 -0.526438
C60   C     C_2   0.351435 0.669148 0.362874 0.337949
H32   H     H_    0.334240 0.678605 0.262171 0.086215
O18   O     O_2   0.390648 0.731236 0.420935 -0.565879
C61   C     C_3   0.730919 0.212588 0.415974 -0.334559
C62   C     C_3   0.707259 0.162504 0.520958 -0.767865
H33   H     H_    0.709372 0.242193 0.630327 0.267349
H34   H     H_    0.668465 0.126757 0.476859 0.285187
H35   H     H_    0.726869 0.077990 0.534223 0.248428
H36   H     H_    0.724140 0.136271 0.304073 0.278860
H37   H     H_    0.770887 0.222368 0.454772 0.187504
C63   C     C_3   0.244138 0.655181 0.342074 -0.441558
C64   C     C_3   0.232210 0.572904 0.178588 -0.751330
H38   H     H_    0.265865 0.537885 0.130530 0.239635
H39   H     H_    0.206968 0.485770 0.160808 0.281964
H40   H     H_    0.213889 0.634015 0.120111 0.254707
H41   H     H_    0.209181 0.681731 0.385463 0.207920
H42   H     H_    0.263042 0.751853 0.357694 0.201127
C65   C     C_2   0.863492 0.113765 0.242224 0.408665
H43   H     H_    0.829578 0.100083 0.281452 0.103990
O19   O     O_2   0.880912 0.015861 0.163586 -0.556976
C66   C     C_2   0.128308 0.842172 0.755614 0.416972
H44   H     H_    0.162164 0.882425 0.737479 0.122798
O20   O     O_2   0.110969 0.902965 0.866175 -0.581605
C67   C     C_3   0.017807 0.211123 0.072401 -0.407428
C68   C     C_3   0.998584 0.305371 0.996625 -0.791282
H45   H     H_    0.967493 0.357382 0.046964 0.264013
H46   H     H_    0.028273 0.379549 0.004142 0.256501
H47   H     H_    0.985368 0.248206 0.879065 0.239230
H48   H     H_    0.044795 0.153320 0.005937 0.229921
H49   H     H_    0.987943 0.137781 0.063181 0.207890
C69   C     C_3   0.968349 0.857035 0.490351 -0.415112
C70   C     C_3   0.980078 0.824003 0.334435 -0.770144
H50   H     H_    0.011090 0.759246 0.315306 0.248535
H51   H     H_    0.947439 0.773608 0.253228 0.274307
H52   H     H_    0.990520 0.916702 0.317726 0.241138
H53   H     H_    0.941716 0.934365 0.506523 0.216597
H54   H     H_    0.001404 0.905153 0.569192 0.195288
C71   C     C_2   0.565039 0.843983 0.386613 0.389295
H55   H     H_    0.575552 0.750020 0.392881 0.109280
O21   O     O_2   0.579480 0.878596 0.292461 -0.504399
C72   C     C_2   0.576322 0.157746 0.614952 0.330508
H56   H     H_    0.592081 0.129005 0.705246 0.089337
O22   O     O_2   0.594392 0.256141 0.602298 -0.567338

loop_
_geom_bond_atom_site_label_1
_geom_bond_atom_site_label_2
_ccdc_geom_bond_type
C33   N1    A    
C38   C40   A    
C67   H48   S    
C34   N2    A    
C27   C29   D    
C8    C26   A    
C14   C18   A    
C59   H31   S    
C32   N4    D    
C27   C49   S    
Cu1   O4    S    
C55   C56   S    
Cu2   O3    S    
Cu2   N3    S    
C51   H17   S    
C58   H27   S    
C69   H53   S    
C22   C66   S    
C36   N2    A    
C19   C21   A    
C1    O1    A    
C70   H50   S    
C57   H29   S    
C2    O2    A    
C9    C22   A    
Cu2   O6    S    
C3    C18   A    
C62   H33   S    
C21   C65   S    
C12   C42   A    
C38   C61   S    
C49   H15   S    
Cu1   Cu2   S    
C35   O12   S    
C5    C33   A    
C64   H40   S    
C69   H54   S    
C71   H55   S    
Cu2   O7    S    
Cu1   O8    S    
C72   O22   D    
C55   H24   S    
C24   O8    A    
C54   O16   D    
C1    C27   S    
C19   H5    S    
C23   O5    A    
C67   H49   S    
C24   O6    A    
C41   C43   A    
C20   H6    S    
C42   C44   A    
C48   H9    S    
C26   C69   S    
C41   H1    S    
C57   C58   S    
C70   H51   S    
C44   C46   A    
Cu2   O2    S    
C40   C59   S    
C51   O13   D    
C10   C21   A    
C58   H28   S    
C13   C19   A    
C35   N1    A    
C14   C20   A    
C4    C6    A    
H4    N3    S    
C34   O10   S    
C53   H19   S    
C5    C7    A    
C49   C50   S    
C69   C70   S    
C15   C26   A    
C66   O20   D    
C3    C5    A    
C43   C53   S    
C6    C34   A    
Cu1   O5    S    
C62   H35   S    
C12   C40   A    
C25   C67   S    
C61   H36   S    
C29   C30   S    
C3    C9    A    
C53   O15   D    
C37   C63   S    
C43   C45   A    
C60   O18   D    
C31   C32   S    
C39   C60   S    
C63   H42   S    
C59   O17   D    
H3    N4    S    
C11   C39   A    
C8    C57   S    
C72   H56   S    
C55   H25   S    
C68   H46   S    
C42   H2    S    
C4    C17   A    
C48   H8    S    
C20   C22   A    
C56   H22   S    
C64   H38   S    
C28   C47   S    
C37   C45   A    
C65   H43   S    
C47   H11   S    
C70   H52   S    
C36   O11   S    
C33   O9    S    
C64   H39   S    
C67   C68   S    
C16   C25   A    
C15   C17   A    
C31   C52   S    
C7    C55   S    
C52   O14   D    
C48   H7    S    
C65   O19   D    
C68   H47   S    
C1    O3    A    
C50   H14   S    
C6    C8    A    
C60   H32   S    
C66   H44   S    
C56   H23   S    
C58   H26   S    
C12   C24   S    
C50   H13   S    
C7    C25   A    
C13   C17   A    
C23   O7    A    
C28   C30   D    
C61   H37   S    
C47   C48   S    
C37   C39   A    
C61   C62   S    
Cu1   N4    S    
C57   H30   S    
C31   N3    D    
C30   C71   S    
C47   H10   S    
C32   C51   S    
C11   C23   S    
C10   C36   A    
C63   H41   S    
C11   C41   A    
C71   O21   D    
C54   H20   S    
C62   H34   S    
C38   C46   A    
C44   C54   S    
C68   H45   S    
Cu1   O1    S    
C50   H12   S    
C49   H16   S    
C52   H18   S    
C45   N1    S    
C16   C18   A    
C56   H21   S    
C13   C16   A    
C46   N2    S    
C9    C35   A    
C14   C15   A    
C29   C72   S    
C2    C28   S    
C4    C10   A    
C2    O4    A    
C63   C64   S    
