data_mof_unit_25144.cif
_audit_creation_date              2012-12-10T17:30:23-0500
_audit_creation_method            fapswitch 2.2
_symmetry_space_group_name_H-M    P1
_symmetry_Int_Tables_number       1
_space_group_crystal_system       triclinic
_cell_length_a                    12.104465
_cell_length_b                    12.921142
_cell_length_c                    14.919651
_cell_angle_alpha                 91.516338
_cell_angle_beta                  83.874638
_cell_angle_gamma                 92.677578
_cell_volume                      2317.08847478

loop_
_atom_site_label
_atom_site_type_symbol
_atom_type_description
_atom_site_fract_x
_atom_site_fract_y
_atom_site_fract_z
_atom_type_partial_charge
C1    C     C_R   0.521442 0.700167 0.498550 0.919263
C2    C     C_R   0.478556 0.299842 0.501653 0.924592
C3    C     C_R   0.408777 0.665402 0.965754 -0.179148
C4    C     C_R   0.591225 0.334581 0.034246 -0.177619
C5    C     C_R   0.465962 0.188762 0.503455 -0.168496
C6    C     C_R   0.534038 0.811289 0.497957 -0.143689
C7    C     C_R   0.651267 0.967285 0.488571 0.407199
C8    C     C_R   0.348793 0.032842 0.515132 0.445716
C9    C     C_R   0.639593 0.860175 0.489219 -0.277829
C10   C     C_R   0.360419 0.139896 0.513081 -0.245513
C11   C     C_R   0.438611 0.868050 0.506190 -0.140034
C12   C     C_R   0.561402 0.132040 0.496103 -0.143068
C13   C     C_R   0.446144 0.974897 0.506297 -0.038170
C14   C     C_R   0.553900 0.025214 0.497002 -0.018880
C15   C     C_R   0.965685 0.418256 0.405421 -0.262060
C16   C     C_R   0.034314 0.581798 0.594545 -0.279360
C17   C     C_R   0.849082 0.423659 0.413230 0.583555
C18   C     C_R   0.150904 0.576293 0.586796 0.586688
C19   C     C_R   0.853608 0.532551 0.543337 -0.088312
C20   C     C_R   0.146398 0.467529 0.456614 -0.078205
C21   C     C_R   0.971748 0.529046 0.534639 0.003213
C22   C     C_R   0.028256 0.471041 0.465306 0.003281
C23   C     C_R   0.498362 0.500271 0.673116 0.895427
C24   C     C_R   0.501638 0.499723 0.326884 0.898164
C25   C     C_R   0.548023 0.417996 0.179750 -0.160092
C26   C     C_R   0.451983 0.581991 0.820253 -0.163208
C27   C     C_R   0.504496 0.500993 0.231179 -0.048052
C28   C     C_R   0.495505 0.498994 0.768821 -0.047546
C29   C     C_R   0.458012 0.583143 0.192081 -0.244894
C30   C     C_R   0.541984 0.416839 0.807917 -0.246382
C31   C     C_R   0.456241 0.583694 0.099400 0.119919
C32   C     C_R   0.543757 0.416287 0.900599 0.120346
C33   C     C_R   0.501006 0.500274 0.046569 0.062387
C34   C     C_R   0.498994 0.499707 0.953432 0.062735
C35   C     C_R   0.547294 0.417168 0.086994 0.095940
C36   C     C_R   0.452709 0.582815 0.913007 0.095700
C37   C     C_R   0.410378 0.665757 0.058825 -0.182852
C38   C     C_R   0.589621 0.334224 0.941175 -0.184772
H1    H     H_    0.579856 0.353279 0.212032 0.197392
H2    H     H_    0.420157 0.646713 0.787977 0.197037
H3    H     H_    0.009137 0.375437 0.350228 0.215376
H4    H     H_    0.990858 0.624621 0.649733 0.210682
H5    H     H_    0.423648 0.646257 0.233994 0.155620
H6    H     H_    0.576345 0.353724 0.766003 0.155032
H7    H     H_    0.375929 0.729980 0.099007 0.165656
H8    H     H_    0.624068 0.270001 0.900992 0.163675
H9    H     H_    0.373158 0.729384 0.935047 0.164886
H10   H     H_    0.626845 0.270599 0.064953 0.164887
H11   H     H_    0.641800 0.172283 0.489398 0.250481
H12   H     H_    0.358194 0.827822 0.512185 0.248645
H13   H     H_    0.287132 0.185498 0.519365 0.226417
H14   H     H_    0.712825 0.814516 0.482504 0.203997
H15   H     H_    0.188936 0.422054 0.402697 0.162775
H16   H     H_    0.811072 0.578056 0.597235 0.157282
N1    N     N_R   0.207800 0.519350 0.516680 -0.168521
N2    N     N_R   0.792200 0.480650 0.483320 -0.166467
O1    O     O_R   0.421700 0.658830 0.504450 -0.584865
O2    O     O_R   0.578300 0.341170 0.495550 -0.583268
O3    O     O_R   0.609310 0.646410 0.493750 -0.637310
O4    O     O_R   0.390690 0.353590 0.506250 -0.635462
O5    O     O_R   0.406180 0.506230 0.637500 -0.535935
O6    O     O_R   0.593820 0.493770 0.362500 -0.535863
O7    O     O_R   0.593800 0.493820 0.626800 -0.645438
O8    O     O_R   0.406200 0.506180 0.373200 -0.644716
Zn1   Zn    Zn3+2 0.374730 0.508290 0.507150 1.035083
Zn2   Zn    Zn3+2 0.625270 0.491710 0.492850 1.032770
S1    S     S_3+6 0.788425 0.024373 0.476403 0.043874
O9    O     O_2   0.804362 0.087466 0.392459 -0.196555
O10   O     O_2   0.805351 0.094438 0.556322 -0.323562
O11   O     O_3   0.884240 0.933354 0.468039 -0.489781
H17   H     H_    0.885001 0.908353 0.530167 0.355210
S2    S     S_3+6 0.211693 0.975978 0.529893 0.040109
O12   O     O_2   0.191870 0.907672 0.449543 -0.267429
O13   O     O_2   0.199001 0.911720 0.613220 -0.269959
O14   O     O_3   0.116973 0.068022 0.541030 -0.511862
H18   H     H_    0.048159 0.033289 0.569991 0.414391
S3    S     S_3+6 0.210735 0.634673 0.680516 0.039504
O15   O     O_2   0.226339 0.551112 0.745590 -0.317835
O16   O     O_2   0.318731 0.692906 0.654977 -0.312664
O17   O     O_3   0.123443 0.719447 0.733953 -0.537769
H19   H     H_    0.158372 0.742178 0.788696 0.388911
S4    S     S_3+6 0.789215 0.365030 0.319617 0.041190
O18   O     O_2   0.681184 0.306877 0.345202 -0.314048
O19   O     O_2   0.773688 0.448419 0.254361 -0.319190
O20   O     O_3   0.876475 0.280080 0.266401 -0.526850
H20   H     H_    0.841709 0.257408 0.211565 0.388524

loop_
_geom_bond_atom_site_label_1
_geom_bond_atom_site_label_2
_ccdc_geom_bond_type
C19   N2    A    
C8    C13   A    
C27   C29   A    
C24   C27   S    
C6    C9    A    
C12   H11   S    
C15   C22   A    
S3    O15   D    
C16   C21   A    
C19   C21   A    
C1    O3    A    
O3    Zn2   S    
O17   H19   S    
C2    O4    A    
C20   N1    A    
C7    C9    A    
C17   S4    S    
O2    Zn2   S    
C7    C14   A    
C31   C33   A    
O11   H17   S    
C32   C38   A    
C23   O7    A    
O7    Zn2   S    
C24   O8    A    
C21   C22   A    
C29   H5    S    
C30   H6    S    
C9    H14   S    
S2    O14   S    
C10   H13   S    
N1    Zn1   S    
S3    O16   D    
C8    S2    S    
C38   H8    S    
O6    Zn2   S    
S1    O9    D    
C15   H3    S    
C5    C12   A    
S2    O13   D    
O1    Zn1   S    
C6    C11   A    
S2    O12   D    
O20   H20   S    
C1    C6    S    
S1    O10   D    
C32   C34   A    
O14   H18   S    
C1    O1    A    
C33   C34   A    
C16   C18   A    
C23   C28   S    
C17   N2    A    
C18   N1    A    
C25   C35   A    
C19   H16   S    
C26   C36   A    
C12   C14   A    
O4    Zn1   S    
S4    O19   D    
C2    C5    S    
C37   H7    S    
C16   H4    S    
C4    H10   S    
S3    O17   S    
C15   C17   A    
C24   O6    A    
C20   C22   A    
C20   H15   S    
C2    O2    A    
C25   C27   A    
S4    O20   S    
C26   C28   A    
S1    O11   S    
O8    Zn1   S    
C28   C30   A    
C5    C10   A    
C29   C31   A    
C11   H12   S    
C25   H1    S    
C30   C32   A    
C11   C13   A    
C26   H2    S    
C3    C36   A    
C18   S3    S    
N2    Zn2   S    
C3    H9    S    
C33   C35   A    
C34   C36   A    
O5    Zn1   S    
C4    C35   A    
C7    S1    S    
C31   C37   A    
C23   O5    A    
C3    C37   A    
C8    C10   A    
S4    O18   D    
C4    C38   A    
C13   C14   A    
