data_mof_unit_12086.cif
_audit_creation_date              2013-03-05T15:43:52-0500
_audit_creation_method            fapswitch 2.2
_symmetry_space_group_name_H-M    P1
_symmetry_Int_Tables_number       1
_space_group_crystal_system       triclinic
_cell_length_a                    13.452366
_cell_length_b                    13.53201
_cell_length_c                    27.49847
_cell_angle_alpha                 90.517124
_cell_angle_beta                  89.896215
_cell_angle_gamma                 59.830052
_cell_volume                      4327.37437283

loop_
_atom_site_label
_atom_site_type_symbol
_atom_site_description
_atom_site_fract_x
_atom_site_fract_y
_atom_site_fract_z
_atom_type_partial_charge
O1    O     O_R   0.301710 0.195650 0.554160 -0.479594
O2    O     O_R   0.522390 0.158990 0.550460 -0.481514
C1    C     C_R   0.619833 0.100776 0.570527 0.558006
O3    O     O_R   0.694390 0.003530 0.554040 -0.495868
O4    O     O_R   0.657700 0.819660 0.549320 -0.490868
C2    C     C_R   0.599666 0.779804 0.568825 0.547442
O5    O     O_R   0.501930 0.803280 0.552920 -0.501813
O6    O     O_R   0.318170 0.023580 0.549580 -0.496848
C3    C     C_R   0.278404 0.121510 0.569854 0.550935
O7    O     O_R   0.303010 0.193990 0.446760 -0.522794
O8    O     O_R   0.523600 0.157450 0.450900 -0.508334
C4    C     C_R   0.599815 0.071379 0.425499 0.547962
O9    O     O_R   0.695690 0.001860 0.446640 -0.480763
O10   O     O_R   0.658900 0.818120 0.449760 -0.518486
C5    C     C_R   0.602940 0.774393 0.430817 0.534864
O11   O     O_R   0.503220 0.801620 0.445520 -0.514890
O12   O     O_R   0.319370 0.022040 0.450020 -0.498512
C6    C     C_R   0.283234 0.118767 0.429635 0.537969
Cr1   Cr    Cr6+3 0.417550 0.169090 0.500530 1.049416
Cr2   Cr    Cr6+3 0.669180 0.913420 0.499920 1.050344
Cr3   Cr    Cr6+3 0.413260 0.917540 0.499520 1.039432
O13   O     O_3   0.499990 0.000010 0.499990 -0.279812
C7    C     C_3   0.776614 0.618853 0.738153 -0.070200
C8    C     C_3   0.736020 0.714702 0.776961 0.210414
H1    H     H_    0.863699 0.570262 0.721503 0.158643
H2    H     H_    0.585871 0.882146 0.741557 0.118784
C9    C     C_1   0.695784 0.612079 0.901147 0.059273
C10   C     C_1   0.629970 0.735566 0.616881 0.006164
C11   C     C_3   0.716041 0.568391 0.768043 0.221034
C12   C     C_3   0.678577 0.662360 0.807069 0.022244
C13   C     C_3   0.602716 0.638902 0.740533 -0.103386
C14   C     C_3   0.661932 0.692168 0.711495 -0.011252
C15   C     C_3   0.564726 0.735586 0.779571 -0.185599
C16   C     C_3   0.623142 0.789911 0.749523 -0.123700
C17   C     C_1   0.686803 0.640247 0.859300 0.055107
C18   C     C_1   0.647899 0.711303 0.659154 -0.022207
H3    H     H_    0.478036 0.783747 0.796595 0.130164
H4    H     H_    0.549041 0.605313 0.725228 0.137813
C19   C     C_3   0.077072 0.175474 0.738553 -0.112712
C20   C     C_3   0.146970 0.077903 0.775008 -0.117633
H5    H     H_    0.125215 0.012852 0.786950 0.138695
H6    H     H_    0.998896 0.188839 0.719342 0.168891
H7    H     H_    0.332009 0.965913 0.739008 0.121128
C21   C     C_1   0.100857 0.199487 0.902706 0.022475
C22   C     C_1   0.234098 0.135794 0.618355 0.026927
C23   C     C_3   0.086349 0.261991 0.773080 -0.045923
C24   C     C_3   0.157006 0.164025 0.808678 0.017929
C25   C     C_3   0.199540 0.233964 0.747939 0.234571
C26   C     C_3   0.190046 0.149982 0.713504 0.022930
C27   C     C_3   0.270520 0.138341 0.784071 -0.110656
C28   C     C_3   0.260638 0.052262 0.749304 -0.151755
C29   C     C_1   0.131673 0.178577 0.860877 -0.013465
C30   C     C_1   0.209774 0.143109 0.660891 0.003682
H8    H     H_    0.016163 0.349154 0.783096 0.182672
C31   C     C_3   0.638612 0.266088 0.740499 -0.060020
C32   C     C_3   0.553318 0.265584 0.778343 -0.079198
H9    H     H_    0.474079 0.341908 0.792152 0.168338
H10   H     H_    0.628368 0.343081 0.721926 0.168320
H11   H     H_    0.482874 0.152506 0.742358 0.145416
C33   C     C_1   0.688393 0.206921 0.903740 0.033036
C34   C     C_1   0.632795 0.130642 0.619383 0.010346
C35   C     C_3   0.740897 0.183240 0.772543 -0.066721
C36   C     C_3   0.655522 0.182553 0.809655 0.030311
C37   C     C_3   0.745609 0.079544 0.746185 -0.093542
C38   C     C_3   0.643686 0.162534 0.714805 0.028462
C39   C     C_3   0.660375 0.078953 0.783974 -0.094980
C40   C     C_3   0.558072 0.161663 0.751760 -0.099423
C41   C     C_1   0.669194 0.194695 0.861939 -0.007073
C42   C     C_1   0.638757 0.148155 0.662071 -0.023639
H12   H     H_    0.668182 0.002861 0.802471 0.171950
H13   H     H_    0.825035 0.003537 0.732319 0.168378
H14   H     H_    0.817222 0.190592 0.781797 0.181863
C43   C     C_R   0.740260 0.696709 0.361186 -0.140069
C44   C     C_R   0.753573 0.676804 0.311018 -0.002314
C45   C     C_R   0.767854 0.658192 0.208771 -0.014674
C46   C     C_R   0.855523 0.660422 0.235946 -0.091499
C47   C     C_R   0.848376 0.669486 0.286557 -0.135861
C48   C     C_R   0.775354 0.643719 0.157776 0.192760
H15   H     H_    0.802624 0.708988 0.381242 0.139053
H16   H     H_    0.929331 0.656910 0.218505 0.204047
H17   H     H_    0.915867 0.673211 0.306484 0.149739
C49   C     C_R   0.686161 0.637919 0.132795 -0.007973
C50   C     C_R   0.560213 0.695661 0.358552 -0.127397
C51   C     C_R   0.568969 0.682370 0.308523 0.002490
C52   C     C_R   0.665264 0.674350 0.284353 0.059099
C53   C     C_R   0.478258 0.686265 0.282174 -0.135699
C54   C     C_R   0.481587 0.684656 0.231745 -0.124221
C55   C     C_R   0.577607 0.674870 0.207332 -0.012654
C56   C     C_R   0.670710 0.668456 0.233443 0.013868
C57   C     C_R   0.584106 0.664798 0.157239 -0.166176
C58   C     C_R   0.639965 0.713314 0.384328 -0.008129
H18   H     H_    0.513673 0.665193 0.137908 0.158691
H19   H     H_    0.410193 0.688605 0.211859 0.160835
H20   H     H_    0.403582 0.693399 0.300552 0.163455
H21   H     H_    0.483682 0.705657 0.376423 0.146846
C59   C     C_R   0.205563 0.066206 0.357853 -0.105276
C60   C     C_R   0.183070 0.073396 0.307702 -0.040450
C61   C     C_R   0.139198 0.093219 0.207085 -0.045441
C62   C     C_R   0.120128 0.016537 0.234763 0.199750
C63   C     C_R   0.141026 0.007456 0.285200 0.204696
C64   C     C_R   0.104419 0.116146 0.158643 -0.101653
H22   H     H_    0.061047 0.075485 0.142066 0.197433
H23   H     H_    0.195126 0.006819 0.380357 0.179612
C65   C     C_R   0.113373 0.200672 0.132938 -0.012721
C66   C     C_R   0.264614 0.208057 0.350699 -0.123886
C67   C     C_R   0.248003 0.213034 0.301054 0.021298
C68   C     C_R   0.206007 0.146644 0.279261 0.016595
C69   C     C_R   0.273273 0.283680 0.273039 -0.121531
C70   C     C_R   0.251448 0.293622 0.223525 -0.107974
C71   C     C_R   0.204397 0.232846 0.201670 0.029609
C72   C     C_R   0.184893 0.155991 0.229212 0.015413
C73   C     C_R   0.169442 0.253704 0.153499 -0.098308
C74   C     C_R   0.244470 0.134509 0.379323 -0.009620
H24   H     H_    0.178570 0.317044 0.133169 0.167840
H25   H     H_    0.267928 0.351520 0.202643 0.135593
H26   H     H_    0.307720 0.333047 0.289628 0.120436
H27   H     H_    0.298610 0.258512 0.366655 0.139547
C75   C     C_R   0.594016 0.205622 0.363341 -0.111500
C76   C     C_R   0.599137 0.232427 0.314919 0.013202
C77   C     C_R   0.619567 0.281149 0.217886 0.003839
C78   C     C_R   0.594841 0.363286 0.254457 -0.113337
C79   C     C_R   0.585024 0.338997 0.302745 -0.121634
C80   C     C_R   0.637476 0.302467 0.170290 -0.169406
H28   H     H_    0.632294 0.383122 0.161770 0.132860
H29   H     H_    0.568071 0.402868 0.330600 0.119052
C81   C     C_R   0.673367 0.216668 0.134604 -0.002279
C82   C     C_R   0.627117 0.018374 0.338803 -0.130312
C83   C     C_R   0.632057 0.044104 0.290122 0.029944
C84   C     C_R   0.620229 0.150553 0.278130 0.074787
C85   C     C_R   0.649074 0.965190 0.253285 -0.122594
C86   C     C_R   0.663272 0.987250 0.205146 -0.079044
C87   C     C_R   0.658856 0.090142 0.192849 0.019307
C88   C     C_R   0.631743 0.174340 0.229480 0.035858
C89   C     C_R   0.682205 0.110748 0.145164 0.201958
C90   C     C_R   0.609900 0.098122 0.375283 0.011679
H30   H     H_    0.678160 0.922992 0.177879 0.175447
H31   H     H_    0.652680 0.885823 0.261822 0.129101
H32   H     H_    0.635605 0.937012 0.348417 0.108071
O14   O     O_R   0.818720 0.150820 0.967160 -0.477437
O15   O     O_R   0.006410 0.181720 0.970200 -0.497539
C91   C     C_R   0.049862 0.236020 0.949996 0.545306
O16   O     O_R   0.027890 0.334070 0.964920 -0.490824
O17   O     O_R   0.809600 0.521790 0.967960 -0.474648
C92   C     C_R   0.711108 0.564034 0.948516 0.558156
O18   O     O_R   0.635520 0.542770 0.964420 -0.505534
O19   O     O_R   0.665950 0.325030 0.970100 -0.491669
C93   C     C_R   0.721608 0.225469 0.951042 0.573294
O20   O     O_R   0.816620 0.158530 0.074540 -0.451638
O21   O     O_R   0.004460 0.188870 0.069750 -0.513612
C94   C     C_R   0.048916 0.244095 0.088014 0.537535
O22   O     O_R   0.025800 0.341780 0.072300 -0.470693
O23   O     O_R   0.807650 0.528950 0.067500 -0.435134
C95   C     C_R   0.707542 0.575980 0.086282 0.560540
O24   O     O_R   0.633420 0.550490 0.071810 -0.532469
O25   O     O_R   0.664000 0.332180 0.069640 -0.511172
C96   C     C_R   0.717693 0.234503 0.089136 0.586843
Cr4   Cr    Cr6+3 0.909170 0.177380 0.020380 1.104494
Cr5   Cr    Cr6+3 0.912710 0.429210 0.018220 1.141859
Cr6   Cr    Cr6+3 0.657170 0.432570 0.019030 1.060594
O26   O     O_3   0.826350 0.346390 0.019210 -0.284581
N1    N     N_R   0.809109 0.756727 0.795912 0.077500
O27   O     O_R   0.858217 0.793398 0.766091 -0.345208
O28   O     O_R   0.827682 0.755689 0.842341 -0.314455
H33   H     H_    0.349451 0.124231 0.802918 0.118490
N2    N     N_R   0.228014 0.320768 0.734401 0.070772
O29   O     O_R   0.232234 0.387301 0.767732 -0.327737
O30   O     O_R   0.251449 0.331016 0.689474 -0.327582
N3    N     N_R   0.874679 0.629417 0.131885 0.088842
O31   O     O_R   0.976288 0.544347 0.141792 -0.347170
O32   O     O_R   0.862080 0.693420 0.094721 -0.249996
N4    N     N_R   0.074652 0.951456 0.212336 0.098832
O33   O     O_R   0.131331 0.879181 0.177377 -0.316834
O34   O     O_R   0.979348 0.960327 0.228318 -0.261526
N5    N     N_R   0.118131 0.932014 0.313276 0.089532
O35   O     O_R   0.040295 0.973164 0.347499 -0.319565
O36   O     O_R   0.164635 0.824720 0.300896 -0.311495
H34   H     H_    0.578721 0.267809 0.391802 0.132418
H35   H     H_    0.586208 0.445105 0.245833 0.129729
N6    N     N_R   0.719241 0.023672 0.108104 0.075286
O37   O     O_R   0.813245 0.926207 0.113899 -0.242505
O38   O     O_R   0.667890 0.046798 0.066233 -0.319538
N7    N     N_R   0.767551 0.446199 0.776016 0.056559
O39   O     O_R   0.802735 0.376679 0.738828 -0.417472
O40   O     O_R   0.782876 0.405515 0.819749 -0.377876

loop_
_geom_bond_atom_site_label_1
_geom_bond_atom_site_label_2
_geom_bond_distance
_ccdc_geom_bond_type
C20   C24   1.540374 S    
N4    O33   1.301117 A    
C3    C22   1.431089 S    
N2    O29   1.300209 A    
C43   C44   1.397025 A    
C8    N1    1.456088 S    
C31   C32   1.550245 S    
C83   C84   1.409757 A    
C73   H24   1.084652 S    
N1    O27   1.299999 A    
C80   H28   1.085895 S    
O4    Cr2   1.925154 S    
C81   C96   1.457553 S    
C32   H9    1.109964 S    
N4    O34   1.301355 A    
O8    Cr1   1.919845 S    
C64   H22   1.081711 S    
C12   C17   1.462763 S    
C14   C18   1.460422 S    
C66   C74   1.402828 A    
C45   C56   1.414215 A    
C51   C53   1.398582 A    
Cr6   O26   1.967749 S    
O4    C2    1.270807 A    
O18   Cr6   2.041845 S    
C38   C42   1.467400 S    
C62   N4    1.436401 S    
C67   C68   1.409612 A    
N7    O40   1.300218 A    
C5    O11   1.263856 A    
C31   C35   1.548664 S    
C69   C70   1.386796 A    
C77   C88   1.409975 A    
C37   H13   1.109840 S    
C65   C94   1.458801 S    
C75   C76   1.393850 A    
C35   C37   1.546098 S    
C53   H20   1.083359 S    
C31   C38   1.534049 S    
N5    O35   1.301161 A    
C49   C95   1.469060 S    
H2    C16   1.110637 S    
C2    C10   1.428900 S    
C25   N2    1.457631 S    
C50   C51   1.382942 A    
O14   Cr4   2.046447 S    
C21   C91   1.431916 S    
C38   C40   1.539110 S    
C4    C90   1.453907 S    
C7    C8    1.542837 S    
C13   C15   1.557531 S    
C82   H32   1.083557 S    
C89   N6    1.435826 S    
C19   H6    1.109203 S    
O9    Cr2   2.040776 S    
C77   C80   1.389181 A    
H11   C40   1.109902 S    
C55   C56   1.409547 A    
C21   C29   1.203915 T    
N3    O32   1.300874 A    
C39   C40   1.550939 S    
C36   C39   1.535673 S    
C22   C30   1.203746 T    
N2    O30   1.300191 A    
Cr3   O13   1.978725 S    
Cr5   O26   1.978768 S    
C66   H27   1.084896 S    
O16   Cr5   2.039392 S    
C6    C74   1.458640 S    
N1    O28   1.300232 A    
O12   C6    1.280024 A    
C24   C27   1.539166 S    
C71   C73   1.389596 A    
C46   C47   1.394913 A    
C1    C34   1.435448 S    
C23   C25   1.533405 S    
O1    Cr1   2.037538 S    
C11   N7    1.455242 S    
O25   Cr6   1.923500 S    
O22   Cr5   2.038752 S    
O10   Cr2   1.931984 S    
Cr1   O13   1.978366 S    
O1    C3    1.270655 A    
O15   C91   1.275997 A    
C43   C58   1.401910 A    
C86   H30   1.082140 S    
C70   C71   1.397807 A    
C19   C20   1.553000 S    
C65   C73   1.393512 A    
C52   C56   1.401168 A    
C53   C54   1.386981 A    
O6    C3    1.275200 A    
C80   C81   1.399413 A    
O19   Cr6   1.932188 S    
C26   C28   1.544107 S    
O5    Cr3   2.040408 S    
C27   H33   1.110180 S    
C44   C47   1.399090 A    
C8    C16   1.541272 S    
C1    O3    1.266552 A    
C71   C72   1.418388 A    
C83   C85   1.397401 A    
C14   C16   1.547425 S    
C24   C29   1.463201 S    
C45   C46   1.410238 A    
C11   C12   1.533592 S    
O15   Cr4   1.921141 S    
C48   C49   1.419281 A    
C57   H18   1.084956 S    
C62   C63   1.409780 A    
C47   H17   1.083703 S    
O7    Cr1   2.041897 S    
O14   C93   1.267774 A    
C59   C60   1.406118 A    
C23   H8    1.110120 S    
C35   C36   1.538595 S    
C9    C92   1.429494 S    
C43   H15   1.084313 S    
C32   C36   1.537251 S    
C35   H14   1.109970 S    
C27   C28   1.557075 S    
C50   H21   1.084759 S    
C51   C52   1.409208 A    
N7    O39   1.299270 A    
C81   C89   1.410386 A    
C78   C79   1.392679 A    
C78   H35   1.082208 S    
O23   Cr5   1.923063 S    
C84   C88   1.405139 A    
C25   C26   1.526888 S    
C33   C93   1.436479 S    
C55   C57   1.381268 A    
Cr4   O26   1.978183 S    
C19   C23   1.553980 S    
C63   N5    1.436152 S    
C59   C74   1.397975 A    
C59   H23   1.081919 S    
C82   C83   1.396070 A    
C32   C40   1.551406 S    
C61   C64   1.397643 A    
C7    C11   1.540400 S    
C60   C63   1.413347 A    
C77   C78   1.401542 A    
O17   Cr5   1.922278 S    
C15   H3    1.110165 S    
O19   C93   1.273685 A    
C76   C79   1.400546 A    
C34   C42   1.206224 T    
C23   C24   1.542514 S    
N3    O31   1.301223 A    
C61   C72   1.409404 A    
C12   C15   1.546489 S    
C19   C26   1.538864 S    
O2    Cr1   1.926016 S    
C94   O22   1.276089 A    
C68   C72   1.399737 A    
C13   C14   1.541716 S    
C46   H16   1.080991 S    
Cr2   O13   1.967879 S    
C92   O18   1.266006 A    
O6    Cr3   1.924397 S    
O8    C4    1.295405 A    
O11   Cr3   2.042914 S    
C2    O5    1.267140 A    
O3    Cr2   2.049728 S    
C64   C65   1.405422 A    
C20   C28   1.554515 S    
C50   C58   1.402763 A    
C66   C67   1.380511 A    
C36   C41   1.467982 S    
C48   N3    1.436597 S    
C49   C57   1.399729 A    
C13   H4    1.110231 S    
C33   C41   1.206616 T    
C9    C17   1.202591 T    
C7    C14   1.542888 S    
C69   H26   1.084213 S    
C79   H29   1.083977 S    
O2    C1    1.271177 A    
O24   Cr6   2.049113 S    
C11   C13   1.536844 S    
O21   C94   1.269590 A    
C37   C38   1.536172 S    
H7    C28   1.110283 S    
C39   H12   1.109485 S    
C67   C69   1.400683 A    
O7    C6    1.262019 A    
C26   C30   1.464104 S    
C54   H19   1.084036 S    
C25   C27   1.535591 S    
C76   C84   1.412148 A    
N5    O36   1.300999 A    
C15   C16   1.558813 S    
C87   C88   1.416367 A    
O20   Cr4   2.037781 S    
C7    H1    1.110295 S    
C44   C52   1.411530 A    
C86   C87   1.407794 A    
C82   C90   1.397450 A    
C45   C48   1.410548 A    
C8    C12   1.530576 S    
C70   H25   1.083956 S    
C5    C58   1.459553 S    
N6    O37   1.300828 A    
C60   C68   1.417710 A    
C75   H34   1.084658 S    
C4    O9    1.295934 A    
C10   C18   1.202317 T    
C54   C55   1.400010 A    
C87   C89   1.410325 A    
C61   C62   1.415251 A    
C31   H10   1.109442 S    
C85   C86   1.393370 A    
O25   C96   1.269160 A    
O10   C5    1.277400 A    
C20   H5    1.110035 S    
O23   C95   1.271007 A    
O20   C96   1.266680 A    
C95   O24   1.271316 A    
C91   O16   1.269547 A    
C85   H31   1.078492 S    
O21   Cr4   1.926989 S    
C75   C90   1.402158 A    
O17   C92   1.270798 A    
C37   C39   1.549050 S    
N6    O38   1.301117 A    
O12   Cr3   1.921844 S    
