data_mof_unit_55812.cif
_audit_creation_date              2012-12-10T17:04:51-0500
_audit_creation_method            fapswitch 2.2
_symmetry_space_group_name_H-M    P1
_symmetry_Int_Tables_number       1
_space_group_crystal_system       triclinic
_cell_length_a                    13.836067
_cell_length_b                    11.053054
_cell_length_c                    9.929875
_cell_angle_alpha                 111.455732
_cell_angle_beta                  92.5548
_cell_angle_gamma                 93.384829
_cell_volume                      1407.29791554

loop_
_atom_site_label
_atom_site_type_symbol
_atom_type_description
_atom_site_fract_x
_atom_site_fract_y
_atom_site_fract_z
_atom_type_partial_charge
C1    C     C_R   0.489994 0.254672 0.441448 0.717988
C2    C     C_R   0.509790 0.745344 0.558634 0.737174
C3    C     C_R   0.319814 0.503432 0.524193 0.783052
C4    C     C_R   0.680184 0.496547 0.475794 0.794399
C5    C     C_1   0.782086 0.494192 0.459798 -0.124460
C6    C     C_1   0.217919 0.505945 0.540257 -0.117469
C7    C     C_2   0.971346 0.491466 0.440964 -0.165643
C8    C     C_2   0.028685 0.508930 0.559301 -0.159777
C9    C     C_2   0.504087 0.524742 0.087662 0.419988
C10   C     C_2   0.476144 0.535636 0.942954 0.382389
C11   C     C_1   0.131811 0.507593 0.550721 0.036044
C12   C     C_1   0.868210 0.492688 0.449464 0.033073
C13   C     C_2   0.472792 0.114867 0.410263 0.229073
C14   C     C_2   0.526670 0.885211 0.589942 0.239188
C15   C     C_2   0.516958 0.064755 0.500009 0.344674
C16   C     C_2   0.482605 0.935066 0.499841 0.357953
Cu1   Cu    Cu3+1 0.516510 0.521490 0.642840 1.077702
Cu2   Cu    Cu3+1 0.483490 0.478510 0.357160 1.077336
H1    H     H_    0.998517 0.524208 0.662924 0.177800
H2    H     H_    0.001523 0.476175 0.337346 0.174419
N1    N     N_2   0.458660 0.446210 0.142550 -0.070374
N2    N     N_2   0.541340 0.553790 0.857450 -0.071480
O1    O     O_R   0.508810 0.332170 0.576290 -0.525742
O2    O     O_R   0.491190 0.667830 0.423710 -0.523932
O3    O     O_R   0.480920 0.295870 0.335040 -0.545422
O4    O     O_R   0.519080 0.704130 0.664960 -0.558724
O5    O     O_R   0.378070 0.520740 0.637680 -0.541896
O6    O     O_R   0.621930 0.479260 0.362320 -0.543841
O7    O     O_R   0.350180 0.484440 0.396440 -0.551983
O8    O     O_R   0.649820 0.515560 0.603560 -0.537293
Br1   Br    Br    0.662092 0.485551 0.876893 -0.346340
Br2   Br    Br    0.365812 0.313028 0.026353 -0.383218
O9    O     O_3   0.409299 0.860646 0.397720 -0.524170
C17   C     C_3   0.321341 0.868902 0.466244 -0.228485
H3    H     H_    0.261434 0.820915 0.381965 0.202417
H4    H     H_    0.305045 0.971981 0.523579 0.142564
H5    H     H_    0.322233 0.816842 0.543162 0.129981
O10   O     O_3   0.590663 0.138882 0.601508 -0.523274
C18   C     C_3   0.678539 0.128482 0.532544 -0.209267
H6    H     H_    0.694406 0.024888 0.477591 0.146147
H7    H     H_    0.738612 0.177465 0.616204 0.204253
H8    H     H_    0.677805 0.178369 0.453518 0.126076
O11   O     O_3   0.584816 0.965862 0.711569 -0.525192
C19   C     C_3   0.675453 0.914941 0.718594 -0.198384
H9    H     H_    0.703659 0.867089 0.609788 0.108222
H10   H     H_    0.671069 0.846257 0.776730 0.193001
H11   H     H_    0.729156 0.996810 0.782183 0.193053
O12   O     O_3   0.414260 0.034641 0.288944 -0.519189
C20   C     C_3   0.322940 0.084701 0.284990 -0.179505
H12   H     H_    0.326041 0.156445 0.230837 0.205867
H13   H     H_    0.294998 0.128860 0.394569 0.091094
H14   H     H_    0.269739 0.003035 0.219268 0.197758
Br3   Br    Br    0.347290 0.588963 0.933681 -0.409795
Br4   Br    Br    0.605395 0.656422 0.199556 -0.437831

loop_
_geom_bond_atom_site_label_1
_geom_bond_atom_site_label_2
_ccdc_geom_bond_type
C13   O12   S    
O11   C19   S    
C20   H12   S    
C15   O10   S    
C16   O9    S    
C17   H5    S    
C9    C10   S    
Cu1   N2    S    
C19   H11   S    
C3    C6    S    
C20   H14   S    
C3    O5    A    
O9    C17   S    
C7    C8    D    
C2    O4    A    
Cu2   O7    S    
C10   N2    D    
C1    O3    A    
Cu1   O8    S    
C9    N1    D    
Cu1   O1    S    
Cu2   O3    S    
C8    C11   S    
Cu2   O2    S    
Cu1   O4    S    
O12   C20   S    
C4    O6    A    
C19   H10   S    
C1    O1    A    
C18   H8    S    
C17   H4    S    
C13   C15   D    
C2    O2    A    
O10   C18   S    
C2    C14   S    
N1    Br2   S    
C14   C16   D    
C7    C12   S    
C8    H1    S    
C1    C13   S    
N2    Br1   S    
C15   C16   S    
Cu2   N1    S    
C6    C11   T    
Cu2   O6    S    
C19   H9    S    
C18   H7    S    
C5    C12   T    
Cu1   Cu2   S    
C17   H3    S    
C18   H6    S    
C3    O7    A    
C10   Br3   S    
C4    C5    S    
C9    Br4   S    
C7    H2    S    
C4    O8    A    
C14   O11   S    
C20   H13   S    
Cu1   O5    S    
