data_mof_unit_34998.cif
_audit_creation_date              2012-12-11T16:48:30-0500
_audit_creation_method            fapswitch 2.2
_symmetry_space_group_name_H-M    P1
_symmetry_Int_Tables_number       1
_space_group_crystal_system       triclinic
_cell_length_a                    17.31148
_cell_length_b                    24.480118
_cell_length_c                    14.95788
_cell_angle_alpha                 90.471082
_cell_angle_beta                  125.672627
_cell_angle_gamma                 89.237195
_cell_volume                      5149.0713372

loop_
_atom_site_label
_atom_site_type_symbol
_atom_type_description
_atom_site_fract_x
_atom_site_fract_y
_atom_site_fract_z
_atom_type_partial_charge
C1    C     C_R   0.353454 0.348725 0.907852 -0.149825
C2    C     C_R   0.543159 0.496796 0.716913 0.068865
C3    C     C_R   0.056703 0.847052 0.909085 -0.139170
C4    C     C_R   0.380662 0.317552 0.997636 0.082805
C5    C     C_R   0.616039 0.315518 0.999920 0.072118
C6    C     C_R   0.880471 0.817627 0.997623 0.082484
C7    C     C_R   0.117841 0.815672 0.001607 0.089492
C8    C     C_3   0.297118 0.681128 0.774862 -0.318025
C9    C     C_3   0.664381 0.671005 0.232982 -0.264402
C10   C     C_3   0.798893 0.180754 0.775267 -0.320553
C11   C     C_3   0.165103 0.170986 0.233186 -0.265077
C12   C     C_R   0.061444 0.998032 0.364990 0.076401
C13   C     C_R   0.043134 0.996793 0.716926 0.068805
C14   C     C_R   0.188670 0.497938 0.643352 0.104894
C15   C     C_R   0.823706 0.496714 0.270521 0.132309
C16   C     C_R   0.688983 0.997867 0.642909 0.103798
C17   C     C_R   0.323701 0.996603 0.270465 0.132527
C18   C     C_2   0.978127 0.451715 0.365200 -0.111718
C19   C     C_2   0.075774 0.455553 0.464381 -0.117596
C20   C     C_2   0.478063 0.951506 0.365087 -0.111991
C21   C     C_R   0.646675 0.347526 0.090664 -0.150125
C22   C     C_2   0.575822 0.955313 0.464124 -0.115979
C23   C     C_2   0.924707 0.496691 0.318156 -0.191367
C24   C     C_2   0.102193 0.498410 0.532645 -0.190138
C25   C     C_2   0.424683 0.996497 0.317967 -0.192719
C26   C     C_2   0.602613 0.998333 0.532085 -0.190134
C27   C     C_R   0.266953 0.691219 0.106351 0.170190
C28   C     C_R   0.712475 0.706068 0.894519 0.162216
C29   C     C_R   0.768274 0.192645 0.101744 0.140504
C30   C     C_R   0.212999 0.205783 0.894532 0.162168
C31   C     C_R   0.241409 0.668165 0.006658 0.051882
C32   C     C_R   0.853371 0.848757 0.907837 -0.150240
C33   C     C_R   0.733851 0.688416 0.995154 0.060459
C34   C     C_R   0.739525 0.168117 0.002388 0.059474
C35   C     C_R   0.234392 0.188087 0.995156 0.060457
C36   C     C_R   0.150600 0.680672 0.911139 -0.154263
C37   C     C_R   0.826724 0.695469 0.090356 -0.165912
C38   C     C_R   0.651885 0.183230 0.905314 -0.140929
C39   C     C_R   0.327262 0.195200 0.090357 -0.163916
C40   C     C_R   0.602891 0.228738 0.905231 -0.223632
C41   C     C_R   0.386409 0.232464 0.088470 -0.228028
C42   C     C_R   0.100665 0.726179 0.910960 -0.229369
C43   C     C_R   0.145912 0.847687 0.091331 -0.163444
C44   C     C_R   0.885951 0.732646 0.088463 -0.222453
C45   C     C_R   0.640162 0.258262 0.002917 0.046996
C46   C     C_R   0.351068 0.262092 0.991574 0.037559
C47   C     C_R   0.141370 0.757953 0.006947 0.034948
C48   C     C_R   0.850700 0.762230 0.991552 0.037083
C49   C     C_R   0.400562 0.622329 0.091500 -0.273406
C50   C     C_R   0.581472 0.638910 0.908042 -0.271914
C51   C     C_R   0.900311 0.123412 0.090842 -0.257671
C52   C     C_R   0.081797 0.138712 0.908062 -0.271924
C53   C     C_R   0.718677 0.237531 0.102004 0.133092
C54   C     C_R   0.312599 0.639219 0.000871 -0.067088
C55   C     C_R   0.270623 0.242736 0.892389 0.145967
C56   C     C_R   0.217237 0.735507 0.106480 0.149868
C57   C     C_R   0.770190 0.742933 0.892360 0.144853
C58   C     C_3   0.717230 0.214494 0.193204 -0.509205
C59   C     C_3   0.186547 0.272194 0.795833 -0.512107
C60   C     C_3   0.305498 0.761461 0.202024 -0.523505
C61   C     C_3   0.686173 0.772455 0.795847 -0.510892
C62   C     C_3   0.360017 0.713087 0.201807 -0.514873
C63   C     C_3   0.623543 0.731317 0.798069 -0.517703
C64   C     C_3   0.771100 0.165774 0.192985 -0.476652
C65   C     C_R   0.662722 0.660772 0.998680 -0.039033
C66   C     C_3   0.124019 0.230972 0.798036 -0.518086
C67   C     C_R   0.593286 0.445164 0.615361 0.161705
C68   C     C_R   0.597993 0.445636 0.526616 0.149854
C69   C     C_R   0.093023 0.945196 0.615165 0.161302
C70   C     C_R   0.097436 0.945717 0.526225 0.149968
C71   C     C_R   0.588857 0.494378 0.660451 0.037175
C72   C     C_R   0.598124 0.495305 0.480873 0.034841
C73   C     C_R   0.088747 0.994391 0.660404 0.037299
C74   C     C_R   0.097382 0.995414 0.480440 0.035392
C75   C     C_R   0.615257 0.542566 0.634374 -0.202206
C76   C     C_R   0.811164 0.138488 0.998890 -0.083914
C77   C     C_R   0.619428 0.543104 0.543778 -0.201125
C78   C     C_R   0.115035 0.042602 0.634257 -0.202215
C79   C     C_R   0.118852 0.043193 0.543422 -0.201651
C80   C     C_3   0.534217 0.397225 0.474989 -0.508238
C81   C     C_3   0.528872 0.396800 0.571922 -0.517704
C82   C     C_3   0.033623 0.897319 0.474660 -0.508414
C83   C     C_3   0.028565 0.896847 0.571793 -0.517184
C84   C     C_R   0.547370 0.453163 0.301260 -0.140844
C85   C     C_R   0.518293 0.452232 0.750644 -0.147640
C86   C     C_R   0.047047 0.953210 0.301121 -0.141270
C87   C     C_R   0.163231 0.160442 0.998698 -0.039189
C88   C     C_R   0.018332 0.952225 0.750712 -0.147547
C89   C     C_R   0.239426 0.543919 0.700285 -0.105231
C90   C     C_R   0.769213 0.543192 0.248392 -0.190255
C91   C     C_R   0.739668 0.043846 0.699895 -0.104230
C92   C     C_R   0.269271 0.043120 0.248415 -0.190440
C93   C     C_R   0.547725 0.544093 0.303794 -0.140735
C94   C     C_R   0.512037 0.543439 0.741168 -0.113239
C95   C     C_R   0.046909 0.044202 0.303341 -0.136722
C96   C     C_R   0.011924 0.043431 0.741057 -0.112983
C97   C     C_R   0.240802 0.452790 0.704289 -0.116277
C98   C     C_R   0.562227 0.497932 0.365403 0.078226
C99   C     C_R   0.766590 0.452063 0.245818 -0.104134
C100  C     C_R   0.740969 0.952757 0.704102 -0.115996
C101  C     C_R   0.266528 0.951992 0.245726 -0.104354
C102  C     C_R   0.312093 0.628573 0.908844 0.610288
C103  C     C_R   0.670707 0.642008 0.090632 0.561278
C104  C     C_R   0.811535 0.127804 0.907654 0.611328
C105  C     C_R   0.171027 0.141831 0.090637 0.561404
C106  C     C_R   0.441897 0.348272 0.091026 -0.119731
C107  C     C_R   0.555336 0.347171 0.908200 -0.137386
C108  C     C_R   0.941762 0.848322 0.091030 -0.120573
H1    H     H_    0.319432 0.335106 0.824045 0.099122
H2    H     H_    0.850521 0.676691 0.167780 0.166466
H3    H     H_    0.624448 0.162837 0.828067 0.179248
H4    H     H_    0.351098 0.176401 0.167778 0.166366
H5    H     H_    0.540414 0.242805 0.827570 0.127423
H6    H     H_    0.452819 0.242999 0.165259 0.128682
H7    H     H_    0.037223 0.739660 0.833516 0.131484
H8    H     H_    0.952362 0.743157 0.165264 0.129236
H9    H     H_    0.759637 0.239317 0.269587 0.183382
H10   H     H_    0.174941 0.314055 0.815620 0.207063
H11   H     H_    0.323759 0.800266 0.180510 0.201495
H12   H     H_    0.683813 0.333484 0.174669 0.093390
H13   H     H_    0.674712 0.814341 0.815681 0.206925
H14   H     H_    0.644265 0.204660 0.167205 0.201081
H15   H     H_    0.185224 0.269054 0.720749 0.184833
H16   H     H_    0.306082 0.763314 0.276707 0.187883
H17   H     H_    0.684795 0.769280 0.720731 0.185517
H18   H     H_    0.409094 0.724476 0.179970 0.200108
H19   H     H_    0.577087 0.749557 0.819507 0.201958
H20   H     H_    0.844735 0.162337 0.269239 0.182326
H21   H     H_    0.077485 0.249150 0.819418 0.202124
H22   H     H_    0.392124 0.687270 0.276576 0.188041
H23   H     H_    0.819314 0.835131 0.824027 0.099265
H24   H     H_    0.587180 0.704102 0.724755 0.183358
H25   H     H_    0.729828 0.127274 0.166933 0.201511
H26   H     H_    0.087756 0.203746 0.724740 0.183099
H27   H     H_    0.620808 0.580968 0.673987 0.126902
H28   H     H_    0.627630 0.581920 0.516355 0.124199
H29   H     H_    0.120713 0.080985 0.673993 0.126754
H30   H     H_    0.126958 0.082019 0.515943 0.123718
H31   H     H_    0.464577 0.407018 0.396358 0.205890
H32   H     H_    0.563328 0.360096 0.624836 0.193227
H33   H     H_    0.963910 0.907142 0.396143 0.205800
H34   H     H_    0.178927 0.833798 0.174669 0.099732
H35   H     H_    0.063073 0.860118 0.624610 0.193584
H36   H     H_    0.571900 0.360790 0.472380 0.188073
H37   H     H_    0.456141 0.406434 0.548035 0.201034
H38   H     H_    0.071217 0.860891 0.471861 0.188034
H39   H     H_    0.955906 0.906484 0.548134 0.201064
H40   H     H_    0.425787 0.623190 0.176416 0.152824
H41   H     H_    0.546330 0.649983 0.823497 0.134810
H42   H     H_    0.926316 0.127485 0.175987 0.143550
H43   H     H_    0.046753 0.149770 0.823539 0.134876
H44   H     H_    0.567980 0.411355 0.328023 0.098998
H45   H     H_    0.957542 0.536323 0.332500 0.131443
H46   H     H_    0.533309 0.409761 0.747264 0.111393
H47   H     H_    0.067769 0.911431 0.328048 0.099255
H48   H     H_    0.033371 0.909750 0.747387 0.111687
H49   H     H_    0.224801 0.584404 0.665828 0.147714
H50   H     H_    0.795172 0.584158 0.262844 0.159746
H51   H     H_    0.725266 0.084258 0.665164 0.148820
H52   H     H_    0.295361 0.084052 0.262991 0.160078
H53   H     H_    0.566466 0.585526 0.333923 0.078323
H54   H     H_    0.513571 0.584406 0.717338 0.084087
H55   H     H_    0.065179 0.085691 0.333224 0.077369
H56   H     H_    0.057238 0.534334 0.510758 0.137998
H57   H     H_    0.013217 0.084375 0.716950 0.084147
H58   H     H_    0.227571 0.410453 0.678946 0.086175
H59   H     H_    0.786185 0.409499 0.252999 0.087789
H60   H     H_    0.727839 0.910409 0.678831 0.086495
H61   H     H_    0.285978 0.909396 0.252701 0.087845
H62   H     H_    0.485390 0.334458 0.175491 0.085711
H63   H     H_    0.508645 0.333202 0.824082 0.084342
H64   H     H_    0.985168 0.834527 0.175508 0.085553
H65   H     H_    0.010614 0.832579 0.825245 0.084932
H66   H     H_    0.946425 0.411553 0.345665 0.116986
H67   H     H_    0.457534 0.036099 0.332048 0.131608
H68   H     H_    0.120728 0.419381 0.489306 0.118114
H69   H     H_    0.446276 0.911367 0.345743 0.117858
H70   H     H_    0.620509 0.919014 0.489300 0.118582
H71   H     H_    0.345476 0.655244 0.765741 0.140954
H72   H     H_    0.337695 0.714525 0.835249 0.152086
H73   H     H_    0.244491 0.700419 0.693923 0.175959
H74   H     H_    0.659736 0.630134 0.260897 0.145457
H75   H     H_    0.592069 0.688317 0.171765 0.142816
H76   H     H_    0.700009 0.698310 0.305843 0.169511
H77   H     H_    0.847197 0.154813 0.766164 0.142950
H78   H     H_    0.557938 0.034401 0.509970 0.137873
H79   H     H_    0.839696 0.213759 0.836611 0.152234
H80   H     H_    0.747014 0.200558 0.694667 0.176225
H81   H     H_    0.160189 0.130143 0.260984 0.144975
H82   H     H_    0.092903 0.188463 0.172112 0.144374
H83   H     H_    0.201021 0.198223 0.306153 0.169237
H84   H     H_    0.123128 0.659918 0.834161 0.179620
N1    N     N_R   0.395410 0.396350 0.944340 -0.037635
N2    N     N_R   0.474920 0.471030 0.794350 -0.040239
N3    N     N_R   0.025080 0.971030 0.205650 -0.037529
N4    N     N_R   0.974920 0.971030 0.794350 -0.040189
N5    N     N_R   0.320260 0.527820 0.794570 -0.051977
N6    N     N_R   0.679740 0.527820 0.205430 -0.045514
N7    N     N_R   0.820260 0.027820 0.794570 -0.052318
N8    N     N_R   0.179740 0.027820 0.205430 -0.045745
N9    N     N_R   0.524590 0.527840 0.205200 -0.034903
N10   N     N_R   0.475410 0.527840 0.794800 -0.038419
N11   N     N_R   0.024590 0.027840 0.205200 -0.034969
N12   N     N_R   0.604590 0.396350 0.055660 -0.037519
N13   N     N_R   0.975410 0.027840 0.794800 -0.038480
N14   N     N_R   0.320750 0.471000 0.795020 -0.046830
N15   N     N_R   0.679250 0.471000 0.204980 -0.043504
N16   N     N_R   0.820750 0.971000 0.795020 -0.047033
N17   N     N_R   0.179250 0.971000 0.204980 -0.043194
N18   N     N_R   0.393620 0.602490 0.942710 -0.102142
N19   N     N_R   0.606380 0.602490 0.057290 -0.098337
N20   N     N_R   0.893620 0.102490 0.942710 -0.101912
N21   N     N_R   0.106380 0.102490 0.057290 -0.098550
N22   N     N_R   0.451720 0.396350 0.057510 -0.038970
N23   N     N_R   0.895410 0.896350 0.944340 -0.037574
N24   N     N_R   0.548280 0.396350 0.942490 -0.036495
N25   N     N_R   0.951720 0.896350 0.057510 -0.038846
N26   N     N_R   0.048280 0.896350 0.942490 -0.036497
N27   N     N_R   0.104590 0.896350 0.055660 -0.036826
N28   N     N_R   0.449930 0.602500 0.055880 -0.073493
N29   N     N_R   0.550070 0.602500 0.944120 -0.063697
N30   N     N_R   0.949930 0.102500 0.055880 -0.074006
N31   N     N_R   0.050070 0.102500 0.944120 -0.063826
N32   N     N_R   0.525080 0.471030 0.205650 -0.037239
Ni1   Ni    Ni4+2 0.435420 0.434270 0.870230 0.203077
Ni2   Ni    Ni4+2 0.564580 0.434270 0.129770 0.205417
Ni3   Ni    Ni4+2 0.935420 0.934270 0.870230 0.202970
Ni4   Ni    Ni4+2 0.064580 0.934270 0.129770 0.204502
Ni5   Ni    Ni4+2 0.563430 0.564580 0.128740 0.192289
Ni6   Ni    Ni4+2 0.436570 0.564580 0.871260 0.196983
Ni7   Ni    Ni4+2 0.063430 0.064580 0.128740 0.192503
Ni8   Ni    Ni4+2 0.936570 0.064580 0.871260 0.197155
O1    O     O_3   0.247729 0.649794 0.804879 -0.649191
O2    O     O_3   0.719199 0.669077 0.191025 -0.648862
O3    O     O_3   0.748386 0.149330 0.803636 -0.652033
O4    O     O_3   0.219762 0.168896 0.191040 -0.648959

loop_
_geom_bond_atom_site_label_1
_geom_bond_atom_site_label_2
_ccdc_geom_bond_type
C8    H73   S    
C76   C104  A    
C81   H32   S    
C83   H35   S    
C50   N29   A    
C68   C80   S    
C55   C59   S    
N28   Ni5   S    
C26   H78   S    
C62   H22   S    
C36   C42   A    
C50   H41   S    
C41   H6    S    
C22   H70   S    
C27   C56   A    
C8    H72   S    
C100  N16   A    
N6    Ni5   S    
C33   C65   S    
C48   C57   A    
C39   C41   A    
C71   C75   A    
C72   C98   S    
C28   C57   A    
C10   O3    S    
C104  N20   A    
C6    C48   S    
N3    Ni4   S    
C2    C85   A    
C9    H75   S    
C88   H48   S    
N2    Ni1   S    
C60   C62   S    
C38   C40   A    
C21   H12   S    
C3    C7    A    
N23   N25   A    
C59   C66   S    
N20   Ni8   S    
C75   H27   S    
C85   N2    A    
N3    N11   A    
C20   C25   D    
C51   N30   A    
C95   N11   A    
C97   H58   S    
N2    N10   A    
C10   H77   S    
N18   N28   A    
C60   H11   S    
C61   H13   S    
C18   C19   S    
C14   C24   S    
N4    N13   A    
C61   C63   S    
C88   N4    A    
C19   H68   S    
C17   C101  A    
C9    H74   S    
C1    H1    S    
C66   H26   S    
C32   N23   A    
C35   C87   S    
C3    H65   S    
C104  O3    S    
C107  N24   A    
C57   C61   S    
C51   H42   S    
C80   H36   S    
C11   H83   S    
C46   C55   A    
C70   C74   A    
C10   H80   S    
C41   C46   A    
C12   C95   A    
C69   C73   A    
C94   N10   A    
C77   H28   S    
C7    C43   A    
C97   N14   A    
C93   N9    A    
C49   C54   A    
C94   H54   S    
C91   H51   S    
N21   Ni7   S    
N10   Ni6   S    
C66   H21   S    
C91   N7    A    
C8    O1    S    
C15   C23   S    
N6    N15   A    
N4    Ni3   S    
C45   C53   A    
C16   C100  A    
C36   H84   S    
C59   H15   S    
C106  H62   S    
C21   N12   A    
N5    N14   A    
C24   H56   S    
C17   C92   A    
C82   H33   S    
N22   Ni2   S    
C82   H38   S    
C29   C53   A    
C99   H59   S    
C58   C64   S    
C40   C45   A    
C106  N22   A    
C52   H43   S    
C58   H14   S    
C105  N21   A    
C49   N28   A    
C27   C31   A    
C67   C68   A    
C2    C94   A    
C100  H60   S    
C51   C76   A    
C84   N32   A    
C103  N19   A    
C62   H18   S    
C78   C79   A    
C102  N18   A    
N20   N30   A    
C13   C96   A    
C101  N17   A    
N5    Ni6   S    
C73   C78   A    
C4    C106  A    
C29   C34   A    
C58   H9    S    
C33   C37   A    
C96   N13   A    
C56   C60   S    
C49   H40   S    
C99   N15   A    
C11   H81   S    
C7    C47   S    
N29   Ni6   S    
C35   C39   A    
N7    Ni8   S    
C14   C89   A    
C72   C77   A    
C69   C83   S    
C27   C62   S    
C95   H55   S    
C86   N3    A    
C25   H67   S    
N15   Ni2   S    
C40   H5    S    
C87   C105  A    
C93   H53   S    
C68   C72   A    
N26   N27   A    
N14   Ni1   S    
C64   H20   S    
C10   H79   S    
N18   Ni6   S    
C1    N1    A    
C86   H47   S    
C63   H24   S    
C101  H61   S    
C75   C77   A    
C37   H2    S    
C30   C66   S    
C52   N31   A    
C83   H39   S    
C108  N25   A    
C18   H66   S    
C39   H4    S    
N8    Ni7   S    
C20   C22   S    
C28   C33   A    
C67   C81   S    
C103  O2    S    
C81   H37   S    
C74   C79   A    
C23   H45   S    
N17   Ni4   S    
N27   Ni4   S    
C105  O4    S    
C60   H16   S    
C65   C103  A    
N12   Ni2   S    
C2    C71   S    
C78   H29   S    
C84   H44   S    
N26   Ni3   S    
C89   N5    A    
N31   Ni8   S    
C14   C97   A    
C5    C107  A    
C11   O4    S    
C64   H25   S    
C6    C32   A    
N19   Ni5   S    
N1    N22   A    
C9    O2    S    
C34   C38   A    
C54   C102  A    
C52   C87   A    
C43   N27   A    
N8    N17   A    
C15   C99   A    
C80   C81   S    
N13   Ni8   S    
C16   C26   S    
N32   Ni2   S    
N30   Ni7   S    
C53   C58   S    
C89   H49   S    
C20   H69   S    
C90   N6    A    
C107  H63   S    
C59   H10   S    
C80   H31   S    
C30   C35   A    
C30   C55   A    
N12   N24   A    
N24   Ni1   S    
C96   H57   S    
C12   C86   A    
C92   H52   S    
C11   H82   S    
C84   C98   A    
C1    C4    A    
C37   C44   A    
C108  H64   S    
C19   C24   D    
C17   C25   S    
N16   Ni3   S    
C9    H76   S    
C12   C74   S    
C15   C90   A    
N11   Ni7   S    
N21   N31   A    
C8    H71   S    
C4    C46   S    
C5    C45   S    
C18   C23   D    
C13   C88   A    
N9    Ni5   S    
N7    N16   A    
N23   Ni3   S    
C67   C71   A    
C42   C47   A    
C31   C54   S    
C69   C70   A    
C70   C82   S    
C50   C65   A    
C29   C64   S    
N25   Ni4   S    
N1    Ni1   S    
C28   C63   S    
C42   H7    S    
C85   H46   S    
C79   H30   S    
C5    C21   A    
C90   H50   S    
C44   H8    S    
C102  O1    S    
C82   C83   S    
C22   C26   D    
C34   C76   S    
C6    C108  A    
C31   C36   A    
C43   H34   S    
C61   H17   S    
C13   C73   S    
N9    N32   A    
C38   H3    S    
C92   N8    A    
C93   C98   A    
C32   H23   S    
C63   H19   S    
C3    N26   A    
C44   C48   A    
C16   C91   A    
C47   C56   A    
N19   N29   A    
