data_mof_unit_36700.cif
_audit_creation_date              2012-10-26T19:44:10-0400
_audit_creation_method            fapswitch 2.2
_symmetry_space_group_name_H-M    P1
_symmetry_Int_Tables_number       1
_space_group_crystal_system       triclinic
_cell_length_a                    13.853801
_cell_length_b                    15.005905
_cell_length_c                    15.789708
_cell_angle_alpha                 88.78695
_cell_angle_beta                  70.013161
_cell_angle_gamma                 89.279701
_cell_volume                      3084.06132644

loop_
_atom_site_label
_atom_site_type_symbol
_atom_type_description
_atom_site_fract_x
_atom_site_fract_y
_atom_site_fract_z
_atom_type_partial_charge
C1    C     C_R   0.499583 0.671248 0.499525 0.589873
C2    C     C_R   0.496241 0.768819 0.498722 0.006802
C3    C     C_R   0.520706 0.187445 0.416514 -0.042666
C4    C     C_R   0.467563 0.814860 0.580739 -0.058033
C5    C     C_R   0.497633 0.095567 0.415950 -0.071385
C6    C     C_R   0.440508 0.906181 0.581946 -0.067849
C7    C     C_R   0.464348 0.047557 0.498804 -0.015761
C8    C     C_R   0.464388 0.953749 0.499138 -0.006920
C9    C     C_R   0.432751 0.092826 0.581488 0.048696
C10   C     C_R   0.490494 0.908016 0.416927 -0.009442
C11   C     C_R   0.500192 0.050768 0.336440 -0.005503
C12   C     C_R   0.500158 0.328846 0.499923 0.587437
C13   C     C_R   0.385262 0.950967 0.662977 -0.042308
C14   C     C_R   0.492109 0.956573 0.338254 0.019596
C15   C     C_R   0.376759 0.044930 0.661282 0.034953
C16   C     C_R   0.437201 0.502207 0.672368 0.562871
C17   C     C_R   0.562409 0.501916 0.327744 0.572362
C18   C     C_R   0.223410 0.565169 0.452747 0.270197
C19   C     C_R   0.776289 0.435010 0.547425 0.252584
C20   C     C_R   0.189379 0.433916 0.545938 0.246717
C21   C     C_R   0.812835 0.561712 0.448482 0.255364
C22   C     C_R   0.087487 0.430330 0.543301 -0.011540
C23   C     C_R   0.369310 0.508301 0.096230 -0.001291
C24   C     C_R   0.915997 0.563148 0.448011 -0.011322
C25   C     C_R   0.053381 0.496790 0.495778 0.018280
C26   C     C_R   0.949829 0.497028 0.496095 0.010539
C27   C     C_R   0.122504 0.562963 0.447753 0.018085
C28   C     C_R   0.880686 0.430714 0.543823 -0.015197
C29   C     C_R   0.018955 0.361500 0.586260 -0.138948
C30   C     C_R   0.987099 0.627546 0.398558 -0.132722
C31   C     C_R   0.918046 0.361481 0.586154 -0.139281
C32   C     C_R   0.088589 0.626004 0.396544 -0.105108
C33   C     C_R   0.399443 0.514510 0.770807 0.025877
C34   C     C_R   0.618866 0.555536 0.908534 -0.004987
C35   C     C_R   0.597915 0.503767 0.228793 0.020698
C36   C     C_R   0.261668 0.533815 0.913079 -0.122382
C37   C     C_R   0.729921 0.489456 0.082734 -0.122344
C38   C     C_R   0.294749 0.525252 0.819772 -0.118043
C39   C     C_R   0.699218 0.482830 0.176435 -0.118275
C40   C     C_R   0.470368 0.520862 0.815538 -0.061136
C41   C     C_R   0.526801 0.524708 0.186259 -0.129412
C42   C     C_R   0.439616 0.534990 0.908661 0.057055
C43   C     C_R   0.552034 0.516989 0.092939 0.024019
C44   C     C_R   0.333282 0.534435 0.958100 0.020748
C45   C     C_R   0.299387 0.525013 0.051404 -0.093858
C46   C     C_R   0.657368 0.509096 0.040843 0.050789
C47   C     C_R   0.511894 0.539474 0.954527 0.042874
C48   C     C_R   0.476966 0.522193 0.049582 -0.017343
C49   C     C_3   0.255991 0.725173 0.447162 -0.295449
C50   C     C_3   0.677000 0.373326 0.695323 -0.301199
C51   C     C_3   0.182925 0.377520 0.693821 -0.258531
C52   C     C_3   0.820874 0.608685 0.297856 -0.293417
C53   C     C_2   0.327632 0.462001 0.185470 0.201812
C54   C     C_2   0.659851 0.610676 0.824857 0.212903
C55   C     C_3   0.513861 0.197412 0.709512 -0.302347
C56   C     C_R   0.689873 0.529076 0.949061 -0.153327
C57   C     C_3   0.656782 0.787997 0.282290 -0.275027
C58   C     C_2   0.581539 0.234520 0.331633 0.213154
C59   C     C_2   0.480665 0.772402 0.662256 0.245131
C60   C     C_2   0.492666 0.103032 0.257957 0.264785
C61   C     C_2   0.323298 0.898728 0.744177 0.196642
C62   C     C_2   0.468108 0.909465 0.265617 0.274890
C63   C     C_2   0.299469 0.091570 0.737647 0.278302
C64   C     C_R   0.455015 0.184540 0.581962 0.132910
C65   C     C_R   0.509662 0.814881 0.416577 0.073712
C66   C     C_R   0.497136 0.231475 0.499408 0.000008
Cu1   Cu    Cu3+1 0.402580 0.500010 0.499990 1.034375
Cu2   Cu    Cu3+1 0.597420 0.499990 0.500010 1.037563
H1    H     H_    0.217652 0.518172 0.087644 0.156263
H2    H     H_    0.238326 0.525179 0.786560 0.119572
H3    H     H_    0.179919 0.536269 0.950377 0.107554
H4    H     H_    0.810274 0.480039 0.043095 0.108262
H5    H     H_    0.317784 0.635475 0.341827 0.240278
H6    H     H_    0.244002 0.769632 0.394463 0.104171
H7    H     H_    0.314943 0.756239 0.469007 0.173029
H8    H     H_    0.183864 0.722480 0.506519 0.139137
H9    H     H_    0.721262 0.306652 0.572821 0.229934
H10   H     H_    0.707981 0.314378 0.721413 0.111741
H11   H     H_    0.592353 0.371057 0.726040 0.145845
H12   H     H_    0.771489 0.533782 0.911354 0.092048
H13   H     H_    0.705718 0.434651 0.716927 0.134584
H14   H     H_    0.223375 0.304317 0.575350 0.258289
H15   H     H_    0.246606 0.368335 0.720785 0.173950
H16   H     H_    0.124977 0.325175 0.724880 0.147972
H17   H     H_    0.146642 0.443864 0.713841 0.121977
H18   H     H_    0.783727 0.689183 0.411351 0.227532
H19   H     H_    0.757858 0.616048 0.270139 0.151486
H20   H     H_    0.855214 0.541008 0.282153 0.151834
H21   H     H_    0.879829 0.659122 0.263252 0.109702
H22   H     H_    0.375114 0.415230 0.207282 0.144076
H23   H     H_    0.042466 0.306347 0.619927 0.127165
H24   H     H_    0.739324 0.603038 0.781482 0.092838
H25   H     H_    0.433756 0.295684 0.665918 0.249757
H26   H     H_    0.498448 0.233970 0.773228 0.141737
H27   H     H_    0.594155 0.209007 0.664969 0.140379
H28   H     H_    0.504620 0.125344 0.726905 0.162366
H29   H     H_    0.533018 0.702148 0.334752 0.251864
H30   H     H_    0.681814 0.748998 0.219393 0.149278
H31   H     H_    0.705754 0.770532 0.322873 0.139291
H32   H     H_    0.667417 0.859711 0.263273 0.192663
H33   H     H_    0.647639 0.201644 0.284239 0.140426
H34   H     H_    0.965516 0.680321 0.360957 0.115499
H35   H     H_    0.505881 0.812373 0.707205 0.168031
H36   H     H_    0.432870 0.153247 0.268250 0.118821
H37   H     H_    0.281528 0.840564 0.736309 0.135681
H38   H     H_    0.410955 0.857062 0.283827 0.108975
H39   H     H_    0.287911 0.072793 0.806941 0.168831
H40   H     H_    0.870327 0.305855 0.619062 0.121394
H41   H     H_    0.139870 0.675090 0.354023 0.128574
H42   H     H_    0.452244 0.549628 0.226607 0.121676
H43   H     H_    0.549909 0.511359 0.777111 0.132703
H44   H     H_    0.755031 0.464129 0.207670 0.125757
N1    N     N_R   0.256170 0.500070 0.500040 -0.199116
N2    N     N_R   0.743830 0.499930 0.499960 -0.196878
N3    N     N_2   0.289942 0.637094 0.411246 -0.463168
N4    N     N_2   0.705164 0.370002 0.598137 -0.458620
N5    N     N_2   0.222884 0.368855 0.596738 -0.456595
N6    N     N_2   0.780638 0.623644 0.394172 -0.461867
N7    N     N_2   0.443129 0.227466 0.665134 -0.486996
N8    N     N_2   0.550293 0.768861 0.333234 -0.530287
O1    O     O_R   0.417730 0.629750 0.499970 -0.482119
O2    O     O_2   0.607045 0.668228 0.806018 -0.460386
O3    O     O_2   0.555817 0.307836 0.312010 -0.510441
O4    O     O_2   0.461229 0.694175 0.681591 -0.481080
O5    O     O_2   0.556708 0.094632 0.183003 -0.436295
O6    O     O_2   0.322942 0.916964 0.819244 -0.509267
O7    O     O_2   0.514244 0.925087 0.185953 -0.429076
O8    O     O_2   0.246152 0.151286 0.723100 -0.514924
O9    O     O_R   0.582270 0.370250 0.500030 -0.485451
O10   O     O_R   0.582270 0.629730 0.499980 -0.458810
O11   O     O_R   0.417730 0.370270 0.500020 -0.459616
O12   O     O_R   0.371590 0.500020 0.629830 -0.497354
O13   O     O_R   0.628410 0.499980 0.370170 -0.488120
O14   O     O_R   0.536130 0.499990 0.629840 -0.470808
O15   O     O_R   0.463870 0.500010 0.370160 -0.484723
O16   O     O_2   0.239152 0.474269 0.234938 -0.521197

loop_
_geom_bond_atom_site_label_1
_geom_bond_atom_site_label_2
_ccdc_geom_bond_type
C38   H2    S    
C34   C56   A    
C23   C45   A    
C12   O11   A    
C9    C64   A    
C31   H40   S    
C2    C4    A    
Cu1   O12   S    
C2    C65   A    
C16   O14   A    
C50   H11   S    
C51   H17   S    
C7    C8    A    
C55   N7    S    
C58   O3    D    
C64   N7    S    
C60   O5    D    
C22   C29   A    
C24   C26   A    
C5    C11   A    
C35   C39   A    
C8    C10   A    
C11   C14   A    
C14   C62   S    
Cu1   O1    S    
C1    C2    S    
C22   C25   A    
C17   O15   A    
C49   H7    S    
C61   O6    D    
H9    N4    S    
C61   H37   S    
C43   C48   A    
C63   O8    D    
C36   H3    S    
C40   C42   A    
C54   O2    D    
C41   C43   A    
C52   H21   S    
Cu2   O9    S    
C53   O16   D    
C42   C44   A    
C55   H26   S    
C16   O12   A    
C50   H10   S    
C18   N1    A    
C20   N5    S    
C23   C53   S    
C40   H43   S    
C24   C30   A    
C52   H19   S    
C33   C40   A    
C12   O9    A    
C45   H1    S    
Cu1   Cu2   S    
C52   H20   S    
C4    C6    A    
C1    O10   A    
C32   H41   S    
C5    C7    A    
C21   N2    A    
C6    C8    A    
C19   N2    A    
C25   C26   A    
C57   H32   S    
C12   C66   S    
C64   C66   A    
Cu1   O15   S    
C54   H24   S    
C21   N6    S    
C16   C33   S    
C52   N6    S    
C47   C48   A    
C30   H34   S    
C49   H8    S    
H18   N6    S    
C58   H33   S    
Cu2   O10   S    
C19   C28   A    
C57   N8    S    
C55   H27   S    
C39   H44   S    
C49   N3    S    
C20   C22   A    
C34   C54   S    
C41   H42   S    
C13   C15   A    
C17   O13   A    
C36   C44   A    
C3    C66   A    
C21   C24   A    
C63   H39   S    
C11   C60   S    
C51   H15   S    
C29   H23   S    
C44   C45   A    
C10   C65   A    
C59   O4    D    
C7    C9    A    
Cu2   O13   S    
C23   C48   A    
C27   C32   A    
C28   C31   A    
Cu1   O11   S    
C18   C27   A    
C55   H28   S    
C3    C5    A    
C56   H12   S    
C18   N3    S    
C62   H38   S    
C25   C27   A    
C17   C35   S    
C26   C28   A    
C33   C38   A    
H5    N3    S    
C59   H35   S    
H29   N8    S    
Cu2   O14   S    
Cu1   N1    S    
C29   C31   A    
C6    C13   A    
C30   C32   A    
Cu2   N2    S    
C62   O7    D    
C19   N4    S    
C57   H30   S    
C4    C59   S    
C36   C38   A    
C51   N5    S    
C65   N8    S    
C50   N4    S    
C42   C47   A    
C9    C15   A    
C20   N1    A    
C35   C41   A    
C43   C46   A    
C1    O1    A    
C3    C58   S    
C13   C61   S    
C37   C39   A    
C37   H4    S    
C46   C56   A    
C53   H22   S    
C15   C63   S    
C49   H6    S    
C34   C47   A    
H25   N7    S    
H14   N5    S    
C37   C46   A    
C60   H36   S    
C51   H16   S    
C50   H13   S    
C10   C14   A    
C57   H31   S    
