data_mof_unit_13414.cif
_audit_creation_date              2012-12-10T18:45:08-0500
_audit_creation_method            fapswitch 2.2
_symmetry_space_group_name_H-M    P1
_symmetry_Int_Tables_number       1
_space_group_crystal_system       triclinic
_cell_length_a                    10.632377
_cell_length_b                    9.818883
_cell_length_c                    10.722685
_cell_angle_alpha                 89.900054
_cell_angle_beta                  89.941495
_cell_angle_gamma                 89.976796
_cell_volume                      1119.42519619

loop_
_atom_site_label
_atom_site_type_symbol
_atom_type_description
_atom_site_fract_x
_atom_site_fract_y
_atom_site_fract_z
_atom_type_partial_charge
C1    C     C_R   0.260123 0.499880 0.503624 0.908349
C2    C     C_R   0.489067 0.500768 0.740020 0.915273
C3    C     C_R   0.560478 0.756142 0.112451 -0.383716
C4    C     C_R   0.434152 0.754106 0.886453 -0.378775
C5    C     C_R   0.530610 0.880388 0.054222 0.479260
C6    C     C_R   0.461261 0.879310 0.943805 0.476731
C7    C     C_R   0.476634 0.629689 0.938743 0.065883
C8    C     C_R   0.521167 0.630430 0.060814 0.070175
C9    C     C_R   0.522387 0.504772 0.126400 -0.110220
C10   C     C_R   0.478853 0.504053 0.873616 -0.092990
C11   C     C_R   0.511142 0.381134 0.063320 -0.166721
C12   C     C_R   0.739836 0.499923 0.503704 0.912024
C13   C     C_R   0.494257 0.380855 0.936958 -0.127895
C14   C     C_R   0.065245 0.428591 0.605242 0.121325
C15   C     C_R   0.934371 0.429607 0.605778 0.125807
C16   C     C_R   0.872087 0.500170 0.509880 -0.098346
C17   C     C_R   0.127811 0.499892 0.509768 -0.103327
C18   C     C_R   0.935749 0.573481 0.418443 -0.203627
C19   C     C_R   0.064313 0.573667 0.418609 -0.195287
C20   C     C_R   0.562775 0.071770 0.590157 -0.030596
C21   C     C_R   0.436865 0.072209 0.410057 -0.042779
C22   C     C_R   0.562966 0.927771 0.590043 -0.077470
C23   C     C_R   0.436778 0.928177 0.410119 -0.080552
C24   C     C_R   0.511458 0.500994 0.260025 0.881109
H1    H     H_    0.514918 0.284156 0.111490 0.221328
H2    H     H_    0.386300 0.873668 0.338295 0.148510
H3    H     H_    0.612848 0.987597 0.182790 0.323192
H4    H     H_    0.377254 0.983951 0.814165 0.332960
H5    H     H_    0.493647 0.283798 0.889037 0.227635
H6    H     H_    0.617024 0.759114 0.196121 0.182180
H7    H     H_    0.377674 0.755222 0.802680 0.188837
H8    H     H_    0.885689 0.628416 0.346010 0.156492
H9    H     H_    0.114503 0.628853 0.346356 0.160491
H10   H     H_    0.612630 0.126142 0.662382 0.170880
H11   H     H_    0.386472 0.127006 0.338160 0.154015
H12   H     H_    0.613241 0.872965 0.662019 0.155486
I1    I     I_    0.167804 0.327530 0.750642 -0.298129
I2    I     I_    0.831067 0.335117 0.754457 -0.314360
N1    N     N_R   0.500000 0.857200 0.500000 -0.094694
N2    N     N_R   0.500000 0.142810 0.500000 -0.090175
O1    O     O_R   0.316770 0.614620 0.499990 -0.621790
O2    O     O_3   0.424250 0.001861 0.892267 -0.738634
O3    O     O_R   0.683230 0.614620 0.500010 -0.621596
O4    O     O_R   0.316800 0.385290 0.500000 -0.596216
O5    O     O_R   0.683200 0.385290 0.500000 -0.599801
O6    O     O_R   0.500010 0.614690 0.316770 -0.632581
O7    O     O_R   0.499990 0.614690 0.683230 -0.632672
O8    O     O_R   0.500040 0.385360 0.316770 -0.624634
O9    O     O_R   0.499960 0.385360 0.683230 -0.607494
O10   O     O_3   0.565125 0.004016 0.104791 -0.750470
Zn1   Zn    Zn3+2 0.500000 0.653120 0.500000 0.947149
Zn2   Zn    Zn3+2 0.500000 0.346880 0.500000 0.990456

loop_
_geom_bond_atom_site_label_1
_geom_bond_atom_site_label_2
_ccdc_geom_bond_type
C7    C10   A    
N1    Zn1   S    
C9    C24   S    
C21   H11   S    
C2    O9    A    
C2    O7    A    
C3    H6    S    
C9    C11   A    
C1    O4    A    
C1    C17   S    
H3    O10   S    
O9    Zn2   S    
C20   H10   S    
O4    Zn2   S    
C24   O6    A    
C7    C8    A    
C15   I2    S    
C14   I1    S    
C11   C13   A    
C14   C17   A    
O3    Zn1   S    
C21   N2    A    
C4    C7    A    
C23   N1    A    
C22   N1    A    
C13   H5    S    
C17   C19   A    
C20   C22   A    
C3    C8    A    
C12   O3    A    
C21   C23   A    
C6    O2    S    
C5    C6    A    
C20   N2    A    
C5    O10   S    
C4    H7    S    
C18   H8    S    
C11   H1    S    
C4    C6    A    
C15   C16   A    
C2    C10   S    
C12   C16   S    
O8    Zn2   S    
C22   H12   S    
C16   C18   A    
C18   C19   A    
C19   H9    S    
C23   H2    S    
H4    O2    S    
C14   C15   A    
C8    C9    A    
O7    Zn1   S    
O5    Zn2   S    
N2    Zn2   S    
O6    Zn1   S    
O1    Zn1   S    
C1    O1    A    
C12   O5    A    
C3    C5    A    
C10   C13   A    
C24   O8    A    
