data_mof_unit_52105.cif
_audit_creation_date              2012-12-10T18:48:43-0500
_audit_creation_method            fapswitch 2.2
_symmetry_space_group_name_H-M    P1
_symmetry_Int_Tables_number       1
_space_group_crystal_system       triclinic
_cell_length_a                    15.433086
_cell_length_b                    14.856446
_cell_length_c                    9.945153
_cell_angle_alpha                 90.0002
_cell_angle_beta                  90.241548
_cell_angle_gamma                 90.000656
_cell_volume                      2280.21245974

loop_
_atom_site_label
_atom_site_type_symbol
_atom_type_description
_atom_site_fract_x
_atom_site_fract_y
_atom_site_fract_z
_atom_type_partial_charge
C1    C     C_R   0.119813 0.380009 0.500121 0.870674
C2    C     C_R   0.997765 0.420591 0.928026 0.013718
C3    C     C_R   0.002229 0.420590 0.071971 0.013787
C4    C     C_R   0.997771 0.579410 0.928028 0.013783
C5    C     C_R   0.502235 0.079409 0.071974 0.013718
C6    C     C_R   0.497766 0.920591 0.928026 0.013731
C7    C     C_R   0.502228 0.920590 0.071972 0.013783
C8    C     C_R   0.497771 0.079410 0.928029 0.013787
C9    C     C_R   0.792349 0.270361 0.379634 -0.165879
C10   C     C_R   0.207691 0.729596 0.620396 -0.165882
C11   C     C_R   0.228397 0.706429 0.379794 -0.138062
C12   C     C_R   0.880188 0.619992 0.499879 0.870678
C13   C     C_R   0.771561 0.293616 0.620175 -0.138026
C14   C     C_R   0.207730 0.270444 0.620407 -0.165883
C15   C     C_R   0.792242 0.729523 0.379584 -0.165887
C16   C     C_R   0.771668 0.706503 0.620226 -0.138132
C17   C     C_R   0.228360 0.293531 0.379783 -0.138122
C18   C     C_R   0.292309 0.770404 0.379604 -0.165882
C19   C     C_R   0.707651 0.229639 0.620365 -0.165879
C20   C     C_R   0.728439 0.206384 0.379825 -0.138026
C21   C     C_R   0.271603 0.793571 0.620206 -0.138062
C22   C     C_R   0.707758 0.770477 0.620416 -0.165887
C23   C     C_R   0.880187 0.380009 0.499879 0.870675
C24   C     C_R   0.292270 0.229556 0.379593 -0.165882
C25   C     C_R   0.271639 0.206469 0.620216 -0.138122
C26   C     C_R   0.728332 0.793497 0.379774 -0.138132
C27   C     C_R   0.186200 0.686221 0.500170 -0.042270
C28   C     C_R   0.813798 0.313781 0.499829 -0.042283
C29   C     C_R   0.813799 0.686221 0.499831 -0.042297
C30   C     C_R   0.186202 0.313780 0.500170 -0.042277
C31   C     C_R   0.686202 0.186219 0.500170 -0.042283
C32   C     C_R   0.313800 0.813779 0.499830 -0.042270
C33   C     C_R   0.313798 0.186220 0.499830 -0.042277
C34   C     C_R   0.119812 0.619992 0.500121 0.870679
C35   C     C_R   0.686201 0.813779 0.500169 -0.042297
C36   C     C_2   0.017817 0.665098 0.144549 0.499014
C37   C     C_2   0.982178 0.334904 0.855450 0.499102
C38   C     C_2   0.017809 0.334899 0.144543 0.498839
C39   C     C_2   0.982192 0.665100 0.855455 0.498876
C40   C     C_2   0.517822 0.165096 0.144550 0.499102
C41   C     C_2   0.482183 0.834902 0.855451 0.499014
C42   C     C_2   0.517808 0.834900 0.144545 0.498876
C43   C     C_2   0.482191 0.165101 0.855457 0.498840
C44   C     C_R   0.619812 0.880008 0.500121 0.870678
C45   C     C_R   0.380187 0.119991 0.499879 0.870674
C46   C     C_R   0.380188 0.880008 0.499879 0.870679
C47   C     C_R   0.619813 0.119991 0.500121 0.870675
C48   C     C_R   0.002234 0.579409 0.071974 0.013730
H1    H     H_    0.987399 0.679322 0.239090 0.101282
H2    H     H_    0.175074 0.714681 0.714052 0.166928
H3    H     H_    0.212597 0.672672 0.286268 0.189287
H4    H     H_    0.787328 0.327410 0.713673 0.189259
H5    H     H_    0.175145 0.285393 0.714074 0.166947
H6    H     H_    0.824805 0.714549 0.285909 0.166975
H7    H     H_    0.787520 0.672805 0.713770 0.189344
H8    H     H_    0.212531 0.327255 0.286249 0.189302
H9    H     H_    0.324926 0.785319 0.285948 0.166928
H10   H     H_    0.675001 0.214756 0.713996 0.166913
H11   H     H_    0.712671 0.172590 0.286327 0.189259
H12   H     H_    0.012607 0.320673 0.760918 0.101239
H13   H     H_    0.287403 0.827328 0.713732 0.189287
H14   H     H_    0.675195 0.785451 0.714090 0.166975
H15   H     H_    0.324855 0.214607 0.285926 0.166947
H16   H     H_    0.287469 0.172745 0.713751 0.189302
H17   H     H_    0.712480 0.827195 0.286230 0.189344
H18   H     H_    0.987423 0.320689 0.239109 0.101317
H19   H     H_    0.012592 0.679316 0.760901 0.101304
H20   H     H_    0.487393 0.179327 0.239082 0.101239
H21   H     H_    0.512601 0.820678 0.760910 0.101282
H22   H     H_    0.487408 0.820684 0.239099 0.101304
H23   H     H_    0.512577 0.179311 0.760891 0.101317
H24   H     H_    0.824999 0.285244 0.286004 0.166913
N1    N     N_R   0.000000 0.500000 0.857200 -0.189359
N2    N     N_R   0.000000 0.500000 0.142800 -0.189356
N3    N     N_R   0.500000 0.000000 0.857200 -0.189356
N4    N     N_R   0.500000 1.000000 0.142800 -0.189359
O1    O     O_R   0.091610 0.408380 0.614620 -0.647682
O2    O     O_R   0.408390 0.091620 0.385380 -0.647682
O3    O     O_R   0.408390 0.091620 0.614620 -0.641574
O4    O     O_R   0.591610 0.908380 0.385380 -0.641571
O5    O     O_R   0.408390 0.908380 0.385380 -0.647678
O6    O     O_R   0.591610 0.091620 0.614620 -0.647667
O7    O     O_R   0.591610 0.091620 0.385380 -0.641532
O8    O     O_R   0.408390 0.908380 0.614620 -0.641549
O9    O     O_2   0.067592 0.721252 0.099264 -0.577421
O10   O     O_2   0.932388 0.278759 0.900725 -0.577381
O11   O     O_2   0.067551 0.278728 0.099229 -0.577475
O12   O     O_R   0.908390 0.591620 0.385380 -0.647692
O13   O     O_2   0.932438 0.721265 0.900756 -0.577480
O14   O     O_2   0.567612 0.221241 0.099274 -0.577381
O15   O     O_2   0.432408 0.778748 0.900736 -0.577421
O16   O     O_2   0.567562 0.778735 0.099244 -0.577480
O17   O     O_2   0.432449 0.221272 0.900771 -0.577475
O18   O     O_R   0.908390 0.591620 0.614620 -0.641571
O19   O     O_R   0.091610 0.408380 0.385380 -0.641574
O20   O     O_R   0.908390 0.408380 0.385380 -0.647667
O21   O     O_R   0.091610 0.591620 0.614620 -0.647678
O22   O     O_R   0.091610 0.591620 0.385380 -0.641549
O23   O     O_R   0.908390 0.408380 0.614620 -0.641532
O24   O     O_R   0.591610 0.908380 0.614620 -0.647691
Zn1   Zn    Zn3+2 0.000000 0.500000 0.653120 0.933384
Zn2   Zn    Zn3+2 1.000000 0.500000 0.346880 0.933378
Zn3   Zn    Zn3+2 0.500000 1.000000 0.653120 0.933379
Zn4   Zn    Zn3+2 0.500000 0.000000 0.346880 0.933384

loop_
_geom_bond_atom_site_label_1
_geom_bond_atom_site_label_2
_ccdc_geom_bond_type
C10   C27   A    
N4    Zn4   S    
C23   O23   A    
C11   C18   A    
O20   Zn2   S    
C12   C29   S    
C1    O1    A    
O1    Zn1   S    
C9    H24   S    
C19   C31   A    
C6    N3    A    
C22   C35   A    
O4    Zn4   S    
C7    C42   S    
C46   O5    A    
C42   H22   S    
C34   O21   A    
C33   C45   S    
C23   O20   A    
C47   O6    A    
C3    N2    A    
C18   H9    S    
C43   O17   D    
C38   H18   S    
O18   Zn1   S    
C6    C41   S    
C43   H23   S    
O6    Zn3   S    
C8    C43   S    
C13   C28   A    
C45   O2    A    
C47   O7    A    
C21   H13   S    
O19   Zn2   S    
N2    Zn2   S    
N1    Zn1   S    
C27   C34   S    
C31   C47   S    
N3    Zn3   S    
C17   C30   A    
O3    Zn3   S    
C32   C46   S    
C14   C30   A    
C15   C29   A    
C19   H10   S    
C21   C32   A    
C17   C24   A    
O7    Zn4   S    
C13   C19   A    
O2    Zn4   S    
C15   H6    S    
C48   N2    A    
C37   O10   D    
C44   O4    A    
C3    C38   S    
C12   O12   A    
C44   O24   A    
C15   C26   A    
C16   C29   A    
O22   Zn2   S    
O24   Zn3   S    
C25   H16   S    
C22   H14   S    
C13   H4    S    
C9    C20   A    
C4    C39   S    
C11   C27   A    
C1    O19   A    
C45   O3    A    
C23   C28   S    
C20   H11   S    
C35   C44   S    
C17   H8    S    
C4    N1    A    
C7    N4    A    
C2    N1    A    
C46   O8    A    
O23   Zn1   S    
C24   H15   S    
C18   C32   A    
C10   H2    S    
C41   H21   S    
C4    C48   A    
C16   C22   A    
C41   O15   D    
C26   H17   S    
C39   H19   S    
C10   C21   A    
C5    C8    A    
O12   Zn2   S    
C6    C7    A    
O5    Zn4   S    
C36   O9    D    
C24   C33   A    
C38   O11   D    
C5    N4    A    
C2    C3    A    
C16   H7    S    
C12   O18   A    
C2    C37   S    
C1    C30   S    
C34   O22   A    
C36   C48   S    
C42   O16   D    
C8    N3    A    
C14   C25   A    
C37   H12   S    
C11   H3    S    
C26   C35   A    
C14   H5    S    
C40   H20   S    
C5    C40   S    
O8    Zn3   S    
C40   O14   D    
C39   O13   D    
O21   Zn1   S    
C36   H1    S    
C9    C28   A    
C25   C33   A    
C20   C31   A    
