data_mof_unit_24859.cif
_audit_creation_date              2013-03-05T16:00:03-0500
_audit_creation_method            fapswitch 2.2
_symmetry_space_group_name_H-M    P1
_symmetry_Int_Tables_number       1
_space_group_crystal_system       triclinic
_cell_length_a                    20.394931
_cell_length_b                    21.751516
_cell_length_c                    14.886155
_cell_angle_alpha                 89.860938
_cell_angle_beta                  129.838654
_cell_angle_gamma                 90.198772
_cell_volume                      5070.71170316

loop_
_atom_site_label
_atom_site_type_symbol
_atom_site_description
_atom_site_fract_x
_atom_site_fract_y
_atom_site_fract_z
_atom_type_partial_charge
O1    O     O_R   0.600040 0.935040 0.546740 -0.624973
O2    O     O_R   0.399960 0.064960 0.453260 -0.620180
O3    O     O_R   0.399960 0.935040 0.453260 -0.626095
O4    O     O_R   0.600040 0.064960 0.546740 -0.622278
O5    O     O_R   0.100040 0.435040 0.546740 -0.616599
O6    O     O_R   0.899960 0.564960 0.453260 -0.621216
O7    O     O_R   0.899960 0.435040 0.453260 -0.625768
O8    O     O_R   0.100040 0.564960 0.546740 -0.628141
O9    O     O_R   0.555010 0.935070 0.653220 -0.505062
O10   O     O_R   0.444990 0.064930 0.346780 -0.535355
O11   O     O_R   0.444990 0.935070 0.346780 -0.505391
O12   O     O_R   0.555010 0.064930 0.653220 -0.537203
O13   O     O_R   0.055010 0.435070 0.653220 -0.508233
O14   O     O_R   0.944990 0.564930 0.346780 -0.530055
O15   O     O_R   0.944990 0.435070 0.346780 -0.508206
O16   O     O_R   0.055010 0.564930 0.653220 -0.537261
C1    C     C_R   0.599580 0.910869 0.626694 0.817536
C2    C     C_R   0.402879 0.090429 0.376189 0.814416
C3    C     C_R   0.399272 0.911397 0.372158 0.816439
C4    C     C_R   0.598827 0.089662 0.625525 0.811324
C5    C     C_R   0.098754 0.410351 0.626103 0.812520
C6    C     C_R   0.901944 0.589928 0.375183 0.818839
C7    C     C_R   0.899759 0.411093 0.372752 0.812676
C8    C     C_R   0.100473 0.588731 0.627416 0.815618
Cu1   Cu    Cu3+1 0.526640 0.000000 0.436960 0.955078
Cu2   Cu    Cu3+1 0.473360 1.000000 0.563040 0.954767
Cu3   Cu    Cu3+1 0.026640 0.500000 0.436960 0.955662
Cu4   Cu    Cu3+1 0.973360 0.500000 0.563040 0.954345
C9    C     C_R   0.649859 0.146475 0.688002 -0.173291
C10   C     C_R   0.341892 0.858293 0.302012 -0.166584
C11   C     C_R   0.357088 0.149634 0.318860 -0.173088
C12   C     C_R   0.654144 0.856306 0.693887 -0.168814
C13   C     C_R   0.154292 0.644034 0.692595 -0.162001
C14   C     C_R   0.843938 0.356958 0.304608 -0.167005
C15   C     C_R   0.852416 0.647280 0.314097 -0.175308
C16   C     C_R   0.152060 0.355150 0.693762 -0.176406
C17   C     C_R   0.765878 0.217571 0.756406 -0.119800
C18   C     C_R   0.215929 0.795865 0.221699 -0.152570
C19   C     C_R   0.254161 0.229409 0.266273 -0.157521
C20   C     C_R   0.773473 0.788783 0.764670 -0.157700
C21   C     C_R   0.275766 0.710992 0.768514 -0.130678
C22   C     C_R   0.722044 0.290904 0.230267 -0.159991
C23   C     C_R   0.739547 0.720085 0.250007 -0.119641
C24   C     C_R   0.263717 0.281769 0.755139 -0.153422
C25   C     C_R   0.710179 0.171195 0.678867 -0.039517
C26   C     C_R   0.277685 0.837448 0.306353 -0.047299
C27   C     C_R   0.302669 0.178395 0.335234 -0.037583
C28   C     C_R   0.713946 0.832391 0.683452 -0.051703
C29   C     C_R   0.221693 0.663348 0.693717 -0.040783
C30   C     C_R   0.781953 0.334295 0.312134 -0.049266
C31   C     C_R   0.794375 0.673128 0.326247 -0.040674
C32   C     C_R   0.203008 0.324749 0.673145 -0.039772
C33   C     C_R   0.637176 0.177679 0.759222 0.126557
C34   C     C_R   0.349653 0.828826 0.224476 0.141195
C35   C     C_R   0.370742 0.179999 0.247573 0.120047
C36   C     C_R   0.647431 0.827831 0.773425 0.138548
C37   C     C_R   0.137977 0.678702 0.756898 0.119393
C38   C     C_R   0.851777 0.327559 0.227090 0.138161
C39   C     C_R   0.864530 0.678027 0.241698 0.120723
C40   C     C_R   0.152044 0.331859 0.783026 0.139842
C41   C     C_R   0.703235 0.215881 0.851379 0.076767
C42   C     C_R   0.278875 0.795700 0.127156 0.081080
C43   C     C_R   0.308804 0.222243 0.161423 0.083764
C44   C     C_R   0.717034 0.792727 0.867652 0.080419
C45   C     C_R   0.203407 0.716984 0.849658 0.081513
C46   C     C_R   0.782107 0.292807 0.131968 0.080444
C47   C     C_R   0.798914 0.716827 0.150751 0.078865
C48   C     C_R   0.222387 0.296353 0.875228 0.075395
C49   C     C_R   0.764609 0.238499 0.843715 0.082485
C50   C     C_R   0.215096 0.775975 0.131994 0.078963
C51   C     C_R   0.254915 0.250162 0.178200 0.077831
C52   C     C_R   0.776538 0.769942 0.856915 0.078593
C53   C     C_R   0.268559 0.736618 0.847516 0.089684
C54   C     C_R   0.720645 0.271133 0.140000 0.077688
C55   C     C_R   0.739545 0.740518 0.161156 0.083404
C56   C     C_R   0.274693 0.268355 0.855724 0.073616
C57   C     C_R   0.710173 0.233103 0.949828 0.076260
C58   C     C_R   0.270686 0.779506 0.027469 0.076504
C59   C     C_R   0.298476 0.237915 0.059684 0.077049
C60   C     C_R   0.728210 0.777818 0.970194 0.078059
C61   C     C_R   0.207125 0.736337 0.944569 0.075031
C62   C     C_R   0.772827 0.277109 0.031265 0.076916
C63   C     C_R   0.790404 0.733483 0.050746 0.077321
C64   C     C_R   0.239432 0.284656 0.982959 0.076757
C65   C     C_R   0.321953 0.806920 0.005782 -0.231840
C66   C     C_R   0.659771 0.205496 0.972999 -0.211989
C67   C     C_R   0.681781 0.807884 0.997244 -0.229819
C68   C     C_R   0.340939 0.205801 0.028161 -0.208664
C69   C     C_R   0.821774 0.306060 0.006978 -0.233069
C70   C     C_R   0.153259 0.711136 0.963719 -0.205290
C71   C     C_R   0.201170 0.319525 0.017976 -0.212893
C72   C     C_R   0.838720 0.704986 0.025241 -0.208583
C73   C     C_R   0.324140 0.783651 0.921304 -0.185535
C74   C     C_R   0.661637 0.226525 0.062386 -0.206603
C75   C     C_R   0.683986 0.787409 0.087238 -0.188082
C76   C     C_R   0.332780 0.222997 0.931733 -0.206575
C77   C     C_R   0.821042 0.284870 0.918772 -0.186846
C78   C     C_R   0.154102 0.733026 0.051745 -0.190240
C79   C     C_R   0.205383 0.300776 0.110624 -0.220621
C80   C     C_R   0.835238 0.725193 0.933969 -0.205308
H1    H     H_    0.369260 0.802925 0.913217 0.157405
H2    H     H_    0.618349 0.206238 0.073053 0.142341
H3    H     H_    0.643003 0.809292 0.100371 0.159662
H4    H     H_    0.369305 0.198463 0.913490 0.141303
H5    H     H_    0.863797 0.305886 0.907769 0.159830
H6    H     H_    0.108600 0.714407 0.059647 0.142513
H7    H     H_    0.169893 0.326187 0.129665 0.151432
H8    H     H_    0.876991 0.704148 0.921439 0.141337
H9    H     H_    0.325061 0.727674 0.766551 0.179609
H10   H     H_    0.676242 0.271865 0.237312 0.180527
H11   H     H_    0.696364 0.741152 0.259952 0.190088
H12   H     H_    0.301855 0.257326 0.739511 0.186504
H13   H     H_    0.810793 0.237817 0.748704 0.189350
H14   H     H_    0.168223 0.778270 0.226169 0.179626
H15   H     H_    0.214776 0.253023 0.280623 0.188058
H16   H     H_    0.817665 0.768848 0.755586 0.181121
H17   H     H_    0.361810 0.846085 0.054642 0.168457
H18   H     H_    0.618301 0.167272 0.923192 0.153491
H19   H     H_    0.643065 0.847514 0.949333 0.168340
H20   H     H_    0.380157 0.166470 0.075942 0.152985
H21   H     H_    0.861475 0.345302 0.055858 0.168027
H22   H     H_    0.110113 0.673917 0.912289 0.152307
H23   H     H_    0.166667 0.361156 0.973326 0.171100
H24   H     H_    0.879746 0.666667 0.074605 0.152965
N1    N     N_R   0.433280 0.000000 0.657760 -0.214079
N2    N     N_R   0.566720 0.000000 0.342240 -0.213867
N3    N     N_R   0.933280 0.500000 0.657760 -0.215099
N4    N     N_R   0.066720 0.500000 0.342240 -0.214594
C81   C     C_R   0.316593 0.998974 0.663103 0.113095
C82   C     C_R   0.683584 0.999037 0.337296 0.113237
C83   C     C_R   0.817471 0.496500 0.664401 0.111068
C84   C     C_R   0.181244 0.468946 0.342163 0.104218
C85   C     C_R   0.346597 0.001046 0.599921 0.285364
C86   C     C_R   0.653480 0.000485 0.400321 0.287423
C87   C     C_R   0.846760 0.499453 0.600482 0.286010
C88   C     C_R   0.151851 0.485517 0.402454 0.290833
C89   C     C_R   0.490382 0.999044 0.779402 0.070706
C90   C     C_R   0.509754 0.999233 0.220573 0.070679
C91   C     C_R   0.990845 0.500630 0.779004 0.070328
C92   C     C_R   0.011029 0.500670 0.220822 0.071106
C93   C     C_R   0.461780 0.986273 0.844785 -0.156434
C94   C     C_R   0.538427 0.986473 0.155377 -0.156614
C95   C     C_R   0.963742 0.487032 0.845962 -0.154526
C96   C     C_R   0.040666 0.487755 0.156902 -0.152812
C97   C     C_R   0.372884 0.981635 0.781798 0.097151
C98   C     C_R   0.627332 0.982050 0.218467 0.098140
C99   C     C_R   0.875052 0.480208 0.783655 0.096965
C100  C     C_R   0.129347 0.480093 0.221421 0.097537
C101  C     C_R   0.517297 0.979670 0.970711 0.094623
C102  C     C_R   0.482934 0.979629 0.029518 0.093970
C103  C     C_R   0.019970 0.482282 0.972343 0.103837
C104  C     C_R   0.985735 0.481414 0.031254 0.091484
C105  C     C_R   0.396661 0.963423 0.961959 -0.335446
C106  C     C_R   0.603601 0.963877 0.038428 -0.336165
C107  C     C_R   0.900311 0.463055 0.964862 -0.336283
C108  C     C_R   0.108446 0.475106 0.041770 -0.339165
C109  C     C_R   0.342992 0.960580 0.840361 0.001872
C110  C     C_R   0.657289 0.961271 0.160043 0.002405
C111  C     C_R   0.846480 0.458747 0.843542 0.003921
C112  C     C_R   0.162968 0.479868 0.162500 -0.004657
H25   H     H_    0.372235 0.946198 0.003387 0.163580
H26   H     H_    0.628043 0.946707 0.997184 0.163513
H27   H     H_    0.877032 0.445358 0.007582 0.162125
H28   H     H_    0.137799 0.463465 0.004891 0.164231
C113  C     C_3   0.439199 0.817605 0.267009 -0.815315
H29   H     H_    0.442264 0.774576 0.229880 0.239205
H30   H     H_    0.462036 0.856626 0.245329 0.248176
H31   H     H_    0.484756 0.811294 0.363516 0.212486
C114  C     C_3   0.545735 0.186248 0.710771 -0.837066
H32   H     H_    0.523697 0.147077 0.733216 0.224043
H33   H     H_    0.538253 0.229560 0.742698 0.241482
H34   H     H_    0.502362 0.190358 0.613918 0.216450
C115  C     C_3   0.558657 0.819349 0.735360 -0.813566
H35   H     H_    0.554629 0.776897 0.773193 0.237286
H36   H     H_    0.539534 0.859339 0.759974 0.249809
H37   H     H_    0.510807 0.813608 0.638848 0.215406
C116  C     C_3   0.461646 0.183881 0.291872 -0.830549
H38   H     H_    0.478255 0.143656 0.264517 0.223719
H39   H     H_    0.471990 0.226448 0.261018 0.241966
H40   H     H_    0.507348 0.186201 0.388983 0.219446
C117  C     C_3   0.941208 0.317303 0.268870 -0.824110
H41   H     H_    0.944749 0.274787 0.231046 0.239124
H42   H     H_    0.963507 0.356877 0.247506 0.248049
H43   H     H_    0.986552 0.310382 0.365122 0.208686
C118  C     C_3   0.045400 0.688999 0.702245 -0.834459
H44   H     H_    0.020580 0.650997 0.722830 0.222011
H45   H     H_    0.037221 0.733198 0.731177 0.246362
H46   H     H_    0.004856 0.692257 0.605555 0.219934
C119  C     C_3   0.067005 0.327538 0.757648 -0.799113
H47   H     H_    0.064557 0.286756 0.800439 0.231204
H48   H     H_    0.054092 0.369474 0.786233 0.253219
H49   H     H_    0.013957 0.321205 0.662340 0.216305
C120  C     C_3   0.955651 0.685561 0.287961 -0.819043
H50   H     H_    0.975786 0.646180 0.263684 0.223677
H51   H     H_    0.963567 0.728781 0.255904 0.242652
H52   H     H_    0.000421 0.689052 0.384991 0.224742
C121  C     C_2   0.277616 0.852079 0.403716 0.373454
H53   H     H_    0.336446 0.861982 0.490731 0.110980
O17   O     O_2   0.211420 0.850396 0.388978 -0.535536
C122  C     C_2   0.711240 0.155780 0.582662 0.364169
H54   H     H_    0.654367 0.139826 0.498700 0.106731
O18   O     O_2   0.775711 0.163554 0.594370 -0.555721
C123  C     C_2   0.710741 0.845800 0.582754 0.385218
H55   H     H_    0.651350 0.858036 0.497972 0.108067
O19   O     O_2   0.774458 0.840470 0.591957 -0.527547
C124  C     C_2   0.301230 0.161939 0.430819 0.365810
H56   H     H_    0.356473 0.142286 0.512052 0.103226
O20   O     O_2   0.238473 0.172743 0.421768 -0.532337
C125  C     C_2   0.782902 0.348758 0.410442 0.381211
H57   H     H_    0.841771 0.360319 0.496319 0.108516
O21   O     O_2   0.717683 0.345059 0.397931 -0.531497
C126  C     C_2   0.234423 0.639490 0.612612 0.365868
H58   H     H_    0.180647 0.627588 0.523155 0.110545
O22   O     O_2   0.306133 0.635489 0.643863 -0.538774
C127  C     C_2   0.187385 0.329852 0.561158 0.343749
H59   H     H_    0.129398 0.349793 0.484006 0.106214
O23   O     O_2   0.238496 0.309135 0.552085 -0.545374
C128  C     C_2   0.795401 0.658330 0.424592 0.371645
H60   H     H_    0.852857 0.642160 0.507719 0.104796
O24   O     O_2   0.732240 0.666831 0.415628 -0.550915
C129  C     C_2   0.260157 0.928219 0.780089 0.354059
H61   H     H_    0.230613 0.926484 0.820105 0.087493
O25   O     O_2   0.226693 0.900253 0.688966 -0.514178
C130  C     C_2   0.740264 0.929414 0.220518 0.346197
H62   H     H_    0.769973 0.928207 0.180717 0.089622
O26   O     O_2   0.773661 0.901272 0.311545 -0.513815
C131  C     C_2   0.764932 0.424840 0.785085 0.345821
H63   H     H_    0.735782 0.422754 0.825621 0.089621
O27   O     O_2   0.732163 0.396093 0.694921 -0.516999
C132  C     C_2   0.253816 0.493017 0.220410 0.369281
H64   H     H_    0.281897 0.474712 0.184050 0.083333
O28   O     O_2   0.296441 0.527360 0.304706 -0.517871
C133  C     C_2   0.421953 0.022190 0.156429 0.425098
H65   H     H_    0.401113 0.061797 0.099920 0.020932
O29   O     O_2   0.370007 0.994627 0.156802 -0.532271
C134  C     C_2   0.578210 0.022173 0.843195 0.426668
H66   H     H_    0.598951 0.062276 0.898443 0.022292
O30   O     O_2   0.630187 0.994374 0.843619 -0.534182
C135  C     C_2   0.923494 0.524361 0.155805 0.422231
H67   H     H_    0.902850 0.563107 0.097544 0.023246
O31   O     O_2   0.871398 0.497810 0.157151 -0.529405
C136  C     C_2   0.076759 0.526171 0.838796 0.426292
H68   H     H_    0.094820 0.568576 0.887526 0.026763
O32   O     O_2   0.130273 0.498162 0.842725 -0.538948
C137  C     C_3   0.721431 0.001954 0.532461 -0.750108
H69   H     H_    0.699820 0.999369 0.582552 0.269701
H70   H     H_    0.765289 0.962563 0.561493 0.240213
H71   H     H_    0.759817 0.044490 0.561269 0.227843
C138  C     C_3   0.278890 0.005285 0.468045 -0.746785
H72   H     H_    0.299930 0.998581 0.417834 0.269534
H73   H     H_    0.229719 0.969395 0.436502 0.240685
H74   H     H_    0.246876 0.050466 0.442400 0.226071
C139  C     C_3   0.219827 0.487984 0.534702 -0.734013
H75   H     H_    0.201110 0.506324 0.582722 0.265596
H76   H     H_    0.245921 0.441805 0.571615 0.215681
H77   H     H_    0.273191 0.517671 0.558218 0.235641
C140  C     C_3   0.778659 0.502738 0.468566 -0.749839
H78   H     H_    0.800070 0.498809 0.418339 0.269777
H79   H     H_    0.732134 0.464869 0.437799 0.240787
H80   H     H_    0.743460 0.546577 0.442191 0.228667
C141  C     C_3   0.227578 0.022818 0.606424 -0.771179
H81   H     H_    0.217689 0.068122 0.564968 0.233642
H82   H     H_    0.177986 0.990186 0.539071 0.273833
H83   H     H_    0.218184 0.031741 0.670776 0.220275
C142  C     C_3   0.772752 0.023130 0.394520 -0.769448
H84   H     H_    0.782188 0.068660 0.434852 0.232649
H85   H     H_    0.822138 0.990814 0.462839 0.273785
H86   H     H_    0.782870 0.031849 0.330803 0.220856
C143  C     C_3   0.727669 0.518483 0.607743 -0.760366
H87   H     H_    0.716018 0.563830 0.565548 0.232219
H88   H     H_    0.679241 0.485081 0.541021 0.274176
H89   H     H_    0.718116 0.526794 0.672073 0.221732
C144  C     C_3   0.262037 0.430371 0.404892 -0.769681
H90   H     H_    0.261001 0.392629 0.453847 0.254341
H91   H     H_    0.266913 0.406071 0.344043 0.215202
H92   H     H_    0.319818 0.458979 0.466779 0.270750

loop_
_geom_bond_atom_site_label_1
_geom_bond_atom_site_label_2
_geom_bond_distance
_ccdc_geom_bond_type
O16   Cu4   1.923147 S    
C109  C129  1.485697 S    
C123  H55   1.082959 S    
C18   C50   1.394387 A    
C47   C63   1.429825 A    
C113  H29   1.110211 S    
C17   C49   1.393965 A    
C18   C26   1.398765 A    
O2    C2    1.308030 A    
C44   C60   1.428106 A    
C114  H32   1.108140 S    
C54   C74   1.393008 A    
C65   C73   1.383740 A    
C135  H67   1.082034 S    
C53   C73   1.392890 A    
C96   C100  1.413170 A    
C99   C111  1.419117 A    
C130  H62   1.085817 S    
C68   C76   1.385596 A    
O4    Cu1   1.941698 S    
C118  H44   1.108170 S    
C93   C101  1.448091 A    
C5    C16   1.496090 S    
C43   C59   1.429520 A    
C117  H41   1.110225 S    
C39   C120  1.520993 S    
C25   C122  1.485261 S    
C95   C99   1.415421 A    
C6    C15   1.493246 S    
C10   C34   1.416480 A    
C28   C123  1.486223 S    
O11   C3    1.313126 A    
C138  H72   1.084425 S    
C62   C69   1.407402 A    
N3    C91   1.386053 A    
C38   C117  1.520527 S    
N3    C87   1.383126 A    
C106  C110  1.392744 A    
C60   C67   1.407339 A    
C83   C87   1.412098 A    
C127  O23   1.221404 D    
C105  C109  1.392830 A    
C52   C80   1.392703 A    
C141  H81   1.109741 S    
C18   H14   1.085257 S    
C133  O29   1.218599 D    
C124  O20   1.221711 D    
C82   C98   1.407770 A    
C117  H43   1.110430 S    
C11   C35   1.419106 A    
C17   H13   1.085252 S    
O11   Cu1   1.923149 S    
C13   C29   1.425839 A    
O6    C6    1.305557 A    
C144  H92   1.109669 S    
C45   C53   1.413980 A    
C134  H66   1.082328 S    
C42   C50   1.413249 A    
C15   C39   1.416484 A    
C140  H78   1.084401 S    
C100  C112  1.417795 A    
C121  O17   1.221605 D    
C91   C136  1.472585 S    
C94   C98   1.413474 A    
C66   C74   1.385346 A    
C125  O21   1.221635 D    
O5    Cu3   1.943484 S    
C82   C142  1.522563 S    
C91   C95   1.445634 A    
C38   C46   1.419603 A    
O6    Cu4   1.943483 S    
C30   C125  1.485562 S    
C41   C57   1.429938 A    
C40   C119  1.522871 S    
C116  H39   1.110604 S    
C102  C105  1.400642 A    
C35   C43   1.418237 A    
C70   H22   1.072729 S    
C136  O32   1.220015 D    
C103  C104  1.428739 A    
C36   C44   1.420127 A    
O13   Cu4   1.926845 S    
O3    C3    1.305177 A    
C139  H75   1.080688 S    
C144  H91   1.108083 S    
C64   C71   1.408238 A    
C111  C131  1.485799 S    
O14   Cu3   1.926844 S    
C68   H20   1.072582 S    
C142  H84   1.109871 S    
C86   C137  1.515962 S    
C37   C118  1.520166 S    
C16   C32   1.423201 A    
Cu4   N3    2.033003 S    
C33   C114  1.520296 S    
C77   H5    1.084435 S    
O15   C7    1.313426 A    
C24   C32   1.401074 A    
C95   C103  1.449412 A    
C80   H8    1.084476 S    
C113  H30   1.109078 S    
C101  C106  1.400525 A    
C11   C27   1.426458 A    
C143  H87   1.109651 S    
C69   H21   1.075640 S    
O1    Cu1   1.943484 S    
C12   C28   1.424695 A    
C72   C80   1.384899 A    
C82   C86   1.412981 A    
C33   C41   1.420297 A    
C60   C63   1.425092 A    
C81   C141  1.522691 S    
C21   C29   1.397961 A    
C59   C68   1.408772 A    
C75   H3    1.084427 S    
O9    Cu2   1.926845 S    
C125  H57   1.082550 S    
C4    C9    1.493915 S    
C115  H36   1.109038 S    
C31   C128  1.485191 S    
C23   C55   1.394277 A    
O10   C2    1.312683 A    
C87   C140  1.515199 S    
C138  H73   1.108436 S    
C55   C75   1.392865 A    
C84   C100  1.404230 A    
C88   C139  1.517761 S    
C108  C112  1.384463 A    
C69   C77   1.383668 A    
C135  O31   1.218923 D    
C90   C94   1.445856 A    
C117  H42   1.109147 S    
C73   H1    1.084462 S    
C141  H82   1.109611 S    
C143  H88   1.109737 S    
C124  H56   1.081496 S    
C122  H54   1.081591 S    
C118  H46   1.111510 S    
C34   C42   1.421311 A    
C107  H27   1.078141 S    
Cu1   Cu2   2.704885 S    
C115  H35   1.110317 S    
C107  C111  1.391189 A    
C92   C135  1.476350 S    
O7    Cu4   1.941700 S    
C105  H25   1.077085 S    
O12   Cu2   1.923147 S    
C12   C36   1.416986 A    
C140  H79   1.108266 S    
Cu2   N1    2.033003 S    
C48   C64   1.428904 A    
C119  H49   1.111575 S    
C132  O28   1.220973 D    
Cu1   N2    2.033002 S    
C67   H19   1.074902 S    
C129  H61   1.085794 S    
C63   C72   1.408584 A    
C46   C62   1.427653 A    
C123  O19   1.222199 D    
Cu3   N4    2.033002 S    
C39   C47   1.420206 A    
O15   Cu3   1.923149 S    
C131  H63   1.085787 S    
C83   C143  1.522919 S    
C104  C107  1.400893 A    
C84   C88   1.409688 A    
C116  H40   1.111187 S    
C37   C45   1.420495 A    
O12   C4    1.313618 A    
C141  H83   1.108320 S    
C120  H51   1.110426 S    
C144  H90   1.105523 S    
O13   C5    1.309113 A    
C66   H18   1.072831 S    
C103  C108  1.400106 A    
C89   C134  1.476503 S    
C83   C99   1.408863 A    
C24   C56   1.395022 A    
C142  H85   1.109896 S    
C108  H28   1.070837 S    
C22   C54   1.394606 A    
C22   C30   1.399506 A    
C81   C85   1.413550 A    
C61   C70   1.408897 A    
C24   H12   1.084950 S    
C58   C65   1.407233 A    
O9    C1    1.312833 A    
C21   H9    1.085506 S    
C131  O27   1.221074 D    
N4    C88   1.387669 A    
C43   C51   1.412844 A    
C57   C66   1.408991 A    
C120  H50   1.107743 S    
C113  H31   1.111612 S    
C19   H15   1.085303 S    
C137  H70   1.108703 S    
C15   C31   1.424601 A    
C1    C12   1.491536 S    
C114  H34   1.111326 S    
C112  C132  1.486274 S    
C143  H89   1.108083 S    
C65   H17   1.075265 S    
C47   C55   1.414439 A    
C19   C51   1.394930 A    
C34   C113  1.522034 S    
C17   C25   1.399292 A    
C139  H76   1.104731 S    
C85   C138  1.515235 S    
O10   Cu1   1.926844 S    
C19   C27   1.401688 A    
C133  H65   1.082328 S    
C115  H37   1.111622 S    
N1    C85   1.384625 A    
C119  H47   1.110332 S    
C20   C28   1.398990 A    
C76   H4    1.084486 S    
C89   C93   1.445607 A    
C67   C75   1.383887 A    
N2    C90   1.390800 A    
C7    C14   1.492812 S    
C13   C37   1.417380 A    
C20   C52   1.394605 A    
C27   C124  1.484776 S    
C136  H68   1.082226 S    
C81   C97   1.408183 A    
C42   C58   1.427822 A    
O3    Cu2   1.941700 S    
C92   C96   1.445345 A    
C126  O22   1.221436 D    
C26   C121  1.485519 S    
C96   C104  1.444972 A    
C130  O26   1.221109 D    
O2    Cu2   1.943483 S    
C20   H16   1.085248 S    
C14   C30   1.424982 A    
C98   C110  1.420786 A    
O4    C4    1.305797 A    
C93   C97   1.413332 A    
C48   C56   1.412570 A    
N1    C89   1.390568 A    
C79   H7    1.084494 S    
C97   C109  1.420745 A    
C36   C115  1.522123 S    
O1    C1    1.305503 A    
C8    C13   1.491717 S    
C78   H6    1.084484 S    
C10   C26   1.424337 A    
C128  O24   1.221745 D    
C140  H80   1.104798 S    
C35   C116  1.520524 S    
C94   C102  1.447989 A    
C139  H77   1.110011 S    
C72   H24   1.071858 S    
C22   H10   1.085242 S    
C132  H64   1.085933 S    
C129  O25   1.220995 D    
C71   C79   1.386190 A    
C101  C102  1.429527 A    
C56   C76   1.393673 A    
C120  H52   1.111777 S    
C58   C61   1.425681 A    
O14   C6    1.313477 A    
C128  H60   1.082119 S    
C59   C64   1.424400 A    
C9    C33   1.416924 A    
C57   C62   1.425154 A    
C23   C31   1.399272 A    
O7    C7    1.305502 A    
C84   C144  1.524957 S    
C29   C126  1.483231 S    
C110  C130  1.485775 S    
O8    C8    1.303507 A    
C134  O30   1.218721 D    
N4    C92   1.388103 A    
C41   C49   1.414314 A    
C44   C52   1.413179 A    
C127  H59   1.080135 S    
C51   C79   1.394570 A    
C121  H53   1.082648 S    
C142  H86   1.108079 S    
C138  H74   1.105058 S    
C118  H45   1.110325 S    
C40   C48   1.420616 A    
C21   C53   1.393066 A    
C23   H11   1.085243 S    
O5    C5    1.312000 A    
C126  H58   1.082429 S    
N2    C86   1.385056 A    
O16   C8    1.314272 A    
C116  H38   1.107531 S    
C32   C127  1.487181 S    
C137  H71   1.104355 S    
C9    C25   1.424936 A    
Cu3   Cu4   2.704885 S    
C14   C38   1.416599 A    
O8    Cu3   1.941698 S    
C16   C40   1.421154 A    
C45   C61   1.429851 A    
C90   C133  1.476767 S    
C71   H23   1.076661 S    
C2    C11   1.496908 S    
C119  H48   1.108880 S    
C137  H69   1.083590 S    
C3    C10   1.491618 S    
C70   C78   1.384984 A    
C122  O18   1.221820 D    
C106  H26   1.076801 S    
C50   C78   1.393065 A    
C74   H2    1.084434 S    
C49   C77   1.392907 A    
C114  H33   1.110326 S    
C46   C54   1.412633 A    
