data_mof_unit_25803.cif
_audit_creation_date              2012-12-10T17:19:02-0500
_audit_creation_method            fapswitch 2.2
_symmetry_space_group_name_H-M    P1
_symmetry_Int_Tables_number       1
_space_group_crystal_system       triclinic
_cell_length_a                    10.43883
_cell_length_b                    10.518399
_cell_length_c                    13.825985
_cell_angle_alpha                 94.736397
_cell_angle_beta                  101.991615
_cell_angle_gamma                 93.131321
_cell_volume                      1475.87408661

loop_
_atom_site_label
_atom_site_type_symbol
_atom_type_description
_atom_site_fract_x
_atom_site_fract_y
_atom_site_fract_z
_atom_type_partial_charge
C1    C     C_R   0.044709 0.732499 0.486168 0.811758
C2    C     C_2   0.936217 0.057396 0.419562 0.186518
C3    C     C_2   0.429725 0.518744 0.502935 0.294189
C4    C     C_2   0.568554 0.491000 0.487089 0.339095
C5    C     C_R   0.094475 0.514772 0.685511 0.881060
C6    C     C_R   0.904991 0.484526 0.314697 0.857571
C7    C     C_R   0.143213 0.516378 0.793174 -0.174669
C8    C     C_R   0.848020 0.456202 0.208475 -0.155444
C9    C     C_R   0.109461 0.518865 0.961912 -0.204086
C10   C     C_R   0.836707 0.331136 0.051266 -0.200319
C11   C     C_R   0.058192 0.517888 0.859854 -0.307405
C12   C     C_R   0.950957 0.266975 0.506530 0.767240
C13   C     C_R   0.901821 0.368455 0.149105 -0.321649
C14   C     C_R   0.277755 0.512018 0.830174 0.484739
C15   C     C_R   0.727232 0.503106 0.169558 0.484267
C16   C     C_R   0.322512 0.478921 0.926351 -0.058622
C17   C     C_R   0.648401 0.442285 0.081502 -0.065907
C18   C     C_R   0.243940 0.502485 0.996734 0.084144
C19   C     C_R   0.709066 0.368406 0.015666 0.087813
C20   C     C_R   0.450235 0.439669 0.955293 0.016914
C21   C     C_R   0.513083 0.460481 0.055343 0.003170
C22   C     C_3   0.231844 0.557620 0.177604 -0.850243
C23   C     C_R   0.438712 0.496554 0.126480 -0.139307
C24   C     C_3   0.701641 0.262597 0.841446 -0.968495
C25   C     C_3   0.707909 0.715466 0.157784 -0.377906
C26   C     C_3   0.397801 0.693123 0.817459 -0.355245
C27   C     C_3   0.929926 0.107907 0.319410 -1.036235
C28   C     C_3   0.799427 0.851948 0.396890 -0.816086
C29   C     C_3   0.921528 0.149386 0.673158 -0.313889
C30   C     C_3   0.233610 0.909592 0.399966 -0.356237
C31   C     C_3   0.578684 0.375825 0.416439 -0.807574
C32   C     C_3   0.420990 0.627081 0.578587 -0.754078
C33   C     C_3   0.753071 0.698790 0.667645 -0.136234
C34   C     C_R   0.514187 0.376687 0.886572 -0.147852
C35   C     C_3   0.251670 0.268300 0.361459 -0.148871
C36   C     C_R   0.304451 0.514863 0.098575 0.143370
C37   C     C_R   0.640592 0.335682 0.916654 0.182759
C38   C     C_2   0.049363 0.864376 0.457767 0.342155
C39   C     C_2   0.926832 0.128790 0.503410 0.384227
C40   C     C_2   0.935331 0.919576 0.421967 0.102974
H1    H     H_    0.993270 0.327840 0.178221 0.174888
H2    H     H_    0.635096 0.248804 0.766842 0.248286
H3    H     H_    0.793428 0.315952 0.834256 0.238638
H4    H     H_    0.724257 0.166645 0.865370 0.240549
H5    H     H_    0.656402 0.695481 0.078530 0.172135
H6    H     H_    0.814315 0.740112 0.163046 0.165492
H7    H     H_    0.665170 0.800498 0.187467 0.197568
H8    H     H_    0.432758 0.705427 0.899703 0.166964
H9    H     H_    0.311628 0.750078 0.794966 0.173794
H10   H     H_    0.479110 0.733560 0.786528 0.184412
H11   H     H_    0.844718 0.058975 0.264865 0.253025
H12   H     H_    0.953641 0.523795 0.833885 0.175781
H13   H     H_    0.917063 0.211628 0.320306 0.235122
H14   H     H_    0.019939 0.086837 0.292375 0.243385
H15   H     H_    0.728662 0.907488 0.349055 0.215368
H16   H     H_    0.801316 0.757413 0.356860 0.289926
H17   H     H_    0.762545 0.841949 0.465744 0.305900
H18   H     H_    0.841550 0.215687 0.666307 0.187857
H19   H     H_    0.019822 0.202825 0.692799 0.153987
H20   H     H_    0.913080 0.091273 0.735242 0.189365
H21   H     H_    0.269140 0.811977 0.400734 0.198659
H22   H     H_    0.321047 0.978176 0.410499 0.190674
H23   H     H_    0.043483 0.530355 0.012381 0.175356
H24   H     H_    0.170544 0.921060 0.326138 0.147168
H25   H     H_    0.676310 0.355737 0.408360 0.266060
H26   H     H_    0.530911 0.391604 0.339684 0.245805
H27   H     H_    0.534682 0.288292 0.440157 0.217472
H28   H     H_    0.490156 0.613209 0.648344 0.255525
H29   H     H_    0.443649 0.719845 0.550684 0.241637
H30   H     H_    0.326316 0.635146 0.597710 0.293086
H31   H     H_    0.852623 0.731952 0.660183 0.205738
H32   H     H_    0.756347 0.614472 0.711714 0.131386
H33   H     H_    0.716477 0.777468 0.710560 0.128297
H34   H     H_    0.884734 0.269309 0.005707 0.168277
H35   H     H_    0.146845 0.279589 0.332657 0.200263
H36   H     H_    0.267833 0.221358 0.431930 0.177909
H37   H     H_    0.284960 0.203751 0.305542 0.121561
H38   H     H_    0.482939 0.505376 0.204687 0.200226
H39   H     H_    0.462743 0.352852 0.810143 0.180246
H40   H     H_    0.298061 0.575296 0.252144 0.268438
H41   H     H_    0.186336 0.648345 0.160408 0.217039
H42   H     H_    0.154921 0.483055 0.181226 0.256213
N1    N     N_2   0.322180 0.446120 0.460900 0.077093
N2    N     N_2   0.677820 0.553880 0.539100 0.075617
O1    O     O_R   0.935190 0.693030 0.507870 -0.605084
O2    O     O_3   0.367236 0.562935 0.780158 -0.622552
O3    O     O_3   0.907673 0.066188 0.585579 -0.625254
O4    O     O_3   0.168457 0.936853 0.478167 -0.610667
O5    O     O_3   0.667483 0.675327 0.573971 -0.575715
O6    O     O_3   0.323064 0.387018 0.371024 -0.585235
O7    O     O_R   0.064810 0.306970 0.492130 -0.616427
O8    O     O_R   0.142080 0.658430 0.482770 -0.617107
O9    O     O_R   0.857920 0.341570 0.517230 -0.639039
O10   O     O_R   0.969700 0.527180 0.651960 -0.635596
O11   O     O_R   0.030300 0.472820 0.348040 -0.609699
O12   O     O_R   0.176600 0.492580 0.626860 -0.576922
O13   O     O_R   0.823400 0.507420 0.373140 -0.582156
O14   O     O_3   0.689976 0.613028 0.215000 -0.622440
Zn1   Zn    Zn3+2 0.861850 0.523100 0.516760 0.952562
Zn2   Zn    Zn3+2 0.138150 0.476900 0.483240 0.961532

loop_
_geom_bond_atom_site_label_1
_geom_bond_atom_site_label_2
_ccdc_geom_bond_type
C31   H26   S    
C8    C13   A    
C30   H24   S    
C34   C37   A    
C24   H2    S    
C12   O7    A    
C39   O3    S    
C13   H1    S    
C5    O10   A    
C28   H16   S    
C27   H14   S    
C28   H17   S    
C31   H27   S    
C35   H35   S    
C22   H42   S    
C26   H10   S    
C28   C40   S    
C31   H25   S    
C11   H12   S    
C19   C37   A    
C33   H32   S    
C2    C39   D    
C7    C14   A    
C29   H19   S    
C2    C27   S    
O7    Zn2   S    
C25   H7    S    
C26   H8    S    
C32   H28   S    
C20   C34   A    
O13   Zn1   S    
C28   H15   S    
C27   H11   S    
C1    O1    A    
C35   H36   S    
C22   H41   S    
C14   O2    S    
C26   H9    S    
C5    C7    S    
O11   Zn2   S    
C32   H30   S    
C26   O2    S    
C35   H37   S    
C17   C21   A    
C38   O4    S    
C7    C11   A    
C6    O13   A    
O1    Zn1   S    
C33   O5    S    
C34   H39   S    
C25   O14   S    
C4    N2    D    
C29   H20   S    
C10   C19   A    
C16   C20   A    
C24   C37   S    
C29   H18   S    
C9    C11   A    
C1    C38   S    
C33   H33   S    
C23   C36   A    
C1    O8    A    
N1    Zn2   S    
C30   H22   S    
C3    N1    D    
C24   H4    S    
C14   C16   A    
C12   O9    A    
N2    O5    S    
C15   O14   S    
C30   O4    S    
C3    C4    S    
C25   H5    S    
C5    O12   A    
O8    Zn2   S    
C15   C17   A    
N1    O6    S    
O9    Zn1   S    
C9    H23   S    
N2    Zn1   S    
C10   C13   A    
C6    C8    S    
C27   H13   S    
C32   H29   S    
C8    C15   A    
C22   C36   S    
C12   C39   S    
C21   C23   A    
C22   H40   S    
C38   C40   D    
C10   H34   S    
O10   Zn1   S    
O12   Zn2   S    
C17   C19   A    
C23   H38   S    
C3    C32   S    
C29   O3    S    
C4    C31   S    
C33   H31   S    
C35   O6    S    
C2    C40   S    
C9    C18   A    
C20   C21   A    
C16   C18   A    
C6    O11   A    
C30   H21   S    
C24   H3    S    
C18   C36   A    
C25   H6    S    
