data_mof_unit_22155.cif
_audit_creation_date              2012-12-11T14:52:50-0500
_audit_creation_method            fapswitch 2.2
_symmetry_space_group_name_H-M    P1
_symmetry_Int_Tables_number       1
_space_group_crystal_system       triclinic
_cell_length_a                    20.656311
_cell_length_b                    7.259671
_cell_length_c                    20.291549
_cell_angle_alpha                 90.949157
_cell_angle_beta                  101.654397
_cell_angle_gamma                 91.150646
_cell_volume                      2978.8864637

loop_
_atom_site_label
_atom_site_type_symbol
_atom_type_description
_atom_site_fract_x
_atom_site_fract_y
_atom_site_fract_z
_atom_type_partial_charge
O1    O     O_R   0.673670 0.377510 0.185950 -0.509515
O2    O     O_R   0.326330 0.622490 0.814050 -0.518220
O3    O     O_R   0.826330 0.877510 0.314050 -0.547154
O4    O     O_R   0.173670 0.122490 0.685950 -0.537415
O5    O     O_R   0.806260 0.705340 0.185590 -0.539110
O6    O     O_R   0.193740 0.294660 0.814410 -0.537645
O7    O     O_R   0.693740 0.205340 0.314410 -0.532851
O8    O     O_R   0.306260 0.794660 0.685590 -0.526992
C1    C     C_R   0.825498 0.539135 0.170863 0.705243
C2    C     C_R   0.174371 0.460897 0.828975 0.731242
C3    C     C_R   0.674362 0.038833 0.329031 0.732733
C4    C     C_R   0.325250 0.961240 0.670565 0.705666
O9    O     O_R   0.672940 0.707120 0.178050 -0.541300
O10   O     O_R   0.327060 0.292880 0.821950 -0.554308
O11   O     O_R   0.827060 0.207120 0.321950 -0.526663
O12   O     O_R   0.172940 0.792880 0.678050 -0.512662
O13   O     O_R   0.692060 0.879040 0.306460 -0.537905
O14   O     O_R   0.307940 0.120960 0.693540 -0.544219
O15   O     O_R   0.807940 0.379040 0.193540 -0.527012
O16   O     O_R   0.192060 0.620960 0.806460 -0.532466
C5    C     C_R   0.648484 0.535400 0.161754 0.747710
C6    C     C_R   0.351763 0.464748 0.838219 0.749544
C7    C     C_R   0.851377 0.041711 0.339089 0.758685
C8    C     C_R   0.148776 0.958455 0.660878 0.753316
O17   O     O_3   0.756430 0.544390 0.292140 -0.387818
O18   O     O_3   0.243570 0.455610 0.707860 -0.372895
O19   O     O_3   0.743570 0.044390 0.207860 -0.372233
O20   O     O_3   0.256430 0.955610 0.792140 -0.387937
V1    V     V_3+5 0.748810 0.818610 0.242180 1.422206
V2    V     V_3+5 0.251190 0.181390 0.757820 1.392650
V3    V     V_3+5 0.751190 0.318610 0.257820 1.466989
V4    V     V_3+5 0.248810 0.681390 0.742180 1.477980
C9    C     C_R   0.087389 0.956359 0.607467 -0.220456
C10   C     C_R   0.912897 0.044473 0.392603 -0.219032
C11   C     C_R   0.413923 0.490091 0.890231 -0.219374
C12   C     C_R   0.586843 0.510273 0.109577 -0.226940
C13   C     C_R   0.021544 0.180968 0.443265 0.379121
C14   C     C_R   0.980626 0.811383 0.554890 0.403211
C15   C     C_R   0.487450 0.323596 0.062173 0.407747
C16   C     C_R   0.517179 0.663419 0.935478 0.376987
C17   C     C_R   0.963596 0.177980 0.392081 0.354290
C18   C     C_R   0.035541 0.827907 0.609338 0.375900
C19   C     C_R   0.539605 0.371478 0.116491 0.372411
C20   C     C_R   0.459866 0.634198 0.884619 0.355879
C21   C     C_R   0.919637 0.921149 0.446171 -0.280629
C22   C     C_R   0.081608 0.075491 0.552863 -0.260425
C23   C     C_R   0.578309 0.608196 0.049701 -0.278861
C24   C     C_R   0.424537 0.384479 0.948591 -0.281197
C25   C     C_R   0.975123 0.931817 0.500081 -0.056643
C26   C     C_R   0.026154 0.064194 0.498980 -0.064141
C27   C     C_R   0.524683 0.566579 0.995958 -0.060222
C28   C     C_R   0.478606 0.424060 0.002203 -0.058653
H1    H     H_    0.121410 0.174270 0.551880 0.190165
H2    H     H_    0.880361 0.820214 0.446561 0.185373
H3    H     H_    0.388727 0.276894 0.953287 0.184564
H4    H     H_    0.614772 0.713506 0.044536 0.191065
C29   C     C_3   0.556636 0.086007 0.533278 0.290675
C30   C     C_3   0.444266 0.924854 0.467453 0.319835
C31   C     C_3   0.942547 0.577916 0.965504 0.291308
C32   C     C_3   0.054545 0.433878 0.031405 0.318013
C33   C     C_3   0.525868 0.903759 0.554076 0.307861
C34   C     C_3   0.475090 0.105701 0.446921 0.321200
C35   C     C_3   0.972902 0.396446 0.944797 0.306772
C36   C     C_3   0.024148 0.613875 0.051835 0.322215
C37   C     C_1   0.370706 0.968712 0.624920 -0.188610
C38   C     C_1   0.628923 0.032076 0.374700 -0.196098
C39   C     C_1   0.128649 0.467996 0.874362 -0.202496
C40   C     C_1   0.870594 0.532802 0.124766 -0.175601
C41   C     C_3   0.488121 0.176423 0.520756 0.277059
C42   C     C_3   0.512612 0.834505 0.480045 0.303397
C43   C     C_3   0.011299 0.675985 0.977969 0.277827
C44   C     C_3   0.985984 0.335844 0.018860 0.304711
C45   C     C_3   0.456957 0.994210 0.541928 -0.228393
C46   C     C_3   0.543639 0.015529 0.458847 -0.219016
C47   C     C_3   0.042046 0.494539 0.956906 -0.226519
C48   C     C_3   0.955355 0.516084 0.039991 -0.222740
C49   C     C_1   0.409315 0.976940 0.587230 0.088686
C50   C     C_1   0.590571 0.026817 0.412696 0.099887
C51   C     C_1   0.089833 0.476683 0.911812 0.085087
C52   C     C_1   0.908639 0.527443 0.086420 0.111292
O21   O     O_3   0.039432 0.712404 0.663469 -0.547254
C53   C     C_3   0.009525 0.798704 0.712059 -0.219558
H5    H     H_    0.956431 0.825280 0.691627 0.154579
H6    H     H_    0.036303 0.929119 0.731762 0.115888
H7    H     H_    0.011865 0.704939 0.755057 0.152047
O22   O     O_3   0.959366 0.292107 0.337339 -0.552275
C54   C     C_3   0.947120 0.473841 0.356660 -0.131951
H8    H     H_    0.992826 0.542373 0.385640 0.160175
H9    H     H_    0.906842 0.479365 0.385763 0.111686
H10   H     H_    0.930904 0.554326 0.310488 0.144183
O23   O     O_3   0.450995 0.737642 0.826776 -0.552447
C55   C     C_3   0.435161 0.919841 0.842230 -0.111667
H11   H     H_    0.479498 0.999558 0.868588 0.153124
H12   H     H_    0.395681 0.924015 0.872373 0.111113
H13   H     H_    0.416456 0.990853 0.794510 0.136028
O24   O     O_3   0.546435 0.272189 0.175014 -0.545785
C56   C     C_3   0.515541 0.368491 0.220619 -0.174015
H14   H     H_    0.461743 0.383045 0.199985 0.147012
H15   H     H_    0.539557 0.506207 0.234489 0.104155
H16   H     H_    0.520670 0.288536 0.267452 0.184691
O25   O     O_3   0.072550 0.304764 0.440084 -0.559321
C57   C     C_3   0.114212 0.223676 0.401226 -0.234603
H17   H     H_    0.087754 0.196998 0.348374 0.167459
H18   H     H_    0.135491 0.094020 0.423903 0.130808
H19   H     H_    0.155988 0.321025 0.399890 0.157020
O26   O     O_3   0.930075 0.684606 0.556987 -0.556668
C58   C     C_3   0.951256 0.506098 0.544370 -0.209090
H20   H     H_    0.980846 0.448179 0.590899 0.192289
H21   H     H_    0.980050 0.502916 0.503603 0.125127
H22   H     H_    0.907044 0.414720 0.527940 0.145580
O27   O     O_3   0.443298 0.183224 0.069457 -0.550501
C59   C     C_3   0.468664 0.014952 0.051340 -0.200284
H23   H     H_    0.515919 0.983036 0.086010 0.173180
H24   H     H_    0.475711 0.015337 0.998398 0.127277
H25   H     H_    0.432528 0.902490 0.055135 0.154102
O28   O     O_3   0.564317 0.794414 0.927249 -0.562580
C60   C     C_3   0.608131 0.712244 0.891119 -0.239623
H26   H     H_    0.582319 0.668328 0.839527 0.167683
H27   H     H_    0.633289 0.593283 0.918420 0.131286
H28   H     H_    0.646918 0.815718 0.885874 0.158704
O29   O     O_3   0.547393 0.791179 0.610252 -0.534543
C61   C     C_3   0.617005 0.796905 0.630116 -0.181217
H29   H     H_    0.633148 0.906661 0.668717 0.148847
H30   H     H_    0.643100 0.813270 0.587584 0.136154
H31   H     H_    0.633325 0.666718 0.655050 0.118790
O30   O     O_3   0.451809 0.206311 0.388228 -0.544285
C62   C     C_3   0.393294 0.296593 0.393587 -0.186592
H32   H     H_    0.405053 0.424951 0.424402 0.226221
H33   H     H_    0.358054 0.207371 0.414282 0.129189
H34   H     H_    0.367995 0.336809 0.342506 0.128028
O31   O     O_3   0.951017 0.276295 0.888670 -0.538047
C63   C     C_3   0.881373 0.272755 0.869141 -0.194785
H35   H     H_    0.865213 0.376331 0.830243 0.153067
H36   H     H_    0.855499 0.291786 0.911755 0.134094
H37   H     H_    0.864776 0.137857 0.844787 0.120079
O32   O     O_3   0.047827 0.722686 0.110415 -0.536349
C64   C     C_3   0.106454 0.818159 0.104749 -0.162354
H38   H     H_    0.094796 0.942615 0.074064 0.222762
H39   H     H_    0.141330 0.730471 0.083742 0.126955
H40   H     H_    0.132145 0.865459 0.155760 0.128120
O33   O     O_3   0.617311 0.169064 0.565919 -0.549031
C65   C     C_3   0.610041 0.253902 0.627052 -0.224140
H41   H     H_    0.578313 0.172774 0.654832 0.140445
H42   H     H_    0.588671 0.391296 0.617772 0.197691
H43   H     H_    0.659608 0.272520 0.660086 0.133121
O34   O     O_3   0.383728 0.837147 0.436848 -0.543840
C66   C     C_3   0.381744 0.804745 0.367763 -0.198551
H44   H     H_    0.426966 0.738227 0.358012 0.173976
H45   H     H_    0.373209 0.934145 0.339381 0.162949
H46   H     H_    0.339357 0.709701 0.347792 0.130311
O35   O     O_3   0.882143 0.652172 0.932670 -0.550951
C67   C     C_3   0.889736 0.730840 0.871398 -0.236606
H47   H     H_    0.921153 0.649171 0.843748 0.137592
H48   H     H_    0.911598 0.871123 0.880426 0.199211
H49   H     H_    0.840228 0.741674 0.838328 0.132331
O36   O     O_3   0.114874 0.354947 0.062094 -0.542321
C68   C     C_3   0.116794 0.329954 0.131209 -0.186548
H50   H     H_    0.071398 0.260286 0.141025 0.179870
H51   H     H_    0.125677 0.463114 0.159459 0.160263
H52   H     H_    0.158949 0.240908 0.151274 0.130302
O37   O     O_3   0.518327 0.655073 0.454035 -0.525884
C69   C     C_3   0.583981 0.596100 0.470564 -0.060271
H53   H     H_    0.595779 0.551234 0.523235 0.176741
H54   H     H_    0.620719 0.701577 0.461819 0.077875
H55   H     H_    0.588738 0.474228 0.438323 0.162456
O38   O     O_3   0.481791 0.364405 0.537294 -0.524053
C70   C     C_3   0.428834 0.389987 0.570072 -0.130460
H56   H     H_    0.440793 0.335269 0.621812 0.125724
H57   H     H_    0.381894 0.328403 0.540600 0.104026
H58   H     H_    0.421386 0.540131 0.574868 0.192238
O39   O     O_3   0.979854 0.158379 0.044888 -0.522942
C71   C     C_3   0.914139 0.091047 0.027886 -0.048017
H59   H     H_    0.902919 0.038052 0.975426 0.173785
H60   H     H_    0.877373 0.194251 0.035659 0.072473
H61   H     H_    0.908777 0.972990 0.060543 0.165157
O40   O     O_3   0.018059 0.863041 0.961467 -0.523118
C72   C     C_3   0.070571 0.890065 0.927957 -0.142200
H62   H     H_    0.058121 0.827809 0.876468 0.113871
H63   H     H_    0.117648 0.836853 0.957228 0.110830
H64   H     H_    0.078041 0.040351 0.922522 0.189846

loop_
_geom_bond_atom_site_label_1
_geom_bond_atom_site_label_2
_ccdc_geom_bond_type
C33   C42   S    
C40   C52   T    
C24   H3    S    
C43   C47   S    
C54   H8    S    
C36   O32   S    
O1    C5    A    
C68   H50   S    
O19   V1    S    
O13   V1    S    
O3    C7    A    
O27   C59   S    
C44   C48   S    
O15   V3    S    
C59   H24   S    
O37   C69   S    
C70   H57   S    
C5    C12   S    
C2    C39   S    
C43   O40   S    
O7    C3    A    
C6    C11   S    
C64   H39   S    
O5    C1    A    
O25   C57   S    
C12   C23   A    
C9    C18   A    
O2    V4    S    
O36   C68   S    
C66   H45   S    
C14   C18   A    
C60   H27   S    
O4    C8    A    
O26   C58   S    
C32   C44   S    
O1    V3    S    
O28   C60   S    
C57   H19   S    
C33   O29   S    
C36   C43   S    
O3    V1    S    
C41   O38   S    
C1    O15   A    
C66   H44   S    
C2    O16   A    
C63   H35   S    
C72   H63   S    
C42   C46   S    
C58   H20   S    
C41   C45   S    
O14   V2    S    
C35   O31   S    
C16   C20   A    
C69   H54   S    
C3    C38   S    
C7    C10   S    
O11   C7    A    
C15   C28   A    
O35   C67   S    
O12   C8    A    
C9    C22   A    
C58   H21   S    
C65   H43   S    
C10   C17   A    
C62   H33   S    
O10   V2    S    
C18   O21   S    
C11   C24   A    
C59   H23   S    
C56   H15   S    
C71   H60   S    
C56   H14   S    
C70   H58   S    
O5    V1    S    
C38   C50   T    
C64   H40   S    
O7    V3    S    
C27   C28   A    
O8    V4    S    
C44   O39   S    
C63   H37   S    
C66   H46   S    
C37   C49   T    
C60   H28   S    
O23   C55   S    
C14   C25   A    
O18   V4    S    
C30   C42   S    
C15   C19   A    
C33   C45   S    
O11   V3    S    
C55   H13   S    
O21   C53   S    
C34   C41   S    
C29   C46   S    
C14   O26   S    
C32   O36   S    
O2    C6    A    
C17   O22   S    
C69   H55   S    
C4    C37   S    
C67   H49   S    
C21   C25   A    
O8    C4    A    
C72   H64   S    
O24   C56   S    
C55   H12   S    
C19   O24   S    
C36   C48   S    
O9    C5    A    
C10   C21   A    
C67   H47   S    
C57   H18   S    
C11   C20   A    
O39   C71   S    
O29   C61   S    
C20   O23   S    
C30   C34   S    
C72   H62   S    
O40   C72   S    
O6    V2    S    
C67   H48   S    
C21   H2    S    
C53   H5    S    
C68   H52   S    
C53   H6    S    
C54   H9    S    
O38   C70   S    
C58   H22   S    
C65   H42   S    
C68   H51   S    
O12   V4    S    
C61   H30   S    
C62   H32   S    
C16   C27   A    
C42   O37   S    
C70   H56   S    
C56   H16   S    
C71   H59   S    
C34   O30   S    
O34   C66   S    
O16   V4    S    
O9    V1    S    
C3    O13   A    
O22   C54   S    
O17   V3    S    
C48   C52   S    
O32   C64   S    
O6    C2    A    
C23   C27   A    
C71   H61   S    
C29   C33   S    
C31   O35   S    
C69   H53   S    
C53   H7    S    
C64   H38   S    
C22   C26   A    
C32   C47   S    
C31   C35   S    
C8    C9    S    
C29   O33   S    
C30   O34   S    
C32   C36   S    
O10   C6    A    
C61   H31   S    
O20   V2    S    
C62   H34   S    
O33   C65   S    
C13   O25   S    
C13   C26   A    
C16   O28   S    
C35   C47   S    
O30   C62   S    
C22   H1    S    
C15   O27   S    
C55   H11   S    
C59   H25   S    
C13   C17   A    
C57   H17   S    
C1    C40   S    
C24   C28   A    
C35   C44   S    
C63   H36   S    
C25   C26   A    
C46   C50   S    
C54   H10   S    
C4    O14   A    
C45   C49   S    
C65   H41   S    
C34   C46   S    
C12   C19   A    
C29   C41   S    
C61   H29   S    
C60   H26   S    
C47   C51   S    
C31   C48   S    
C39   C51   T    
O4    V2    S    
O31   C63   S    
C30   C45   S    
C31   C43   S    
C23   H4    S    
