data_mof_unit_41059.cif
_audit_creation_date              2012-10-26T20:05:04-0400
_audit_creation_method            fapswitch 2.2
_symmetry_space_group_name_H-M    P1
_symmetry_Int_Tables_number       1
_space_group_crystal_system       triclinic
_cell_length_a                    15.858232
_cell_length_b                    14.999703
_cell_length_c                    13.800048
_cell_angle_alpha                 91.52963
_cell_angle_beta                  90.300275
_cell_angle_gamma                 89.29045
_cell_volume                      3281.13949299

loop_
_atom_site_label
_atom_site_type_symbol
_atom_type_description
_atom_site_fract_x
_atom_site_fract_y
_atom_site_fract_z
_atom_type_partial_charge
C1    C     C_R   0.500043 0.329418 0.498914 0.535943
C2    C     C_R   0.499277 0.047130 0.498509 -0.090745
C3    C     C_R   0.422523 0.905959 0.492305 0.019905
C4    C     C_R   0.576988 0.093623 0.505932 0.029667
C5    C     C_R   0.654556 0.952360 0.512597 0.121455
C6    C     C_R   0.344764 0.046436 0.479966 0.115777
C7    C     C_R   0.653428 0.045452 0.518489 0.273056
C8    C     C_R   0.346277 0.953551 0.477623 0.317188
C9    C     C_R   0.553964 0.442814 0.790408 0.206528
C10   C     C_R   0.443498 0.552247 0.207252 0.200353
C11   C     C_R   0.447208 0.555718 0.797176 0.406016
C12   C     C_R   0.500138 0.670520 0.501056 0.528506
C13   C     C_R   0.549060 0.438783 0.205889 0.423930
C14   C     C_R   0.435942 0.543516 0.898204 -0.016350
C15   C     C_R   0.554707 0.440997 0.102603 -0.021170
C16   C     C_R   0.340086 0.499550 0.499654 0.528299
C17   C     C_R   0.659881 0.499939 0.500270 0.534644
C18   C     C_R   0.493949 0.489245 0.947940 -0.101257
C19   C     C_R   0.493611 0.489900 0.051537 -0.103029
C20   C     C_R   0.553400 0.436566 0.894518 -0.034992
C21   C     C_R   0.432856 0.540709 0.104397 -0.042913
C22   C     C_R   0.368058 0.583796 0.950602 0.109855
C23   C     C_R   0.500212 0.766586 0.503040 -0.021870
C24   C     C_R   0.617636 0.393616 0.049805 0.109041
C25   C     C_R   0.363745 0.577416 0.052442 0.256775
C26   C     C_R   0.611035 0.382254 0.947920 0.263554
C27   C     C_3   0.971125 0.444860 0.567027 0.076274
C28   C     C_3   0.028450 0.556783 0.436500 0.035157
C29   C     C_3   0.028094 0.418463 0.480763 0.246299
C30   C     C_3   0.971099 0.582630 0.523535 0.276074
C31   C     C_1   0.250816 0.498741 0.498904 -0.035635
C32   C     C_1   0.749082 0.500288 0.500914 -0.018013
C33   C     C_3   0.026267 0.525963 0.591735 0.265761
C34   C     C_R   0.499630 0.233244 0.496687 -0.003743
C35   C     C_3   0.972816 0.475231 0.412031 0.236717
C36   C     C_3   0.084149 0.500243 0.504560 -0.023950
C37   C     C_3   0.915616 0.500763 0.499626 0.000898
C38   C     C_1   0.175498 0.498707 0.500084 -0.021671
C39   C     C_1   0.824352 0.500643 0.500781 0.000497
C40   C     C_R   0.423227 0.812444 0.498735 0.061295
C41   C     C_R   0.576532 0.187130 0.499906 0.055126
C42   C     C_3   0.002542 0.273012 0.427733 0.034031
C43   C     C_3   0.027546 0.178228 0.455218 -0.279409
C44   C     C_3   0.966128 0.109873 0.412706 -0.488670
C45   C     C_R   0.577255 0.810796 0.506308 0.075933
C46   C     C_3   0.998019 0.727820 0.574753 0.033862
C47   C     C_3   0.965271 0.823324 0.564033 -0.272398
C48   C     C_3   0.029811 0.891290 0.600272 -0.490292
C49   C     C_3   0.245413 0.536529 0.136372 -0.003203
C50   C     C_3   0.185910 0.495148 0.060481 -0.278558
C51   C     C_3   0.131645 0.423377 0.104370 -0.474891
C52   C     C_3   0.622185 0.239837 0.882091 -0.005773
C53   C     C_3   0.644410 0.168621 0.955619 -0.267535
C54   C     C_3   0.614828 0.076611 0.920820 -0.485443
C55   C     C_3   0.923755 0.499352 0.252805 0.005203
C56   C     C_R   0.422300 0.189298 0.493921 0.057662
C57   C     C_3   0.843667 0.554481 0.274817 -0.266847
C58   C     C_3   0.817336 0.609958 0.188433 -0.474394
C59   C     C_3   0.124400 0.532768 0.720106 0.013321
C60   C     C_3   0.139804 0.432220 0.732619 -0.272107
C61   C     C_3   0.230340 0.412434 0.764018 -0.472424
C62   C     C_3   0.741632 0.106457 0.632089 0.018290
C63   C     C_3   0.829358 0.145374 0.647623 -0.262767
C64   C     C_3   0.842418 0.178076 0.752200 -0.481459
C65   C     C_3   0.258779 0.891725 0.363661 0.026659
C66   C     C_3   0.181255 0.833053 0.349393 -0.253937
C67   C     C_R   0.578071 0.904897 0.505949 0.043080
C68   C     C_3   0.170376 0.803517 0.243420 -0.482533
C69   C     C_3   0.465346 0.702903 0.761978 0.040510
C70   C     C_3   0.449223 0.762630 0.851997 -0.287675
C71   C     C_3   0.504268 0.845501 0.851403 -0.492930
C72   C     C_3   0.552008 0.285542 0.231511 0.024211
C73   C     C_3   0.454958 0.282381 0.217521 -0.287685
C74   C     C_3   0.424096 0.186366 0.213443 -0.487385
C75   C     C_R   0.421030 0.094961 0.490993 0.011235
C76   C     C_R   0.499950 0.952710 0.499272 -0.098704
Cu1   Cu    Cu3+1 0.500010 0.499990 0.597420 0.977904
Cu2   Cu    Cu3+1 0.499990 0.500010 0.402580 0.989718
H1    H     H_    0.000699 0.276600 0.347391 0.190193
H2    H     H_    0.950879 0.835189 0.486462 0.173156
H3    H     H_    0.906164 0.832678 0.606225 0.183626
H4    H     H_    0.044723 0.881044 0.677948 0.153316
H5    H     H_    0.003614 0.959745 0.592659 0.142535
H6    H     H_    0.088705 0.884955 0.557280 0.186702
H7    H     H_    0.245685 0.593258 0.908643 0.220268
H8    H     H_    0.291853 0.691561 0.932623 0.243319
H9    H     H_    0.743714 0.398966 0.070481 0.237818
H10   H     H_    0.703516 0.296830 0.084170 0.239033
H11   H     H_    0.206592 0.563803 0.197209 0.142173
H12   H     H_    0.938151 0.287562 0.456615 0.139553
H13   H     H_    0.286462 0.483422 0.167308 0.125155
H14   H     H_    0.144188 0.547856 0.030538 0.166162
H15   H     H_    0.223584 0.463862 0.000984 0.149772
H16   H     H_    0.172097 0.368235 0.131280 0.152000
H17   H     H_    0.087990 0.395872 0.048285 0.147765
H18   H     H_    0.093861 0.451892 0.165419 0.157304
H19   H     H_    0.644470 0.214147 0.810558 0.130164
H20   H     H_    0.552188 0.247663 0.876134 0.116866
H21   H     H_    0.713818 0.166151 0.967166 0.172195
H22   H     H_    0.613071 0.185349 0.025280 0.138403
H23   H     H_    0.091932 0.162430 0.427776 0.192017
H24   H     H_    0.545506 0.077344 0.908707 0.145675
H25   H     H_    0.630233 0.026803 0.976526 0.146773
H26   H     H_    0.646962 0.056143 0.852257 0.138432
H27   H     H_    0.985393 0.336689 0.652118 0.228211
H28   H     H_    0.887769 0.350829 0.607510 0.213576
H29   H     H_    0.013765 0.657211 0.340602 0.233871
H30   H     H_    0.096740 0.587350 0.317408 0.221531
H31   H     H_    0.913033 0.460921 0.183994 0.158558
H32   H     H_    0.978144 0.542206 0.238375 0.118376
H33   H     H_    0.791385 0.509026 0.292264 0.204500
H34   H     H_    0.028353 0.173656 0.535504 0.161025
H35   H     H_    0.855012 0.600540 0.337695 0.175591
H36   H     H_    0.868504 0.656239 0.169535 0.143545
H37   H     H_    0.759917 0.649784 0.207125 0.159918
H38   H     H_    0.802855 0.565875 0.124695 0.154490
H39   H     H_    0.133093 0.566141 0.792137 0.151830
H40   H     H_    0.171658 0.563326 0.672729 0.144876
H41   H     H_    0.095784 0.407475 0.787947 0.173670
H42   H     H_    0.128159 0.394873 0.663575 0.184773
H43   H     H_    0.275160 0.434389 0.708360 0.190438
H44   H     H_    0.238993 0.339566 0.773119 0.140937
H45   H     H_    0.901356 0.123506 0.439979 0.183924
H46   H     H_    0.244877 0.447061 0.833810 0.145097
H47   H     H_    0.344759 0.728416 0.567398 0.247071
H48   H     H_    0.343379 0.717990 0.444498 0.235125
H49   H     H_    0.657082 0.281292 0.553550 0.227688
H50   H     H_    0.654933 0.271117 0.430889 0.251264
H51   H     H_    0.658494 0.716680 0.450821 0.239020
H52   H     H_    0.653131 0.721143 0.574022 0.233883
H53   H     H_    0.343977 0.281870 0.557513 0.241350
H54   H     H_    0.344737 0.282258 0.434156 0.235415
H55   H     H_    0.766262 0.920581 0.577426 0.228616
H56   H     H_    0.985886 0.041920 0.434210 0.149118
H57   H     H_    0.770994 0.930218 0.455280 0.247756
H58   H     H_    0.247453 0.124598 0.531328 0.267475
H59   H     H_    0.263068 0.127411 0.407073 0.244095
H60   H     H_    0.736841 0.044993 0.675229 0.103956
H61   H     H_    0.693579 0.155537 0.659110 0.137911
H62   H     H_    0.877769 0.093514 0.629157 0.154731
H63   H     H_    0.837665 0.202078 0.598595 0.176504
H64   H     H_    0.798105 0.233993 0.769914 0.182946
H65   H     H_    0.907877 0.202384 0.761628 0.150631
H66   H     H_    0.832197 0.123023 0.802953 0.144711
H67   H     H_    0.965750 0.112014 0.332313 0.150833
H68   H     H_    0.314546 0.855720 0.331917 0.130047
H69   H     H_    0.248422 0.954910 0.324456 0.134375
H70   H     H_    0.187859 0.772855 0.394223 0.201731
H71   H     H_    0.124023 0.870784 0.373567 0.163420
H72   H     H_    0.163662 0.862519 0.196914 0.142870
H73   H     H_    0.112838 0.762532 0.235224 0.154873
H74   H     H_    0.225586 0.762644 0.219017 0.178073
H75   H     H_    0.600376 0.328580 0.726895 0.218926
H76   H     H_    0.675923 0.407115 0.758446 0.259193
H77   H     H_    0.337850 0.603857 0.273553 0.238718
H78   H     H_    0.057756 0.720119 0.533023 0.157364
H79   H     H_    0.401121 0.680776 0.221912 0.226890
H80   H     H_    0.452878 0.745280 0.698797 0.164371
H81   H     H_    0.533444 0.683006 0.758714 0.128848
H82   H     H_    0.382143 0.784584 0.852958 0.179824
H83   H     H_    0.464049 0.725874 0.918727 0.162650
H84   H     H_    0.572100 0.826088 0.851202 0.150403
H85   H     H_    0.491468 0.887567 0.917249 0.147716
H86   H     H_    0.490150 0.885466 0.786496 0.152294
H87   H     H_    0.569560 0.239665 0.290217 0.157960
H88   H     H_    0.582622 0.257229 0.165948 0.122426
H89   H     H_    0.011427 0.716631 0.652658 0.181067
H90   H     H_    0.421786 0.319081 0.276938 0.191065
H91   H     H_    0.436853 0.313834 0.148351 0.130199
H92   H     H_    0.454119 0.148790 0.152049 0.143469
H93   H     H_    0.354634 0.185986 0.202891 0.144628
H94   H     H_    0.439402 0.152692 0.282132 0.159906
N1    N     N_R   0.499960 0.499930 0.743810 -0.220544
N2    N     N_3   0.345718 0.241575 0.494513 -0.656986
N3    N     N_3   0.734817 0.906768 0.512175 -0.568859
N4    N     N_3   0.263435 0.088034 0.468435 -0.604699
N5    N     N_3   0.614998 0.395915 0.732065 -0.541824
N6    N     N_3   0.399877 0.621806 0.260566 -0.551957
N7    N     N_R   0.500040 0.500070 0.256190 -0.213098
N8    N     N_3   0.301186 0.628539 0.900060 -0.580550
N9    N     N_3   0.692878 0.364551 0.098759 -0.586756
N10   N     N_3   0.938699 0.384569 0.638740 -0.594106
N11   N     N_3   0.063605 0.621932 0.372007 -0.665780
N12   N     N_3   0.345832 0.763600 0.503051 -0.578895
N13   N     N_3   0.654102 0.235693 0.495039 -0.577632
N14   N     N_3   0.654266 0.759389 0.511793 -0.573941
O1    O     O_R   0.500020 0.370250 0.582280 -0.498146
O2    O     O_3   0.935394 0.668142 0.541517 -0.553467
O3    O     O_3   0.291298 0.608659 0.098791 -0.603099
O4    O     O_3   0.665066 0.320951 0.902781 -0.597116
O5    O     O_3   0.941569 0.436289 0.324487 -0.587740
O6    O     O_3   0.041207 0.552247 0.689677 -0.560371
O7    O     O_3   0.729662 0.088161 0.531899 -0.550058
O8    O     O_3   0.270434 0.909912 0.463912 -0.517820
O9    O     O_3   0.409903 0.628836 0.754179 -0.520525
O10   O     O_3   0.586527 0.370671 0.257165 -0.513104
O11   O     O_R   0.499980 0.629750 0.417720 -0.469507
O12   O     O_R   0.500010 0.370270 0.417740 -0.480371
O13   O     O_R   0.499990 0.629730 0.582260 -0.503004
O14   O     O_R   0.379080 0.499980 0.582260 -0.481472
O15   O     O_R   0.620920 0.500020 0.417740 -0.471304
O16   O     O_R   0.379070 0.500000 0.417710 -0.505764
O17   O     O_R   0.620930 0.500000 0.582290 -0.473984
O18   O     O_3   0.063846 0.332702 0.464329 -0.573885

loop_
_geom_bond_atom_site_label_1
_geom_bond_atom_site_label_2
_ccdc_geom_bond_type
C66   C68   S    
H58   N4    S    
C34   C56   A    
C23   C45   A    
C71   H84   S    
C27   C29   S    
C72   H87   S    
C14   C18   A    
C42   O18   S    
C1    O12   A    
Cu2   O15   S    
C5    C67   A    
C26   O4    S    
C9    N5    S    
C6    C75   A    
C53   C54   S    
C27   C33   S    
C16   C31   S    
C15   C19   A    
C29   C36   S    
H54   N2    S    
C71   H85   S    
C61   H46   S    
C10   N7    A    
C54   H26   S    
C35   C37   S    
C28   N11   S    
C11   O9    S    
C4    C7    A    
C11   C14   A    
C45   N14   S    
C70   H82   S    
C49   O3    S    
C4    C41   A    
H10   N9    S    
C23   C40   A    
C52   H19   S    
C69   O9    S    
C33   C36   S    
C60   H41   S    
C61   H43   S    
C18   C19   A    
C63   H62   S    
C32   C39   T    
C52   H20   S    
C17   O17   A    
H28   N10   S    
H49   N13   S    
H48   N12   S    
C28   C35   S    
C48   H4    S    
C22   C25   A    
C51   H17   S    
H9    N9    S    
C45   C67   A    
C35   O5    S    
C12   O11   A    
C8    O8    S    
C70   C71   S    
Cu2   O11   S    
H27   N10   S    
C7    O7    S    
C66   H70   S    
C16   O14   A    
H77   N6    S    
Cu1   Cu2   S    
C51   H18   S    
C59   C60   S    
C59   H39   S    
C29   O18   S    
H51   N14   S    
C55   H31   S    
H47   N12   S    
C58   H38   S    
C5    N3    S    
C59   O6    S    
C34   C41   A    
C47   H2    S    
C49   H13   S    
C73   H90   S    
C16   O16   A    
Cu1   O17   S    
C1    C34   S    
C44   H67   S    
C1    O1    A    
C53   H22   S    
C44   H56   S    
H75   N5    S    
C11   N1    A    
C46   H89   S    
Cu2   N7    S    
C10   N6    S    
C54   H25   S    
H59   N4    S    
C22   N8    S    
C3    C8    A    
C71   H86   S    
C5    C7    A    
C57   H35   S    
C64   H66   S    
C13   N7    A    
C13   O10   S    
C53   H21   S    
C48   H6    S    
C30   C37   S    
H29   N11   S    
C61   H44   S    
C42   H12   S    
C30   O2    S    
C2    C4    A    
C43   C44   S    
C43   H23   S    
C30   C33   S    
C62   C63   S    
C68   H74   S    
Cu1   O13   S    
C9    C20   A    
C47   C48   S    
C12   C23   S    
C13   C15   A    
H8    N8    S    
C50   C51   S    
C63   H63   S    
C41   N13   S    
C52   O4    S    
C62   H60   S    
C9    N1    A    
C3    C76   A    
H55   N3    S    
C74   H93   S    
C66   H71   S    
C50   H14   S    
C15   C24   A    
C3    C40   A    
C49   C50   S    
C59   H40   S    
C64   H64   S    
C33   O6    S    
C55   H32   S    
C58   H37   S    
C62   H61   S    
C65   H69   S    
C42   C43   S    
C73   H91   S    
C70   H83   S    
C2    C76   A    
C52   C53   S    
C58   H36   S    
C65   O8    S    
C21   C25   A    
C46   C47   S    
C73   C74   S    
Cu1   N1    S    
H53   N2    S    
H30   N11   S    
C19   C21   A    
C24   N9    S    
C72   H88   S    
C54   H24   S    
Cu2   O16   S    
C49   H11   S    
C72   C73   S    
C20   C26   A    
C10   C21   A    
C72   O10   S    
C6    C8    A    
H52   N14   S    
C50   H15   S    
C64   H65   S    
C17   O15   A    
C46   H78   S    
C29   C35   S    
C44   H45   S    
C31   C38   T    
C14   C22   A    
C55   C57   S    
C27   N10   S    
C28   C30   S    
C37   C39   S    
C68   H73   S    
C25   O3    S    
C24   C26   A    
C57   C58   S    
C57   H33   S    
C6    N4    S    
C27   C37   S    
H7    N8    S    
Cu1   O1    S    
C36   C38   S    
C69   H81   S    
C12   O13   A    
C69   H80   S    
C60   H42   S    
C18   C20   A    
H79   N6    S    
C47   H3    S    
C69   C70   S    
Cu1   O14   S    
C74   H92   S    
C68   H72   S    
C51   H16   S    
C63   C64   S    
C42   H1    S    
C28   C36   S    
C65   C66   S    
C43   H34   S    
H76   N5    S    
C56   N2    S    
H50   N13   S    
C56   C75   A    
C17   C32   S    
C48   H5    S    
C60   C61   S    
C67   C76   A    
Cu2   O12   S    
C62   O7    S    
C46   O2    S    
C65   H68   S    
C74   H94   S    
C2    C75   A    
C55   O5    S    
C40   N12   S    
H57   N3    S    
