data_mof_unit_52865.cif
_audit_creation_date              2013-03-05T15:41:01-0500
_audit_creation_method            fapswitch 2.2
_symmetry_space_group_name_H-M    P1
_symmetry_Int_Tables_number       1
_space_group_crystal_system       triclinic
_cell_length_a                    28.205105
_cell_length_b                    7.17657
_cell_length_c                    17.356125
_cell_angle_alpha                 89.997801
_cell_angle_beta                  102.06497
_cell_angle_gamma                 89.981212
_cell_volume                      3435.55428445

loop_
_atom_site_label
_atom_site_type_symbol
_atom_site_description
_atom_site_fract_x
_atom_site_fract_y
_atom_site_fract_z
_atom_type_partial_charge
O1    O     O_R   0.000700 0.436510 0.857920 -0.542322
O2    O     O_R   0.999300 0.563490 0.142080 -0.572808
O3    O     O_R   0.999300 0.936510 0.642080 -0.542953
O4    O     O_R   0.000700 0.063490 0.357920 -0.572940
O5    O     O_R   0.930080 0.766380 0.721890 -0.570132
O6    O     O_R   0.069920 0.233620 0.278110 -0.555597
O7    O     O_R   0.069920 0.266380 0.778110 -0.568539
O8    O     O_R   0.930080 0.733620 0.221890 -0.555688
C1    C     C_R   0.910500 0.597523 0.709378 0.867177
C2    C     C_R   0.089442 0.402389 0.291747 0.849508
C3    C     C_R   0.089495 0.097447 0.790643 0.867930
C4    C     C_R   0.910561 0.902444 0.208244 0.849023
O9    O     O_R   0.996180 0.766230 0.862310 -0.558629
O10   O     O_R   0.003820 0.233770 0.137690 -0.566517
O11   O     O_R   0.003820 0.266230 0.637690 -0.559241
O12   O     O_R   0.996180 0.733770 0.362310 -0.566936
O13   O     O_R   0.065870 0.936460 0.783500 -0.543366
O14   O     O_R   0.934130 0.063540 0.216500 -0.557702
O15   O     O_R   0.934130 0.436460 0.716500 -0.542563
O16   O     O_R   0.065870 0.563540 0.283500 -0.557484
C5    C     C_R   0.998445 0.596056 0.894129 0.890124
C6    C     C_R   0.000579 0.404453 0.105412 0.795173
C7    C     C_R   0.001556 0.096059 0.605871 0.887698
C8    C     C_R   0.999421 0.904447 0.394588 0.793677
O17   O     O_3   0.022790 0.603020 0.723980 -0.274853
O18   O     O_3   0.977210 0.396980 0.276020 -0.287974
O19   O     O_3   0.977210 0.103020 0.776020 -0.274485
O20   O     O_3   0.022790 0.896980 0.223980 -0.287329
V1    V     V_3+5 0.995770 0.877900 0.754830 1.203773
V2    V     V_3+5 0.004230 0.122100 0.245170 1.141815
V3    V     V_3+5 0.004230 0.377900 0.745170 1.204461
V4    V     V_3+5 0.995770 0.622100 0.254830 1.141424
C9    C     C_2   0.996974 0.083049 0.519192 -0.212983
C10   C     C_2   0.007747 0.922041 0.481968 -0.253329
C11   C     C_2   0.003034 0.583032 0.980808 -0.213101
C12   C     C_2   0.992250 0.422070 0.018033 -0.253313
C13   C     C_R   0.682363 0.874438 0.024850 0.644316
C14   C     C_R   0.319113 0.127225 0.958708 0.645146
C15   C     C_R   0.317711 0.373846 0.474887 0.642051
C16   C     C_R   0.680894 0.626560 0.540655 0.675688
O21   O     O_2   0.710391 0.784777 0.982580 -0.426713
O22   O     O_2   0.291450 0.215778 0.001936 -0.428805
O23   O     O_2   0.289716 0.284296 0.517227 -0.433342
O24   O     O_2   0.708543 0.714483 0.497241 -0.433192
N1    N     N_R   0.703421 0.949660 0.096421 -0.446568
N2    N     N_R   0.297595 0.052146 0.887383 -0.450361
N3    N     N_R   0.296610 0.449074 0.403323 -0.446418
N4    N     N_R   0.702414 0.552459 0.612202 -0.448862
C17   C     C_R   0.676222 0.044779 0.140137 0.648300
C18   C     C_R   0.324470 0.958497 0.842647 0.662445
C19   C     C_R   0.323778 0.544073 0.359536 0.649634
C20   C     C_R   0.675611 0.457870 0.656756 0.633796
C21   C     C_R   0.777380 0.764684 0.147450 -0.057972
C22   C     C_R   0.222888 0.235559 0.840542 -0.047941
C23   C     C_R   0.222633 0.264278 0.352423 -0.056316
C24   C     C_R   0.782991 0.403741 0.642349 -0.079157
C25   C     C_R   0.827690 0.752729 0.174995 -0.096991
C26   C     C_R   0.172309 0.247332 0.817586 -0.099495
C27   C     C_R   0.172317 0.252451 0.324941 -0.096123
C28   C     C_R   0.833460 0.414387 0.665560 -0.081124
C29   C     C_R   0.834428 0.085640 0.157031 -0.148757
C30   C     C_R   0.166418 0.913991 0.835339 -0.120723
C31   C     C_R   0.165590 0.585388 0.342879 -0.147862
C32   C     C_R   0.827766 0.748309 0.681832 -0.154312
C33   C     C_R   0.784275 0.097209 0.129201 0.668514
C34   C     C_R   0.216906 0.902585 0.858578 0.661026
C35   C     C_R   0.215749 0.596828 0.370645 0.667098
C36   C     C_R   0.777149 0.737296 0.658833 0.680511
C37   C     C_R   0.755309 0.936903 0.124452 0.175921
C38   C     C_R   0.245553 0.063315 0.861255 0.173193
C39   C     C_R   0.244715 0.436445 0.375373 0.175798
C40   C     C_R   0.754425 0.564720 0.638615 0.180686
C41   C     C_R   0.603116 0.982671 0.040831 -0.150520
C42   C     C_R   0.398101 0.020365 0.940851 -0.147065
C43   C     C_R   0.396932 0.481843 0.458755 -0.150489
C44   C     C_R   0.601955 0.519384 0.558518 -0.146213
C45   C     C_R   0.631826 0.892692 0.994778 -0.144803
C46   C     C_R   0.369684 0.109600 0.987684 -0.106514
C47   C     C_R   0.368257 0.391980 0.504880 -0.142852
C48   C     C_R   0.630337 0.608595 0.511647 -0.113058
C49   C     C_R   0.610143 0.836546 0.917913 0.666485
C50   C     C_R   0.391702 0.164902 0.064443 0.582638
C51   C     C_R   0.389984 0.335837 0.581737 0.663291
C52   C     C_R   0.608296 0.663700 0.434860 0.576144
C53   C     C_R   0.625893 0.064345 0.112961 -0.031927
C54   C     C_R   0.374971 0.939838 0.868728 -0.010791
C55   C     C_R   0.374115 0.563514 0.386631 -0.033214
C56   C     C_R   0.625123 0.438835 0.630629 -0.004451
C57   C     C_R   0.856928 0.913353 0.180330 -0.183810
C58   C     C_R   0.143336 0.086521 0.814715 -0.175977
C59   C     C_R   0.143080 0.413155 0.319623 -0.183613
C60   C     C_R   0.856650 0.586962 0.685348 -0.167748
H1    H     H_    0.855600 0.212184 0.159557 0.125097
H2    H     H_    0.145470 0.787239 0.834283 0.131191
H3    H     H_    0.144419 0.711991 0.340362 0.124944
H4    H     H_    0.844217 0.883349 0.696931 0.127229
C61   C     C_R   0.477556 0.920242 0.917731 0.067726
C62   C     C_R   0.523623 0.082398 0.063090 0.081116
C63   C     C_R   0.522540 0.419202 0.581700 0.066940
C64   C     C_R   0.476396 0.581372 0.436356 0.080876
C65   C     C_R   0.471920 0.077598 0.041988 -0.045414
C66   C     C_R   0.529444 0.923248 0.939244 -0.114371
C67   C     C_R   0.528104 0.576520 0.457406 -0.044478
C68   C     C_R   0.470651 0.422309 0.560257 -0.113791
C69   C     C_R   0.449460 0.008360 0.966590 0.061592
C70   C     C_R   0.551809 0.993961 0.014549 0.053382
C71   C     C_R   0.550598 0.507312 0.532805 0.062065
C72   C     C_R   0.448245 0.493028 0.484961 0.053007
C73   C     C_R   0.452283 0.818636 0.852075 -0.082768
C74   C     C_R   0.548483 0.186009 0.128327 -0.044085
C75   C     C_R   0.547849 0.317506 0.647323 -0.085870
C76   C     C_R   0.451499 0.684970 0.371118 -0.043889
C77   C     C_R   0.402346 0.834126 0.826285 0.026032
C78   C     C_R   0.598336 0.171363 0.154596 -0.024649
C79   C     C_R   0.597790 0.332950 0.673063 0.033821
C80   C     C_R   0.401640 0.670414 0.344922 -0.024003
O25   O     O_2   0.302437 0.884040 0.772949 -0.480521
O26   O     O_2   0.697785 0.119568 0.210039 -0.497826
O27   O     O_2   0.697690 0.382989 0.726355 -0.471927
O28   O     O_2   0.302176 0.618866 0.289641 -0.492349
C81   C     C_R   0.560347 0.866657 0.887587 -0.139753
C82   C     C_R   0.441218 0.132580 0.094099 -0.137021
C83   C     C_R   0.439788 0.365846 0.611984 -0.136759
C84   C     C_R   0.558779 0.631419 0.405250 -0.134207
H5    H     H_    0.156002 0.382482 0.802097 0.140434
H6    H     H_    0.843581 0.617697 0.192153 0.138161
H7    H     H_    0.854251 0.287006 0.667351 0.132943
H8    H     H_    0.156420 0.117457 0.307814 0.138697
H9    H     H_    0.244542 0.360645 0.842443 0.181757
H10   H     H_    0.755468 0.639982 0.144235 0.177607
H11   H     H_    0.766020 0.269978 0.626420 0.175711
H12   H     H_    0.244543 0.139516 0.355621 0.178151
H13   H     H_    0.385149 0.758922 0.773722 0.139542
H14   H     H_    0.615282 0.247317 0.207095 0.146508
H15   H     H_    0.615016 0.257725 0.725618 0.144506
H16   H     H_    0.384664 0.746357 0.292422 0.147985
H17   H     H_    0.470279 0.720573 0.820856 0.056808
H18   H     H_    0.529987 0.283067 0.159287 0.114099
H19   H     H_    0.529873 0.219463 0.678561 0.057948
H20   H     H_    0.469966 0.781963 0.340100 0.114066
C85   C     C_2   0.974316 0.249413 0.475191 0.498399
H21   H     H_    0.992556 0.324226 0.435595 0.053549
O29   O     O_2   0.935683 0.309044 0.486007 -0.566573
C86   C     C_2   0.034535 0.762926 0.525955 0.562991
H22   H     H_    0.025637 0.621278 0.506463 -0.012279
O30   O     O_2   0.068834 0.789126 0.580781 -0.553781
C87   C     C_2   0.025713 0.749301 0.024805 0.501351
H23   H     H_    0.007490 0.824180 0.064415 0.052485
O31   O     O_2   0.064347 0.808785 0.013968 -0.561087
C88   C     C_2   0.965446 0.263055 0.974051 0.564813
H24   H     H_    0.974324 0.121377 0.993557 -0.012529
O32   O     O_2   0.931156 0.289382 0.919215 -0.550377
F1    F     F_    0.763869 0.264701 0.105982 -0.684075
F2    F     F_    0.237934 0.735128 0.879915 -0.684301
F3    F     F_    0.236164 0.764276 0.393816 -0.685178
F4    F     F_    0.750189 0.894614 0.656436 -0.671890
F5    F     F_    0.638288 0.769641 0.869373 -0.592702
F6    F     F_    0.364210 0.231748 0.114054 -0.650061
F7    F     F_    0.361877 0.269039 0.630344 -0.601672
F8    F     F_    0.635757 0.730516 0.385209 -0.655185
C89   C     C_2   0.543872 0.872182 0.800285 0.531686
H25   H     H_    0.514717 0.965297 0.773641 -0.002441
O33   O     O_2   0.562417 0.773947 0.757243 -0.520398
C90   C     C_2   0.456427 0.125437 0.181362 0.544849
H26   H     H_    0.440412 0.219710 0.217703 0.102135
O34   O     O_2   0.484953 0.007198 0.213565 -0.599574
C91   C     C_2   0.456314 0.371441 0.699278 0.528314
H27   H     H_    0.485480 0.464507 0.725857 -0.001456
O35   O     O_2   0.437796 0.273340 0.742385 -0.525399
C92   C     C_2   0.543536 0.624317 0.317993 0.542576
H28   H     H_    0.559526 0.718571 0.281625 0.102154
O36   O     O_2   0.515006 0.506137 0.285824 -0.600202

loop_
_geom_bond_atom_site_label_1
_geom_bond_atom_site_label_2
_geom_bond_distance
_ccdc_geom_bond_type
O17   V3    1.760800 S    
O1    C5    1.314051 A    
C62   C74   1.412468 A    
C23   C27   1.402095 A    
O19   V1    1.760512 S    
C18   O25   1.349469 S    
O13   V1    1.980591 S    
C76   H20   1.078468 S    
O3    C7    1.314070 A    
C87   H23   1.083123 S    
C76   C80   1.388549 A    
C48   C52   1.404457 A    
O15   V3    1.980308 S    
C89   H25   1.085009 S    
C52   F8    1.360782 S    
C75   H19   1.077582 S    
C91   O35   1.221397 D    
C68   C83   1.433475 A    
C33   C37   1.403676 A    
O7    C3    1.330903 A    
C10   C86   1.488583 S    
C25   C57   1.409306 A    
C54   C77   1.397061 A    
C32   C36   1.402003 A    
O2    V4    2.024300 S    
C53   C78   1.396637 A    
C87   O31   1.221051 D    
O10   V2    2.028078 S    
C14   O22   1.349057 S    
N4    C20   1.369293 A    
C85   O29   1.221050 D    
C22   C26   1.401191 A    
O4    C8    1.310974 A    
C29   H1    1.082911 S    
C92   H28   1.085608 S    
C31   H3    1.082912 S    
O1    V3    2.024300 S    
C82   C90   1.486232 S    
C73   H17   1.077604 S    
O3    V1    2.024282 S    
C33   F1    1.356858 S    
C1    O15   1.326869 A    
C3    O13   1.326712 A    
C11   C12   1.388038 D    
C2    O16   1.326545 A    
C24   C40   1.401994 A    
O2    C6    1.310958 A    
C16   C48   1.415429 A    
C63   C75   1.413916 A    
O14   V2    1.980591 S    
N1    C17   1.368650 A    
C66   C81   1.433511 A    
C44   C56   1.409042 A    
C61   C66   1.432944 A    
C73   C77   1.390282 A    
C83   C91   1.489687 S    
O11   C7    1.336359 A    
C63   C68   1.432911 A    
C21   C37   1.403564 A    
C43   C72   1.425774 A    
O12   C8    1.342101 A    
C77   H13   1.083540 S    
C84   C92   1.486201 S    
C31   C59   1.409682 A    
N4    C40   1.445286 S    
C67   C84   1.432063 A    
C1    C60   1.490581 S    
C89   O33   1.221402 D    
C91   H27   1.085038 S    
C29   C57   1.409676 A    
C9    C10   1.388074 D    
O5    V1    1.989575 S    
C28   C60   1.409357 A    
C65   C69   1.419295 A    
C31   C35   1.398412 A    
C64   C72   1.422809 A    
O7    V3    1.989071 S    
C30   C34   1.398927 A    
N1    C37   1.445388 S    
O8    V4    1.989068 S    
C17   C53   1.406148 A    
C4    C57   1.490883 S    
C74   H18   1.078441 S    
C49   F5    1.360080 S    
C32   H4    1.082900 S    
C86   O30   1.221484 D    
C19   C55   1.406180 A    
C25   H6    1.082839 S    
C34   F2    1.356772 S    
C21   C25   1.402070 A    
O18   V4    1.760802 S    
N3    C19   1.368665 A    
C14   C46   1.415426 A    
C7    C9    1.485731 S    
C27   H8    1.082839 S    
C13   C45   1.417814 A    
C64   C67   1.427891 A    
C8    C10   1.490721 S    
C24   C28   1.398154 A    
C49   C81   1.409641 A    
C36   C40   1.405117 A    
C15   C47   1.417844 A    
O5    C1    1.330770 A    
C61   C73   1.413927 A    
C46   C50   1.404414 A    
C17   O26   1.349706 S    
C22   C38   1.403306 A    
C45   C49   1.405455 A    
O8    C4    1.331216 A    
C81   C89   1.489660 S    
C19   O28   1.349705 S    
C78   H14   1.083491 S    
O9    C5    1.336303 A    
C11   C87   1.487449 S    
C42   C54   1.409052 A    
C26   C58   1.409174 A    
N3    C39   1.445439 S    
C55   C80   1.396649 A    
C5    C11   1.485694 S    
C43   C55   1.409828 A    
O6    V2    1.989575 S    
C2    C59   1.490951 S    
C64   C76   1.412494 A    
C44   C71   1.426451 A    
C30   H2    1.082914 S    
C88   O32   1.221476 D    
C27   C59   1.409320 A    
C52   C84   1.403048 A    
C32   C60   1.409553 A    
C13   N1    1.370800 A    
C68   C72   1.421016 A    
N2    C38   1.445092 S    
C63   C71   1.423854 A    
C15   N3    1.370813 A    
O16   V4    1.980308 S    
O9    V1    2.028078 S    
C16   N4    1.370371 A    
C22   H9    1.082541 S    
C74   C78   1.388527 A    
C90   H26   1.085607 S    
C28   H7    1.082847 S    
C44   C48   1.408910 A    
C86   H22   1.084205 S    
C36   F4    1.356757 S    
O6    C2    1.331222 A    
C15   O23   1.348840 S    
O11   V3    2.028137 S    
C80   H16   1.083489 S    
C35   F3    1.356856 S    
O12   V4    2.028137 S    
C62   C65   1.427838 A    
C6    C12   1.490685 S    
N2    C18   1.369273 A    
C65   C82   1.432061 A    
C62   C70   1.422779 A    
C9    C85   1.487439 S    
O10   C6    1.342045 A    
C56   C79   1.397100 A    
O20   V2    1.760512 S    
C61   C69   1.423931 A    
C41   C53   1.409835 A    
C85   H21   1.083127 S    
C42   C69   1.426462 A    
C47   C51   1.405478 A    
C3    C58   1.490467 S    
C12   C88   1.488598 S    
C41   C70   1.425750 A    
C34   C38   1.403748 A    
C79   H15   1.083538 S    
C50   F6    1.360785 S    
C30   C58   1.409632 A    
C90   O34   1.221184 D    
C66   C70   1.421018 A    
C35   C39   1.403695 A    
C13   O21   1.348840 S    
C20   C56   1.407930 A    
O4    V2    2.024282 S    
C14   N2    1.370140 A    
C24   H11   1.082624 S    
C18   C54   1.407843 A    
C20   O27   1.349461 S    
C29   C33   1.398376 A    
C16   O24   1.349059 S    
C51   F7    1.360076 S    
C26   H5    1.082843 S    
C75   C79   1.390338 A    
C23   H12   1.082557 S    
C42   C46   1.409000 A    
C4    O14   1.326552 A    
C41   C45   1.407778 A    
C88   H24   1.084201 S    
C67   C71   1.419294 A    
C21   H10   1.082557 S    
C92   O36   1.221163 D    
C51   C83   1.409655 A    
C43   C47   1.407795 A    
C50   C82   1.403031 A    
C23   C39   1.403573 A    
