data_mof_unit_9158.cif
_audit_creation_date              2012-12-10T19:46:23-0500
_audit_creation_method            fapswitch 2.2
_symmetry_space_group_name_H-M    P1
_symmetry_Int_Tables_number       1
_space_group_crystal_system       triclinic
_cell_length_a                    10.955286
_cell_length_b                    10.876422
_cell_length_c                    10.505973
_cell_angle_alpha                 92.049271
_cell_angle_beta                  90.256977
_cell_angle_gamma                 92.098713
_cell_volume                      1250.1711725

loop_
_atom_site_label
_atom_site_type_symbol
_atom_type_description
_atom_site_fract_x
_atom_site_fract_y
_atom_site_fract_z
_atom_type_partial_charge
C1    C     C_R   0.499016 0.261662 0.497349 0.789859
C2    C     C_R   0.496830 0.738390 0.502119 0.769230
C3    C     C_R   0.872318 0.509083 0.503511 -0.278244
C4    C     C_R   0.128459 0.514069 0.498936 -0.277282
C5    C     C_R   0.939549 0.499696 0.617970 -0.170604
C6    C     C_R   0.060718 0.516353 0.384271 -0.182073
C7    C     C_R   0.273200 0.118303 0.090224 -0.255507
C8    C     C_R   0.738002 0.850572 0.877086 -0.220364
C9    C     C_R   0.300916 0.087206 0.214880 -0.240520
C10   C     C_R   0.701997 0.893589 0.759696 -0.268565
C11   C     C_R   0.420445 0.103849 0.262420 0.142585
C12   C     C_R   0.577660 0.895241 0.728616 0.149827
C13   C     C_R   0.511965 0.151636 0.183086 -0.202896
C14   C     C_R   0.489720 0.853991 0.814588 -0.151548
C15   C     C_R   0.484204 0.183401 0.058879 -0.203053
C16   C     C_R   0.525509 0.810496 0.930916 -0.232402
C17   C     C_R   0.365698 0.165382 0.009802 0.579912
C18   C     C_R   0.650339 0.811188 0.964677 0.563748
C19   C     C_R   0.444714 0.927981 0.398668 -0.281045
C20   C     C_R   0.540148 0.072420 0.601855 -0.231502
C21   C     C_R   0.491487 0.872229 0.505448 -0.095408
C22   C     C_R   0.499061 0.128160 0.492743 -0.098778
C23   C     C_R   0.261750 0.504129 0.499554 0.836696
C24   C     C_R   0.738467 0.502206 0.500924 0.847894
C25   C     C_R   0.537650 0.945754 0.608802 0.007788
C26   C     C_R   0.453504 0.055012 0.387556 0.018419
C27   C     C_1   0.500835 0.499824 0.072174 0.103306
C28   C     C_1   0.500688 0.499790 0.927815 0.105025
C29   C     C_R   0.224899 0.590196 0.078683 -0.189407
C30   C     C_R   0.800590 0.294013 0.866011 -0.175046
C31   C     C_R   0.181621 0.601774 0.203032 -0.085174
C32   C     C_R   0.847494 0.334946 0.750754 -0.133350
C33   C     C_R   0.113583 0.504210 0.255363 0.227884
C34   C     C_R   0.883867 0.459223 0.738726 0.222674
C35   C     C_R   0.085040 0.397764 0.179984 -0.132720
C36   C     C_R   0.871748 0.541938 0.843194 -0.075231
C37   C     C_R   0.127699 0.387274 0.055367 -0.112692
C38   C     C_R   0.825308 0.500521 0.958359 -0.104149
C39   C     C_R   0.199882 0.482115 0.005841 -0.045048
C40   C     C_R   0.790227 0.376660 0.970018 -0.131054
C41   C     C_R   0.935516 0.533112 0.390566 0.449448
C42   C     C_R   0.065740 0.522800 0.615920 0.464069
Cu1   Cu    Cu3+1 0.500000 0.500000 0.625300 1.008771
Cu2   Cu    Cu3+1 0.500000 0.500000 0.374700 0.989427
H1    H     H_    0.237146 0.471241 0.911386 0.207575
H2    H     H_    0.754747 0.344926 0.059548 0.139640
H3    H     H_    0.605481 0.162280 0.216826 0.136648
H4    H     H_    0.393560 0.853848 0.790418 0.116595
H5    H     H_    0.555907 0.220254 0.999180 0.141252
H6    H     H_    0.455592 0.776512 0.993809 0.110448
H7    H     H_    0.403977 0.871900 0.321341 0.144825
H8    H     H_    0.574721 0.127808 0.683132 0.177276
H9    H     H_    0.279023 0.664439 0.039469 0.107997
H10   H     H_    0.772978 0.198119 0.874879 0.130172
H11   H     H_    0.202253 0.685646 0.258904 0.096945
H12   H     H_    0.856446 0.269808 0.671209 0.102619
H13   H     H_    0.029149 0.323430 0.217607 0.112352
H14   H     H_    0.898400 0.637983 0.835720 0.117751
H15   H     H_    0.104733 0.305731 0.997239 0.138877
H16   H     H_    0.816693 0.564396 0.038635 0.213111
H17   H     H_    0.179768 0.105280 0.057518 0.123713
H18   H     H_    0.834150 0.850194 0.901281 0.130113
H19   H     H_    0.229493 0.048433 0.273896 0.137537
H20   H     H_    0.770473 0.926109 0.693568 0.135738
N1    N     N_1   0.500010 0.499990 0.186410 -0.133700
N2    N     N_1   0.499990 0.500010 0.813590 -0.127197
O1    O     O_R   0.499990 0.319650 0.605810 -0.560446
O2    O     O_R   0.500010 0.680350 0.394190 -0.600524
O3    O     O_R   0.499990 0.319640 0.394190 -0.579871
O4    O     O_R   0.500010 0.680360 0.605810 -0.576662
O5    O     O_R   0.319640 0.500010 0.605810 -0.529361
O6    O     O_R   0.680360 0.499990 0.394190 -0.525815
O7    O     O_R   0.319650 0.500010 0.394190 -0.586074
O8    O     O_R   0.680350 0.499990 0.605810 -0.583180
O9    O     O_3   0.877242 0.580293 0.287219 -0.557771
C43   C     C_3   0.898235 0.709476 0.294299 -0.290604
H21   H     H_    0.995270 0.738256 0.313515 0.119829
H22   H     H_    0.840802 0.751554 0.369814 0.143845
H23   H     H_    0.876255 0.747367 0.201258 0.226904
O10   O     O_3   0.126778 0.549900 0.729321 -0.569082
C44   C     C_3   0.150275 0.678685 0.738854 -0.334151
H24   H     H_    0.065140 0.730688 0.730355 0.133186
H25   H     H_    0.216967 0.709539 0.666064 0.159137
H26   H     H_    0.190847 0.703022 0.833503 0.173504
O11   O     O_3   0.344596 0.202496 0.886476 -0.582994
C45   C     C_3   0.258661 0.123935 0.820301 -0.341531
H27   H     H_    0.164216 0.150753 0.842908 0.153543
H28   H     H_    0.270525 0.025156 0.839630 0.138651
H29   H     H_    0.271954 0.134744 0.716610 0.201657
O12   O     O_3   0.690187 0.769943 0.080031 -0.625714
C46   C     C_3   0.623934 0.824617 0.180126 -0.311532
H30   H     H_    0.532753 0.778408 0.186562 0.191747
H31   H     H_    0.616779 0.925469 0.169830 0.152839
H32   H     H_    0.671271 0.811900 0.271305 0.197283

loop_
_geom_bond_atom_site_label_1
_geom_bond_atom_site_label_2
_ccdc_geom_bond_type
C38   C40   A    
C5    C42   A    
C42   O10   S    
C43   H23   S    
O9    C43   S    
C44   H24   S    
C3    C24   S    
O11   C45   S    
C40   H2    S    
C30   H10   S    
C4    C42   A    
C17   O11   S    
C35   C37   A    
C16   H6    S    
C36   H14   S    
C45   H28   S    
C41   O9    S    
C20   C25   A    
C15   C17   A    
C19   C26   A    
C7    H17   S    
C33   C35   A    
C7    C17   A    
C6    C41   A    
C31   C33   A    
C39   H1    S    
Cu1   O8    S    
C1    C22   S    
Cu2   N1    S    
C23   O7    A    
C44   H25   S    
C18   O12   S    
C23   O5    A    
C43   H21   S    
C4    C6    A    
C46   H30   S    
C13   H3    S    
C4    C23   S    
C45   H27   S    
C14   H4    S    
C11   C26   S    
C8    C18   A    
C32   C34   A    
C28   N2    T    
Cu1   Cu2   S    
C27   N1    T    
C46   H31   S    
C29   C31   A    
C5    C34   S    
C29   C39   A    
C2    C21   S    
C30   C40   A    
Cu2   O3    S    
C16   C18   A    
C9    C11   A    
C37   H15   S    
C10   C12   A    
C38   H16   S    
Cu1   O1    S    
C12   C14   A    
Cu1   O4    S    
C13   C15   A    
C14   C16   A    
Cu2   O2    S    
C20   C22   A    
C44   H26   S    
C24   O6    A    
C7    C9    A    
C21   C25   A    
C3    C41   A    
Cu1   O5    S    
C19   C21   A    
C9    H19   S    
C8    C10   A    
C10   H20   S    
C43   H22   S    
O10   C44   S    
C3    C5    A    
C45   H29   S    
C2    O2    A    
C6    C33   S    
C12   C25   S    
C35   H13   S    
C36   C38   A    
C20   H8    S    
C46   H32   S    
C30   C32   A    
C11   C13   A    
C24   O8    A    
O12   C46   S    
C29   H9    S    
Cu1   N2    S    
C1    O1    A    
Cu2   O6    S    
C34   C36   A    
C15   H5    S    
Cu2   O7    S    
C1    O3    A    
C19   H7    S    
C37   C39   A    
C22   C26   A    
C27   C28   S    
C31   H11   S    
C2    O4    A    
C32   H12   S    
C8    H18   S    
