data_mof_unit_19264.cif
_audit_creation_date              2012-12-11T16:22:21-0500
_audit_creation_method            fapswitch 2.2
_symmetry_space_group_name_H-M    P1
_symmetry_Int_Tables_number       1
_space_group_crystal_system       triclinic
_cell_length_a                    16.840852
_cell_length_b                    16.828695
_cell_length_c                    19.568016
_cell_angle_alpha                 118.202321
_cell_angle_beta                  62.507761
_cell_angle_gamma                 100.620072
_cell_volume                      4331.40749318

loop_
_atom_site_label
_atom_site_type_symbol
_atom_type_description
_atom_site_fract_x
_atom_site_fract_y
_atom_site_fract_z
_atom_type_partial_charge
C1    C     C_R   0.038139 0.758730 0.013421 -0.235888
C2    C     C_R   0.248521 0.546202 0.825291 -0.152478
C3    C     C_R   0.181107 0.494530 0.091723 -0.172058
C4    C     C_R   0.767502 0.416498 0.161914 -0.135387
C5    C     C_R   0.992789 0.337332 0.757906 -0.120730
C6    C     C_R   0.255803 0.543188 0.069828 -0.111264
C7    C     C_R   0.948246 0.259103 0.756330 0.111922
C8    C     C_R   0.254404 0.493941 0.742975 0.025780
C9    C     C_R   0.015406 0.224266 0.017363 -0.241025
C10   C     C_R   0.815759 0.920815 0.480197 0.488777
C11   C     C_R   0.852224 0.843413 0.402708 -0.218523
C12   C     C_R   0.771588 0.435126 0.236900 0.020490
C13   C     C_R   0.929383 0.847240 0.332654 0.070801
C14   C     C_R   0.958050 0.932260 0.335945 -0.136554
C15   C     C_R   0.922408 0.009847 0.412703 -0.217771
C16   C     C_R   0.802701 0.561276 0.964545 -0.248906
C17   C     C_R   0.857241 0.003588 0.487034 0.000344
C18   C     C_R   0.886562 0.041880 0.610359 -0.328433
C19   C     C_R   0.915008 0.103372 0.672601 0.464202
C20   C     C_R   0.913750 0.195837 0.694121 -0.072471
C21   C     C_R   0.878972 0.226628 0.657060 0.484574
C22   C     C_R   0.852411 0.163296 0.593391 -0.350455
C23   C     C_R   0.720774 0.547796 0.022847 -0.005356
C24   C     C_R   0.858386 0.071130 0.568651 0.060882
C25   C     C_R   0.580032 0.325485 0.353807 -0.237526
C26   C     C_R   0.648053 0.339504 0.285909 -0.139299
C27   C     C_R   0.714462 0.400398 0.299629 0.093282
C28   C     C_R   0.965084 0.675229 0.249461 0.481993
C29   C     C_R   0.718761 0.436890 0.378727 -0.338594
C30   C     C_R   0.648877 0.425949 0.448198 0.569812
C31   C     C_R   0.576898 0.373348 0.436182 -0.046623
C32   C     C_R   0.480912 0.381681 0.581436 -0.089444
C33   C     C_R   0.403529 0.416144 0.657838 -0.212949
C34   C     C_R   0.977579 0.762949 0.256738 -0.244840
C35   C     C_R   0.335618 0.459451 0.663539 0.146747
C36   C     C_R   0.342630 0.463227 0.591253 -0.177724
C37   C     C_R   0.419861 0.429063 0.514981 -0.189934
C38   C     C_R   0.490140 0.390002 0.510348 0.135711
C39   C     C_R   0.633834 0.593672 0.058383 0.047218
C40   C     C_R   0.737319 0.480510 0.037392 0.555082
C41   C     C_R   0.319581 0.575235 0.108922 0.111495
C42   C     C_R   0.399920 0.548403 0.173285 0.522643
C43   C     C_R   0.324801 0.536344 0.156329 -0.341536
C44   C     C_R   0.383066 0.637048 0.089778 -0.256090
C45   C     C_R   0.252935 0.563500 0.010026 0.518510
C46   C     C_R   0.463709 0.638180 0.093244 0.064170
C47   C     C_R   0.472840 0.594791 0.136107 -0.110821
C48   C     C_R   0.558806 0.588042 0.129039 0.519952
C49   C     C_R   0.623763 0.641818 0.020358 -0.245976
C50   C     C_R   0.538935 0.669978 0.042919 -0.201156
C51   C     C_R   0.824614 0.185946 0.171238 0.097769
C52   C     C_R   0.035574 0.752380 0.173929 0.480369
C53   C     C_R   0.958569 0.865880 0.002839 0.067053
C54   C     C_R   0.877250 0.957066 0.986332 0.525145
C55   C     C_R   0.922503 0.876365 0.955526 -0.303158
C56   C     C_R   0.924893 0.260733 0.834399 0.040153
C57   C     C_R   0.956281 0.941047 0.078268 -0.204259
C58   C     C_R   0.914828 0.023972 0.108594 0.022712
C59   C     C_R   0.873427 0.031414 0.062945 -0.061192
C60   C     C_R   0.827468 0.112564 0.095841 -0.222858
C61   C     C_R   0.866618 0.179716 0.215447 -0.336911
C62   C     C_R   0.911681 0.098771 0.185153 0.534377
C63   C     C_R   0.845990 0.485448 0.237081 -0.021691
C64   C     C_R   0.964240 0.690691 0.933948 0.532498
C65   C     C_R   0.988737 0.775379 0.980819 -0.040120
C66   C     C_3   0.637112 0.565310 0.562443 0.194578
C67   C     C_R   0.169326 0.469371 0.750257 -0.131869
C68   C     C_3   0.716686 0.611556 0.581500 -0.319081
C69   C     C_3   0.708815 0.713723 0.616499 -0.955059
C70   C     C_3   0.973889 0.681768 0.365826 0.163297
C71   C     C_3   0.060718 0.624850 0.319838 -0.343642
C72   C     C_3   0.107556 0.652285 0.377955 -0.970272
C73   C     C_3   0.766096 0.907634 0.939610 0.189186
C74   C     C_3   0.783341 0.840852 0.846963 -0.254880
C75   C     C_3   0.705574 0.778351 0.843879 -1.021633
C76   C     C_3   0.177657 0.800727 0.152661 0.201994
C77   C     C_3   0.183672 0.868420 0.236540 -0.329667
C78   C     C_R   0.043056 0.309306 0.060163 0.482521
C79   C     C_3   0.270768 0.853992 0.236047 -0.980551
C80   C     C_3   0.981227 0.603835 0.794005 0.156175
C81   C     C_3   0.068940 0.638533 0.744545 -0.316961
C82   C     C_3   0.109278 0.574923 0.648457 -0.993070
C83   C     C_3   0.378946 0.511707 0.881889 0.138971
C84   C     C_3   0.451837 0.485428 0.894563 -0.298970
C85   C     C_3   0.514392 0.409557 0.811681 -0.978646
C86   C     C_R   0.966255 0.240892 0.983922 0.468396
H1    H     H_    0.078656 0.806885 0.041819 0.199738
H2    H     H_    0.953754 0.073110 0.416141 0.153659
H3    H     H_    0.893220 0.970245 0.589527 0.149494
H4    H     H_    0.830771 0.185260 0.560508 0.143864
H5    H     H_    0.524849 0.284725 0.344162 0.150690
H6    H     H_    0.644563 0.307274 0.224805 0.126649
H7    H     H_    0.771204 0.481165 0.389954 0.135754
H8    H     H_    0.534442 0.351126 0.578416 0.141094
H9    H     H_    0.812002 0.605411 0.936819 0.193409
H10   H     H_    0.396245 0.407833 0.711820 0.115039
H11   H     H_    0.289603 0.494807 0.594619 0.131952
H12   H     H_    0.875191 0.219557 0.860408 0.182343
H13   H     H_    0.426631 0.437189 0.460832 0.139584
H14   H     H_    0.680206 0.654740 0.970671 0.149035
H15   H     H_    0.532579 0.704168 0.010489 0.140392
H16   H     H_    0.274098 0.491355 0.174884 0.139897
H17   H     H_    0.376478 0.674035 0.060025 0.184787
H18   H     H_    0.793458 0.119839 0.063667 0.188765
H19   H     H_    0.863238 0.238029 0.273793 0.140468
H20   H     H_    0.927440 0.822013 0.895039 0.189426
H21   H     H_    0.983530 0.933967 0.115621 0.194138
H22   H     H_    0.879294 0.495501 0.276094 0.139469
H23   H     H_    0.149461 0.429272 0.698873 0.100900
H24   H     H_    0.095622 0.271887 0.109425 0.325021
H25   H     H_    0.934140 0.118734 0.932440 0.350958
H26   H     H_    0.720945 0.972552 0.596525 0.325509
H27   H     H_    0.944834 0.007761 0.687593 0.321945
H28   H     H_    0.845850 0.327668 0.651531 0.317807
H29   H     H_    0.574937 0.588774 0.623690 0.127647
H30   H     H_    0.628985 0.587161 0.520137 0.092108
H31   H     H_    0.719800 0.595942 0.629448 0.210079
H32   H     H_    0.780030 0.585399 0.521759 0.199940
H33   H     H_    0.707997 0.730881 0.568524 0.293030
H34   H     H_    0.299356 0.587961 0.841685 0.151418
H35   H     H_    0.767207 0.745055 0.630076 0.266239
H36   H     H_    0.646579 0.741910 0.677108 0.268335
H37   H     H_    0.518305 0.607506 0.245931 0.350239
H38   H     H_    0.351515 0.474750 0.235130 0.315831
H39   H     H_    0.930529 0.675848 0.426425 0.142179
H40   H     H_    0.988877 0.754387 0.385064 0.104228
H41   H     H_    0.045169 0.552355 0.299643 0.217034
H42   H     H_    0.107053 0.634605 0.261903 0.191878
H43   H     H_    0.125026 0.724255 0.397575 0.268764
H44   H     H_    0.170186 0.610127 0.342652 0.270794
H45   H     H_    0.155600 0.477229 0.144433 0.183685
H46   H     H_    0.063548 0.642208 0.436210 0.264448
H47   H     H_    0.705623 0.950830 0.968849 0.126388
H48   H     H_    0.749981 0.869724 0.978148 0.086872
H49   H     H_    0.792679 0.878668 0.810272 0.212836
H50   H     H_    0.845524 0.799269 0.815561 0.199441
H51   H     H_    0.695787 0.738972 0.879271 0.267257
H52   H     H_    0.720447 0.730419 0.776020 0.278446
H53   H     H_    0.642860 0.818097 0.872810 0.270201
H54   H     H_    0.943466 0.149392 0.281176 0.313487
H55   H     H_    0.647564 0.441988 0.118341 0.356740
H56   H     H_    0.009357 0.364348 0.712818 0.141806
H57   H     H_    0.233191 0.811607 0.098591 0.137781
H58   H     H_    0.188773 0.730945 0.140250 0.078769
H59   H     H_    0.179773 0.938173 0.245562 0.212339
H60   H     H_    0.126775 0.860590 0.291690 0.203460
H61   H     H_    0.272131 0.787398 0.234423 0.274005
H62   H     H_    0.275203 0.907310 0.295488 0.273990
H63   H     H_    0.329492 0.857344 0.179486 0.264992
H64   H     H_    0.939611 0.581029 0.758048 0.155967
H65   H     H_    0.993847 0.543576 0.797237 0.103671
H66   H     H_    0.055922 0.706069 0.753651 0.215668
H67   H     H_    0.821824 0.780036 0.399318 0.192833
H68   H     H_    0.117847 0.645586 0.770243 0.194633
H69   H     H_    0.119568 0.505664 0.636956 0.257482
H70   H     H_    0.174873 0.599449 0.615478 0.270058
H71   H     H_    0.064169 0.572844 0.620485 0.270334
H72   H     H_    0.415073 0.528914 0.827073 0.133475
H73   H     H_    0.338126 0.452310 0.862222 0.100348
H74   H     H_    0.492261 0.544711 0.913339 0.221657
H75   H     H_    0.421318 0.461552 0.944923 0.216647
H76   H     H_    0.476103 0.348725 0.790937 0.266212
H77   H     H_    0.566216 0.391720 0.822820 0.284094
H78   H     H_    0.012011 0.940038 0.282014 0.197182
H79   H     H_    0.548441 0.431318 0.759672 0.266784
H80   H     H_    0.728973 0.364741 0.133122 0.135460
N1    N     N_R   0.034930 0.670790 0.995440 -0.065365
N2    N     N_R   0.867000 0.509260 0.948460 -0.066991
N3    N     N_R   0.003780 0.616410 0.165900 -0.122616
N4    N     N_R   0.825670 0.461520 0.995440 -0.086410
N5    N     N_R   0.045120 0.664150 0.118920 -0.132155
N6    N     N_R   0.884940 0.497570 0.165910 -0.049613
N7    N     N_R   0.985840 0.628110 0.948460 -0.104759
N8    N     N_R   0.174330 0.538480 0.004560 -0.099829
N9    N     N_R   0.954880 0.335850 0.881080 -0.064056
N10   N     N_R   0.115060 0.502430 0.834090 -0.051702
N11   N     N_R   0.014160 0.371890 0.051540 -0.102144
N12   N     N_R   0.965070 0.329210 0.004560 -0.105593
N13   N     N_R   0.164150 0.545120 0.881070 -0.035296
N14   N     N_R   0.133000 0.490740 0.051540 -0.067558
N15   N     N_R   0.996220 0.383590 0.834100 -0.064058
N16   N     N_R   0.835850 0.454880 0.118930 -0.061778
Ni1   Ni    Ni4+2 0.103690 0.603690 0.000000 0.211113
Ni2   Ni    Ni4+2 0.896310 0.396310 0.000000 0.250639
Ni3   Ni    Ni4+2 0.991110 0.505800 0.892250 0.201916
Ni4   Ni    Ni4+2 0.008890 0.494200 0.107750 0.218084
O1    O     O_3   0.084813 0.329428 0.111988 -0.779378
O2    O     O_3   0.839571 0.964568 0.939741 -0.666225
O3    O     O_3   0.952397 0.091361 0.229264 -0.774527
O4    O     O_3   0.676767 0.418343 0.055240 -0.750500
O5    O     O_3   0.095720 0.815195 0.155306 -0.693322
O6    O     O_3   0.931275 0.673907 0.875552 -0.716172
O7    O     O_3   0.325309 0.589538 0.953763 -0.698626
O8    O     O_3   0.919000 0.178581 0.942260 -0.756302
O9    O     O_3   0.745117 0.911688 0.549142 -0.766189
O10   O     O_3   0.949155 0.074150 0.709413 -0.746325
O11   O     O_3   0.871785 0.318077 0.683550 -0.775160
O12   O     O_3   0.647938 0.470610 0.529019 -0.678963
O13   O     O_3   0.571331 0.579415 0.190051 -0.767198
O14   O     O_3   0.408371 0.503878 0.213692 -0.745640
O15   O     O_3   0.925513 0.649903 0.315350 -0.683559

loop_
_geom_bond_atom_site_label_1
_geom_bond_atom_site_label_2
_ccdc_geom_bond_type
C58   C62   A    
C80   H65   S    
C66   C68   S    
C1    H1    S    
H54   O3    S    
C6    C45   A    
N8    N14   A    
C27   C29   A    
C78   N11   A    
C41   C43   A    
C73   C74   S    
C32   H8    S    
C35   C36   A    
C51   C61   A    
C56   H12   S    
C56   N9    A    
C3    C6    A    
C40   N4    A    
C81   C82   S    
C57   C58   A    
N10   Ni3   S    
C80   H64   S    
C9    C78   A    
N7    Ni3   S    
C26   C27   A    
C29   C30   A    
C66   H30   S    
C18   C24   A    
C28   O15   S    
H37   O13   S    
C36   C37   A    
N3    Ni4   S    
C30   C31   A    
C9    C86   A    
C1    N1    A    
C10   C17   A    
C26   H6    S    
C23   C40   A    
C86   N12   A    
C15   C17   A    
C18   C19   A    
C11   H67   S    
C73   H48   S    
C68   H32   S    
C21   C22   A    
C54   C55   A    
C67   H23   S    
N10   N13   A    
N1    Ni1   S    
C79   H63   S    
C83   C84   S    
N6    Ni4   S    
C68   C69   S    
C6    C41   S    
C74   H50   S    
C1    C65   A    
N11   N12   A    
C70   C71   S    
C32   C38   A    
C4    C12   A    
C53   C65   S    
N9    N15   A    
C82   H70   S    
C70   H40   S    
C70   O15   S    
C53   C55   A    
C28   C34   A    
C59   C60   A    
C54   O2    S    
C13   C14   A    
C85   H76   S    
C80   O6    S    
C71   H41   S    
C7    C56   A    
C52   N5    A    
C5    N15   A    
C64   O6    S    
C44   H17   S    
C44   C46   A    
C72   H46   S    
C62   O3    S    
N13   Ni1   S    
C54   C59   A    
C77   C79   S    
C45   O7    S    
C5    H56   S    
H24   O1    S    
C25   H5    S    
C17   C24   S    
C74   C75   S    
C48   O13   S    
C72   H43   S    
C76   C77   S    
C66   H29   S    
C5    C7    A    
C12   C63   A    
C2    H34   S    
C79   H61   S    
C12   C27   S    
C25   C26   A    
C10   O9    S    
C69   H33   S    
N11   Ni4   S    
C36   H11   S    
C8    C35   S    
C83   O7    S    
C3    N14   A    
H26   O9    S    
C55   H20   S    
C37   C38   A    
C68   H31   S    
N4    Ni2   S    
C47   C48   A    
C69   H35   S    
C67   N10   A    
C74   H49   S    
C22   H4    S    
C19   O10   S    
C40   O4    S    
N12   Ni2   S    
C84   C85   S    
C66   O12   S    
N14   Ni4   S    
C8    C67   A    
C82   H69   S    
C76   H58   S    
C70   H39   S    
C30   O12   S    
C73   H47   S    
C49   C50   A    
C16   C23   A    
C63   H22   S    
C75   H51   S    
C85   H77   S    
C41   C44   A    
C3    H45   S    
C71   H42   S    
C42   C43   A    
C33   H10   S    
C77   H59   S    
C37   H13   S    
C73   O2    S    
C61   H19   S    
N3    N5    A    
N5    Ni1   S    
C82   H71   S    
C46   C50   A    
C46   C47   A    
C16   H9    S    
N15   Ni3   S    
N2    Ni3   S    
C39   C49   A    
C18   H3    S    
C25   C31   A    
C2    C8    A    
H55   O4    S    
C21   O11   S    
C80   C81   S    
C75   H52   S    
C53   C57   A    
N8    Ni1   S    
C84   H74   S    
C72   H44   S    
C79   H62   S    
C51   C60   A    
H28   O11   S    
C81   H66   S    
H38   O14   S    
C34   C52   A    
C31   C38   S    
N1    N7    A    
C85   H79   S    
C32   C33   A    
C19   C20   A    
C42   O14   S    
C58   C59   A    
C43   H16   S    
C13   C34   S    
C76   O5    S    
C75   H53   S    
C45   N8    A    
C64   C65   A    
C49   H14   S    
C29   H7    S    
C11   C13   A    
C33   C35   A    
C63   N6    A    
C83   H72   S    
C69   H36   S    
C16   N2    A    
C23   C39   S    
N2    N4    A    
H27   O10   S    
C4    H80   S    
C22   C24   A    
C42   C47   A    
C14   H78   S    
C61   C62   A    
N16   Ni2   S    
C10   C11   A    
C81   H68   S    
H25   O8    S    
C76   H57   S    
N6    N16   A    
C28   N3    A    
C71   C72   S    
C83   H73   S    
C20   C21   A    
C50   H15   S    
C7    C20   S    
C2    N13   A    
C57   H21   S    
C14   C15   A    
C39   C48   A    
C78   O1    S    
C4    N16   A    
C64   N7    A    
C60   H18   S    
C77   H60   S    
C52   O5    S    
C86   O8    S    
C84   H75   S    
C15   H2    S    
N9    Ni2   S    
