data_mof_unit_53175.cif
_audit_creation_date              2012-12-11T21:15:16-0500
_audit_creation_method            fapswitch 2.2
_symmetry_space_group_name_H-M    P1
_symmetry_Int_Tables_number       1
_space_group_crystal_system       triclinic
_cell_length_a                    8.261818
_cell_length_b                    18.944507
_cell_length_c                    26.818741
_cell_angle_alpha                 98.671293
_cell_angle_beta                  93.225125
_cell_angle_gamma                 88.227368
_cell_volume                      4141.93972519

loop_
_atom_site_label
_atom_site_type_symbol
_atom_type_description
_atom_site_fract_x
_atom_site_fract_y
_atom_site_fract_z
_atom_type_partial_charge
Ba1   Ba    Ba6+2 0.160810 0.465630 0.521640 1.733934
Ba2   Ba    Ba6+2 0.649380 0.534380 0.478400 1.706974
C1    C     C_3   0.611694 0.239762 0.674558 -0.271938
C2    C     C_R   0.042159 0.083853 0.435624 -0.024422
C3    C     C_R   0.172044 0.054871 0.405828 -0.084410
C4    C     C_3   0.962051 0.271899 0.617408 0.397295
C5    C     C_R   0.239549 0.987529 0.409897 -0.098102
C6    C     C_R   0.174414 0.944843 0.441454 0.031146
C7    C     C_R   0.038010 0.970209 0.468640 0.011688
C8    C     C_R   0.243250 0.877037 0.445689 -0.118230
C9    C     C_R   0.168667 0.830059 0.472973 -0.039254
C10   C     C_R   0.025762 0.853664 0.497718 0.010453
C11   C     C_R   0.965704 0.924947 0.497354 -0.009303
C12   C     C_3   0.495252 0.295087 0.653150 0.446613
C13   C     C_R   0.227493 0.759154 0.474586 0.005588
C14   C     C_R   0.135324 0.711384 0.495624 -0.204134
C15   C     C_R   0.990604 0.732751 0.518375 0.062649
C16   C     C_3   0.991781 0.196438 0.629421 -0.361102
C17   C     C_R   0.940234 0.805837 0.521982 -0.029669
C18   C     C_R   0.843035 0.067530 0.496383 -0.010927
C19   C     C_R   0.785705 0.139848 0.497641 -0.027673
C20   C     C_R   0.865453 0.186695 0.469946 -0.071512
C21   C     C_R   0.983104 0.154988 0.435174 -0.025275
C22   C     C_R   0.805858 0.832666 0.548785 -0.049529
C23   C     C_3   0.518142 0.316810 0.333718 0.238108
C24   C     C_R   0.752922 0.903632 0.551272 0.026713
C25   C     C_R   0.830275 0.950205 0.524628 0.019840
C26   C     C_R   0.770544 0.021460 0.524959 -0.007340
C27   C     C_R   0.621041 0.928068 0.579643 -0.078846
C28   C     C_3   0.769151 0.674832 0.640032 0.228231
C29   C     C_R   0.563999 0.997842 0.580918 -0.078893
C30   C     C_R   0.634674 0.045134 0.552655 0.016148
C31   C     C_R   0.645565 0.164031 0.525287 -0.041004
C32   C     C_R   0.566525 0.113937 0.550053 0.136622
C33   C     C_R   0.591321 0.237224 0.527075 0.026743
C34   C     C_3   0.489759 0.323374 0.277540 -0.378176
C35   C     C_R   0.685472 0.284317 0.505981 -0.211297
C36   C     C_R   0.821432 0.262066 0.478239 0.040993
C37   C     C_R   0.257560 0.454009 0.173231 0.586975
C38   C     C_R   0.203963 0.580015 0.180176 0.602638
C39   C     C_2   0.023777 0.529711 0.269280 -0.082158
C40   C     C_3   0.677594 0.747315 0.648045 -0.309972
C41   C     C_3   0.986987 0.522035 0.323098 -0.049024
C42   C     C_1   0.275284 0.495123 0.337298 -0.003443
C43   C     C_2   0.310411 0.503588 0.291119 -0.116469
C44   C     C_2   0.177291 0.519097 0.253847 0.239135
C45   C     C_3   0.768298 0.712311 0.317834 0.482767
C46   C     C_R   0.299992 0.515175 0.101269 -0.081967
C47   C     C_R   0.299232 0.451609 0.122856 -0.028053
C48   C     C_R   0.339119 0.386521 0.093654 -0.055744
C49   C     C_R   0.256203 0.580887 0.130582 -0.077451
C50   C     C_2   0.141221 0.523913 0.356670 -0.261645
C51   C     C_2   0.665464 0.483956 0.641124 -0.252994
C52   C     C_3   0.982257 0.376065 0.367390 0.280000
C53   C     C_R   0.449246 0.444804 0.972591 0.016797
C54   C     C_R   0.379074 0.572441 0.976220 0.025322
C55   C     C_R   0.437532 0.507151 0.949225 0.056956
C56   C     C_3   0.756684 0.687129 0.260709 -0.360077
C57   C     C_R   0.523028 0.383024 0.946518 -0.120466
C58   C     C_R   0.574826 0.380181 0.897610 -0.033599
C59   C     C_R   0.547550 0.440030 0.871830 -0.067528
C60   C     C_R   0.484919 0.504227 0.898490 -0.078912
C61   C     C_R   0.469616 0.565700 0.874488 -0.038851
C62   C     C_R   0.517543 0.562743 0.824467 0.651237
C63   C     C_R   0.577533 0.437594 0.820098 0.590225
C64   C     C_3   0.991312 0.352715 0.310514 -0.363985
C65   C     C_2   0.754032 0.462247 0.728793 -0.005942
C66   C     C_3   0.761779 0.435997 0.672506 -0.070885
C67   C     C_3   0.276103 0.716957 0.356515 0.238664
C68   C     C_1   0.531558 0.516620 0.658699 -0.017351
C69   C     C_2   0.493499 0.519471 0.706579 -0.145058
C70   C     C_2   0.613312 0.495079 0.745152 0.218373
C71   C     C_R   0.393413 0.446516 0.022068 0.026486
C72   C     C_R   0.344622 0.512576 0.050261 0.055171
C73   C     C_R   0.340600 0.575813 0.027863 0.013281
C74   C     C_R   0.383643 0.383836 0.044318 -0.095364
C75   C     C_R   0.264580 0.644559 0.108915 -0.015533
C76   C     C_3   0.276558 0.683424 0.657399 0.233052
C77   C     C_R   0.361067 0.632284 0.950378 -0.084408
C78   C     C_3   0.279460 0.733874 0.303101 -0.306479
C79   C     C_R   0.406498 0.629013 0.900904 -0.035147
C80   C     C_R   0.303086 0.640969 0.058408 -0.121330
C81   C     C_3   0.353074 0.688602 0.711436 -0.372864
C82   C     C_3   0.315837 0.323140 0.726659 -0.060111
C83   C     C_2   0.221396 0.756579 0.646595 0.851965
C84   C     C_2   0.559241 0.203264 0.717256 0.925517
C85   C     C_2   0.535252 0.239763 0.341924 0.933064
C86   C     C_3   0.789686 0.823012 0.378282 -0.194680
C87   C     C_2   0.024538 0.187788 0.391405 0.884449
C88   C     C_3   0.281785 0.096485 0.535239 -0.173746
C89   C     C_R   0.974334 0.040771 0.467014 0.008315
C90   C     C_2   0.885651 0.444941 0.765232 0.951685
C91   C     C_2   0.667819 0.314941 0.877063 0.972375
C92   C     C_2   0.246180 0.716970 0.138229 0.948480
C93   C     C_2   0.826055 0.652133 0.690200 0.850909
H1    H     H_    0.591521 0.751699 0.615515 0.143149
H2    H     H_    0.272961 0.663701 0.735449 0.156428
H3    H     H_    0.371634 0.744736 0.729493 0.140019
H4    H     H_    0.472681 0.660814 0.711697 0.134998
H5    H     H_    0.576472 0.326426 0.633578 -0.054571
H6    H     H_    0.724387 0.268488 0.688609 0.109282
H7    H     H_    0.634441 0.341565 0.347873 0.044743
H8    H     H_    0.497627 0.379738 0.271957 0.097929
H9    H     H_    0.584741 0.292815 0.255055 0.126587
H10   H     H_    0.368457 0.303165 0.263216 0.166596
H11   H     H_    0.644521 0.197757 0.643139 0.009507
H12   H     H_    0.603764 0.754096 0.681530 0.110035
H13   H     H_    0.947154 0.191328 0.666915 0.145937
H14   H     H_    0.649710 0.704872 0.333075 0.125615
H15   H     H_    0.876214 0.690681 0.244489 0.160353
H16   H     H_    0.715680 0.631262 0.252024 0.099947
H17   H     H_    0.667140 0.721182 0.242250 0.130176
H18   H     H_    0.171526 0.747057 0.374337 0.024798
H19   H     H_    0.259319 0.658709 0.354798 0.045867
H20   H     H_    0.371052 0.699062 0.281977 0.153862
H21   H     H_    0.310096 0.790718 0.303850 0.113848
H22   H     H_    0.025994 0.276876 0.582981 0.089252
H23   H     H_    0.764020 0.791909 0.653475 0.130578
H24   H     H_    0.158198 0.724771 0.283777 0.147716
H25   H     H_    0.228943 0.084999 0.380757 0.121412
H26   H     H_    0.342763 0.968683 0.387962 0.084661
H27   H     H_    0.177937 0.656646 0.494765 0.064460
H28   H     H_    0.352062 0.860794 0.426079 0.098040
H29   H     H_    0.739084 0.798631 0.567462 0.081322
H30   H     H_    0.560998 0.893020 0.600835 0.099374
H31   H     H_    0.461985 0.013105 0.603925 0.090946
H32   H     H_    0.830434 0.280371 0.609452 -0.130250
H33   H     H_    0.648693 0.340123 0.510042 0.054955
H34   H     H_    0.105144 0.385198 0.384663 0.059829
H35   H     H_    0.434920 0.500251 0.280115 0.090603
H36   H     H_    0.335408 0.336768 0.108857 0.133184
H37   H     H_    0.551738 0.336890 0.964750 0.096866
H38   H     H_    0.405931 0.331134 0.024125 0.092277
H39   H     H_    0.924864 0.537445 0.242148 0.068772
H40   H     H_    0.308612 0.682529 0.966932 0.089835
H41   H     H_    0.928710 0.157545 0.600283 0.058497
H42   H     H_    0.390505 0.676674 0.883154 0.137099
H43   H     H_    0.372100 0.535834 0.717670 0.115372
H44   H     H_    0.311910 0.691280 0.044726 0.094927
H45   H     H_    0.906449 0.425381 0.374947 0.028093
H46   H     H_    0.139236 0.544476 0.396698 0.066687
H47   H     H_    0.700585 0.486716 0.603089 0.070437
H48   H     H_    0.123144 0.183398 0.630059 0.130699
H49   H     H_    0.690347 0.632615 0.619835 -0.018114
H50   H     H_    0.375548 0.389995 0.676756 0.211257
H51   H     H_    0.238233 0.368741 0.742632 0.149604
H52   H     H_    0.384440 0.305215 0.759144 0.150559
H53   H     H_    0.239501 0.278994 0.707937 0.161851
H54   H     H_    0.076922 0.843147 0.665459 0.312426
H55   H     H_    0.351627 0.165258 0.681527 0.267039
H56   H     H_    0.032640 0.296086 0.302309 0.164854
H57   H     H_    0.567742 0.171328 0.392621 0.311570
H58   H     H_    0.908764 0.800232 0.311447 0.203664
H59   H     H_    0.825746 0.879563 0.381387 0.102526
H60   H     H_    0.870107 0.795988 0.404471 0.118306
H61   H     H_    0.662579 0.822566 0.389353 0.150087
H62   H     H_    0.195923 0.232472 0.356672 0.313206
H63   H     H_    0.399669 0.123516 0.605239 0.189510
H64   H     H_    0.163093 0.118822 0.547877 0.114503
H65   H     H_    0.283310 0.037932 0.535128 0.087769
H66   H     H_    0.297430 0.107920 0.496594 0.139558
H67   H     H_    0.078688 0.384862 0.294352 0.080972
H68   H     H_    0.023333 0.478152 0.828415 0.309617
H69   H     H_    0.684762 0.207336 0.866854 0.348635
H70   H     H_    0.318983 0.787012 0.199035 0.313584
H71   H     H_    0.944137 0.566138 0.655968 0.275082
H72   H     H_    0.869904 0.358459 0.291411 0.093606
H73   H     H_    0.165214 0.652441 0.655255 0.086730
N1    N     N_R   0.212277 0.517811 0.201342 -0.426649
N2    N     N_R   0.570093 0.498978 0.797632 -0.424134
N3    N     N_2   0.423594 0.346731 0.691944 -0.435274
N4    N     N_2   0.803294 0.787985 0.326833 -0.436219
N5    N     N_2   0.410091 0.129625 0.568284 -0.407428
O1    O     O_2   0.106080 0.324280 0.466820 -0.431430
O2    O     O_2   0.659347 0.576527 0.331180 -0.529154
O3    O     O_3   0.893701 0.675120 0.341575 -0.637303
O4    O     O_3   0.859130 0.413620 0.470620 -0.488625
O5    O     O_3   0.459240 0.537930 0.559910 -0.448159
O6    O     O_2   0.583120 0.462390 0.379940 -0.485078
O7    O     O_3   0.386890 0.347719 0.361432 -0.644504
O8    O     O_2   0.569681 0.755703 0.472010 -0.482972
O9    O     O_3   0.422897 0.737742 0.382697 -0.624028
O10   O     O_2   0.259670 0.399044 0.192037 -0.607688
O11   O     O_2   0.607168 0.380368 0.794482 -0.573853
O12   O     O_3   0.386113 0.653196 0.620705 -0.636458
O13   O     O_2   0.148602 0.634139 0.204316 -0.608921
O14   O     O_2   0.513293 0.617035 0.804925 -0.570296
O15   O     O_3   0.376230 0.370290 0.556910 -0.469170
O16   O     O_2   0.250580 0.245899 0.525687 -0.468542
O17   O     O_3   0.911013 0.321744 0.387024 -0.613858
O18   O     O_3   0.373038 0.262166 0.618955 -0.607519
O19   O     O_2   0.227190 0.537650 0.620070 -0.471072
O20   O     O_3   0.971110 0.406970 0.583250 -0.501424
O21   O     O_2   0.104417 0.454666 0.673799 -0.476874
O22   O     O_2   0.274438 0.781526 0.611467 -0.637142
O23   O     O_3   0.021032 0.321119 0.658444 -0.577622
O24   O     O_R   0.106889 0.795480 0.676725 -0.745484
O25   O     O_2   0.643401 0.208505 0.756489 -0.505934
O26   O     O_R   0.420759 0.161998 0.713223 -0.718553
O27   O     O_2   0.526753 0.190923 0.306429 -0.597267
O28   O     O_R   0.559290 0.224502 0.391188 -0.748430
O29   O     O_2   0.930315 0.183174 0.354281 -0.585631
O30   O     O_R   0.177682 0.216639 0.390268 -0.723526
O31   O     O_2   0.947096 0.385011 0.760790 -0.575068
O32   O     O_R   0.934159 0.496498 0.805823 -0.732520
O33   O     O_2   0.798372 0.319983 0.858664 -0.530427
O34   O     O_2   0.704230 0.675760 0.533200 -0.467267
O35   O     O_R   0.609675 0.247688 0.881307 -0.726699
O36   O     O_2   0.153663 0.760934 0.122153 -0.591823
O37   O     O_R   0.340593 0.735922 0.182890 -0.747377
O38   O     O_2   0.792928 0.687721 0.730372 -0.532301
O39   O     O_R   0.922138 0.590627 0.691182 -0.737249
O40   O     O_3   0.951180 0.586390 0.529420 -0.472443
O41   O     O_3   0.434080 0.629720 0.443130 -0.452138
O42   O     O_3   0.908741 0.680251 0.613462 -0.670758
O43   O     O_3   0.351080 0.462080 0.440130 -0.441651
O44   O     O_3   0.839200 0.593040 0.416790 -0.453681
P1    P     P_3+3 0.929380 0.335110 0.452880 1.033206
P2    P     P_3+3 0.398530 0.559060 0.613740 0.995573
P3    P     P_3+3 0.965326 0.407476 0.647810 0.986340
P4    P     P_3+3 0.880940 0.664900 0.547160 1.002371
P5    P     P_3+3 0.837275 0.589548 0.351407 0.949855
P6    P     P_3+3 0.401216 0.278165 0.556628 0.998527
P7    P     P_3+3 0.399714 0.441209 0.376609 0.962445
P8    P     P_3+3 0.414397 0.721924 0.444854 0.978852

loop_
_geom_bond_atom_site_label_1
_geom_bond_atom_site_label_2
_ccdc_geom_bond_type
O20   P3    S    
C19   C31   A    
H50   N3    S    
Ba2   O43   S    
C66   P3    S    
C86   N4    S    
C53   C57   A    
C71   C72   A    
C36   P1    S    
C73   C80   A    
C23   C85   S    
O4    P1    S    
C82   N3    S    
C7    C89   A    
C4    O23   S    
C45   N4    S    
C23   O7    S    
C5    C6    A    
C43   C44   S    
C63   O11   D    
C79   H42   S    
C88   N5    S    
C67   H18   S    
C24   C25   A    
C60   C61   A    
C54   C77   A    
O3    P5    S    
C64   H72   S    
C61   C79   A    
C34   H8    S    
C40   H1    S    
C93   O39   S    
C86   H61   S    
C16   H48   S    
C33   C35   A    
C35   C36   A    
C22   C24   A    
C4    H32   S    
Ba1   Ba2   S    
C27   H30   S    
C49   C75   A    
C41   C50   S    
Ba1   O15   S    
C38   O13   D    
C51   C68   D    
C13   C14   A    
C20   C36   A    
O17   P1    S    
C75   C92   S    
C22   H29   S    
C28   H49   S    
C54   C55   A    
C64   H67   S    
C51   H47   S    
Ba1   O43   S    
C88   H64   S    
O41   P8    S    
C51   C66   S    
C14   H27   S    
C38   N1    Am   
C7    C11   A    
C90   O32   S    
H71   O39   S    
C28   O42   S    
C9    C13   A    
C76   C81   S    
C46   C49   A    
C52   H45   S    
C78   H21   S    
C14   C15   A    
C81   H3    S    
Ba2   O44   S    
C39   C44   D    
C21   C87   S    
C16   H41   S    
Ba1   P1    S    
H62   O30   S    
Ba2   O4    S    
C52   O17   S    
C40   H12   S    
C4    H22   S    
C11   C25   A    
C45   O3    S    
C90   O31   D    
C84   O26   S    
C2    C89   A    
C58   C91   S    
C42   C50   D    
C87   O29   D    
C78   H24   S    
C57   C58   A    
C54   C73   A    
C81   H4    S    
C19   C20   A    
C1    C84   S    
C88   H65   S    
C39   C41   S    
O40   P4    S    
C85   O27   D    
C5    H26   S    
C27   C29   A    
C91   O33   D    
O42   P4    S    
C39   H39   S    
O23   P3    S    
C69   H43   S    
C82   H53   S    
C1    H11   S    
C4    C16   S    
C18   C89   A    
C57   H37   S    
C72   C73   A    
C3    H25   S    
C56   H16   S    
C86   H60   S    
C46   C72   A    
O5    P2    S    
C55   C60   A    
C41   P5    S    
C83   O22   D    
C8    H28   S    
H69   O35   S    
C3    C5    A    
C2    C21   A    
C6    C7    A    
O21   P3    D    
C18   C26   A    
Ba2   O41   S    
O8    P8    D    
C45   H14   S    
O6    P7    D    
H68   O32   S    
Ba2   P4    S    
C65   C66   S    
C64   H56   S    
C58   C59   A    
C70   N2    S    
H70   O37   S    
Ba1   O20   S    
O43   P7    S    
C28   C93   S    
C33   P6    S    
Ba1   O5    S    
H63   N5    S    
C29   C30   A    
C78   H20   S    
C26   C30   A    
C9    C10   A    
C80   H44   S    
C31   C32   A    
Ba1   P2    S    
C76   O12   S    
C18   C19   A    
C86   H59   S    
C67   H19   S    
C68   C69   D    
C1    C12   S    
C84   O25   D    
O1    P1    D    
C12   O18   S    
C76   C83   S    
C83   O24   S    
C46   C47   A    
C87   O30   S    
C13   P8    S    
C92   O37   S    
H58   N4    S    
C8    C9    A    
C53   C55   A    
Ba1   O40   S    
C92   O36   D    
C71   C74   A    
C56   H17   S    
H57   O28   S    
Ba2   O6    S    
C15   C17   A    
O18   P6    S    
H55   O26   S    
C65   C70   D    
C42   C43   D    
C77   C79   A    
C82   H52   S    
O44   P5    S    
C52   H34   S    
Ba1   O19   S    
O12   P2    S    
C37   C47   A    
C34   H10   S    
C56   H15   S    
C40   H23   S    
Ba2   O40   S    
C50   H46   S    
C12   N3    S    
C74   H38   S    
O16   P6    D    
O9    P8    S    
C12   H5    S    
C52   C64   S    
C82   H51   S    
C38   C49   A    
C77   H40   S    
C67   O9    S    
C76   H73   S    
C68   P2    S    
O19   P2    D    
C44   N1    S    
C63   N2    Am   
C34   H9    S    
C93   O38   D    
C35   H33   S    
C17   C22   A    
Ba1   O1    S    
C37   N1    Am   
C32   N5    S    
C45   C56   S    
C1    H6    S    
C75   C80   A    
C2    C3    A    
C10   C17   A    
C65   C90   S    
C31   C33   A    
O2    P5    D    
O7    P7    S    
C62   N2    Am   
C59   C60   A    
C23   H7    S    
C16   H13   S    
C62   O14   D    
C15   P4    S    
C48   H36   S    
C23   C34   S    
C61   C62   A    
C53   C71   A    
O15   P6    S    
C59   C63   A    
C88   H66   S    
C43   H35   S    
C69   C70   S    
C10   C11   A    
C24   C27   A    
C6    C8    A    
C47   C48   A    
C81   H2    S    
H54   O24   S    
C25   C26   A    
C20   C21   A    
C28   C40   S    
C67   C78   S    
Ba2   O34   S    
Ba2   O5    S    
C29   H31   S    
C91   O35   S    
Ba1   O4    S    
C85   O28   S    
C37   O10   D    
C42   P7    S    
C30   C32   A    
O34   P4    D    
C48   C74   A    
