data_mof_unit_39780.cif
_audit_creation_date              2012-12-10T20:40:55-0500
_audit_creation_method            fapswitch 2.2
_symmetry_space_group_name_H-M    P1
_symmetry_Int_Tables_number       1
_space_group_crystal_system       triclinic
_cell_length_a                    27.725051
_cell_length_b                    10.74195
_cell_length_c                    9.866094
_cell_angle_alpha                 89.952337
_cell_angle_beta                  90.127254
_cell_angle_gamma                 90.471986
_cell_volume                      2938.2231659

loop_
_atom_site_label
_atom_site_type_symbol
_atom_type_description
_atom_site_fract_x
_atom_site_fract_y
_atom_site_fract_z
_atom_type_partial_charge
C1    C     C_R   0.500283 0.260358 0.499991 0.919093
C2    C     C_R   0.277705 0.449936 0.605832 -0.087535
C3    C     C_R   0.253222 0.504832 0.497327 0.307482
C4    C     C_R   0.101829 0.501891 0.487596 -0.054220
C5    C     C_R   0.127504 0.389929 0.475536 -0.020337
C6    C     C_R   0.102483 0.277504 0.461223 -0.134642
C7    C     C_R   0.127327 0.614915 0.503132 -0.021772
C8    C     C_R   0.353632 0.502510 0.499576 -0.026432
C9    C     C_R   0.646074 0.495053 0.499192 -0.088290
C10   C     C_R   0.974621 0.387274 0.452926 0.007985
C11   C     C_R   0.974374 0.610639 0.509761 0.052658
C12   C     C_R   0.406129 0.500517 0.499885 0.859406
C13   C     C_R   0.949142 0.497904 0.480990 0.075682
C14   C     C_R   0.948260 0.280335 0.414193 -0.252409
C15   C     C_R   0.898164 0.277917 0.411064 0.234570
C16   C     C_R   0.872123 0.385926 0.446204 -0.090197
C17   C     C_R   0.897973 0.495881 0.481060 -0.083350
C18   C     C_R   0.872654 0.604302 0.516989 -0.012889
C19   C     C_R   0.822409 0.601437 0.520748 0.519032
C20   C     C_R   0.821284 0.389739 0.447381 0.540067
C21   C     C_R   0.722177 0.415839 0.580211 -0.104496
C22   C     C_R   0.672010 0.413806 0.584035 0.120156
C23   C     C_R   0.497790 0.739707 0.499021 0.909743
C24   C     C_R   0.670566 0.573676 0.408692 -0.250809
C25   C     C_R   0.720568 0.573636 0.404147 -0.072688
C26   C     C_R   0.746472 0.495408 0.490532 0.254950
C27   C     C_R   0.025617 0.386815 0.463500 0.063287
C28   C     C_R   0.050755 0.500798 0.484446 0.073327
C29   C     C_R   0.025388 0.613638 0.502813 0.046660
C30   C     C_R   0.052516 0.275627 0.455863 -0.211840
C31   C     C_R   0.102122 0.726321 0.513988 -0.131978
C32   C     C_R   0.947627 0.716522 0.546880 -0.207897
C33   C     C_R   0.897781 0.713104 0.550507 -0.108854
C34   C     C_R   0.593742 0.497481 0.500094 0.910339
C35   C     C_R   0.052113 0.726021 0.513383 -0.212541
C36   C     C_R   0.515669 0.062262 0.611502 0.089164
C37   C     C_R   0.502125 0.128787 0.497507 -0.109902
C38   C     C_R   0.490474 0.067293 0.377209 -0.258909
C39   C     C_R   0.486470 0.938940 0.373465 0.163281
C40   C     C_R   0.496959 0.872020 0.494973 -0.138385
C41   C     C_R   0.512781 0.935317 0.610634 0.062313
C42   C     C_3   0.495517 0.931646 0.755684 0.277036
C43   C     C_3   0.499192 0.073312 0.754884 -0.486085
C44   C     C_R   0.459854 0.532112 0.070099 0.195952
C45   C     C_R   0.177923 0.393062 0.479079 0.504876
C46   C     C_R   0.541088 0.476182 0.072240 -0.144283
C47   C     C_R   0.540968 0.475158 0.928410 -0.122219
C48   C     C_R   0.460489 0.537902 0.928025 0.198457
C49   C     C_3   0.410507 0.488084 0.914659 -0.489262
C50   C     C_3   0.410620 0.471959 0.068062 -0.102907
C51   C     C_R   0.177758 0.613780 0.506707 0.507130
C52   C     C_R   0.278868 0.559393 0.390516 -0.088990
C53   C     C_R   0.328936 0.558528 0.391817 -0.230514
C54   C     C_R   0.327804 0.448678 0.606944 -0.209823
H1    H     H_    0.346217 0.403771 0.690110 0.148021
H2    H     H_    0.259929 0.602130 0.306633 0.145990
H3    H     H_    0.120964 0.814710 0.523081 0.191860
H4    H     H_    0.964127 0.803053 0.577913 0.148191
H5    H     H_    0.650927 0.635547 0.342010 0.164720
H6    H     H_    0.878972 0.796817 0.580069 0.204960
H7    H     H_    0.739268 0.634309 0.333639 0.163223
H8    H     H_    0.035502 0.816183 0.518362 0.143118
H9    H     H_    0.481168 0.119928 0.287907 0.172208
H10   H     H_    0.257841 0.407707 0.688573 0.146007
H11   H     H_    0.463821 0.120629 0.762064 0.204458
H12   H     H_    0.527585 0.113389 0.821885 0.213445
H13   H     H_    0.573961 0.454888 0.126247 0.172983
H14   H     H_    0.573745 0.453475 0.874998 0.188954
H15   H     H_    0.385233 0.561332 0.879758 0.202991
H16   H     H_    0.408201 0.401246 0.854413 0.214072
H17   H     H_    0.383252 0.531850 0.116556 0.136788
H18   H     H_    0.121436 0.189907 0.454570 0.192408
H19   H     H_    0.742456 0.354070 0.645318 0.175437
H20   H     H_    0.965791 0.196400 0.382075 0.160944
H21   H     H_    0.036075 0.184623 0.449498 0.144106
H22   H     H_    0.348252 0.603141 0.309937 0.143845
N1    N     N_R   0.201807 0.503879 0.494684 -0.358291
N2    N     N_R   0.797978 0.495549 0.486023 -0.355779
N3    N     N_R   0.499670 0.499140 0.142800 -0.112759
N4    N     N_R   0.499670 0.499180 0.857150 -0.112968
O1    O     O_R   0.500010 0.316790 0.614690 -0.610796
O2    O     O_2   0.794847 0.290016 0.409430 -0.501288
O3    O     O_2   0.202645 0.721285 0.523152 -0.545548
O4    O     O_2   0.797958 0.703449 0.559981 -0.538828
O5    O     O_R   0.500000 0.316760 0.385350 -0.628779
O6    O     O_R   0.428760 0.500040 0.614660 -0.612200
O7    O     O_R   0.428750 0.500000 0.385310 -0.643311
O8    O     O_R   0.500000 0.683240 0.614650 -0.603077
O9    O     O_R   0.499990 0.683210 0.385310 -0.626679
O10   O     O_R   0.571250 0.500000 0.614690 -0.605912
O11   O     O_R   0.571240 0.499960 0.385340 -0.626592
O12   O     O_2   0.202989 0.286548 0.465844 -0.551842
Zn1   Zn    Zn3+2 0.500000 0.500020 0.653130 0.965028
Zn2   Zn    Zn3+2 0.500000 0.499980 0.346870 0.938640
C55   C     C_3   0.467558 0.882120 0.241633 -0.377625
C56   C     C_3   0.416389 0.830380 0.257717 -0.787849
H23   H     H_    0.404460 0.786940 0.161052 0.240588
H24   H     H_    0.414482 0.759243 0.338916 0.259557
H25   H     H_    0.391287 0.906928 0.283117 0.262516
H26   H     H_    0.466082 0.953171 0.159916 0.187368
H27   H     H_    0.492356 0.811352 0.200309 0.222618
I1    I     I_    0.421865 0.869306 0.779445 -0.437874
C57   C     C_3   0.529796 0.867109 0.857493 -0.392750
C58   C     C_3   0.583681 0.880932 0.826043 -0.799563
H28   H     H_    0.592406 0.834873 0.728489 0.262933
H29   H     H_    0.594605 0.980405 0.821243 0.275136
H30   H     H_    0.604924 0.835290 0.907354 0.250252
H31   H     H_    0.522905 0.904739 0.960415 0.198099
H32   H     H_    0.520977 0.766210 0.860745 0.233491
C59   C     C_3   0.406646 0.334351 0.114814 -0.298683
C60   C     C_3   0.445148 0.245867 0.060086 -0.835090
H33   H     H_    0.449133 0.252316 0.948969 0.253894
H34   H     H_    0.480624 0.264778 0.107753 0.267819
H35   H     H_    0.434376 0.148723 0.084189 0.236513
H36   H     H_    0.407428 0.329899 0.226960 0.229244
H37   H     H_    0.370681 0.298419 0.082872 0.204782
I2    I     I_    0.638640 0.276664 0.708675 -0.389406
I3    I     I_    0.868375 0.101201 0.353967 -0.251910

loop_
_geom_bond_atom_site_label_1
_geom_bond_atom_site_label_2
_ccdc_geom_bond_type
C10   C27   A    
C22   I2    S    
C44   C48   A    
C21   C26   A    
O7    Zn2   S    
C20   O2    S    
C41   C42   S    
C54   H1    S    
C55   C56   S    
C32   H4    S    
C42   C57   S    
C58   H29   S    
C6    H18   S    
C28   C29   A    
C26   N2    S    
C14   H20   S    
C36   C37   A    
C24   H5    S    
C5    C6    A    
C9    C22   A    
C1    O1    A    
C23   C40   S    
C56   H25   S    
C21   H19   S    
C50   C59   S    
C18   C19   A    
O9    Zn2   S    
C45   O12   S    
C34   O11   A    
C46   C47   A    
C46   N3    A    
C60   H33   S    
C16   C17   A    
C56   H24   S    
C23   O9    A    
C57   H31   S    
C35   H8    S    
C16   C20   A    
C51   O3    S    
C49   H15   S    
C21   C22   A    
C27   C30   A    
C36   C41   A    
C47   N4    A    
C4    C7    A    
C42   I1    S    
C58   H28   S    
C4    C28   A    
C2    H10   S    
C1    O5    A    
C7    C31   A    
C43   H11   S    
C24   C25   A    
N3    Zn2   S    
C2    C54   A    
C8    C54   A    
C39   C40   A    
C55   H26   S    
C25   C26   A    
C5    C45   A    
C59   C60   S    
C19   N2    A    
C50   H17   S    
C51   N1    A    
C37   C38   A    
O6    Zn1   S    
O1    Zn1   S    
O5    Zn2   S    
C34   O10   A    
C23   O8    A    
C8    C12   S    
C56   H23   S    
C17   C18   A    
C60   H34   S    
C25   H7    S    
C39   C55   S    
C48   C49   S    
C6    C30   A    
C11   C32   A    
C33   H6    S    
C49   H16   S    
C10   C14   A    
C9    C34   S    
C31   C35   A    
C53   H22   S    
C42   C43   S    
C19   O4    S    
C3    N1    S    
C59   H37   S    
C47   H14   S    
C57   C58   S    
C52   C53   A    
O10   Zn1   S    
C38   H9    S    
C44   C50   S    
O8    Zn1   S    
C40   C41   A    
C12   O7    A    
C44   N3    A    
C4    C5    A    
C10   C13   A    
C8    C53   A    
C3    C52   A    
C9    C24   A    
C20   N2    A    
C29   C35   A    
C55   H27   S    
C15   I3    S    
C12   O6    A    
C57   H32   S    
C32   C33   A    
C48   N4    A    
C2    C3    A    
C7    C51   A    
C46   H13   S    
O11   Zn2   S    
C30   H21   S    
C11   C13   A    
C31   H3    S    
C38   C39   A    
C43   H12   S    
C60   H35   S    
C18   C33   A    
C13   C17   A    
C52   H2    S    
C11   C29   A    
C49   C50   S    
C27   C28   A    
C14   C15   A    
C36   C43   S    
C45   N1    A    
N4    Zn1   S    
C59   H36   S    
C58   H30   S    
C15   C16   A    
C1    C37   S    
