data_mof_unit_26585.cif
_audit_creation_date              2012-12-11T17:00:19-0500
_audit_creation_method            fapswitch 2.2
_symmetry_space_group_name_H-M    P1
_symmetry_Int_Tables_number       1
_space_group_crystal_system       triclinic
_cell_length_a                    6.946829
_cell_length_b                    13.572734
_cell_length_c                    20.271138
_cell_angle_alpha                 103.1458
_cell_angle_beta                  89.633674
_cell_angle_gamma                 91.086565
_cell_volume                      1860.88825138

loop_
_atom_site_label
_atom_site_type_symbol
_atom_type_description
_atom_site_fract_x
_atom_site_fract_y
_atom_site_fract_z
_atom_type_partial_charge
O1    O     O_R   0.506770 0.599700 0.449550 -0.539611
O2    O     O_R   0.179980 0.595740 0.587960 -0.553345
O3    O     O_R   0.004580 0.400300 0.550450 -0.544785
C1    C     C_R   0.348433 0.616616 0.615312 0.705350
O4    O     O_R   0.177380 0.611700 0.452380 -0.518080
O5    O     O_R   0.001970 0.416370 0.413900 -0.527385
C2    C     C_R   0.347488 0.637461 0.434948 0.770378
O6    O     O_R   0.509390 0.583630 0.586100 -0.536989
O7    O     O_3   0.337530 0.435890 0.487530 -0.376859
V1    V     V_3+5 0.064660 0.511890 0.502310 1.473418
O8    O     O_R   0.671950 0.404260 0.412040 -0.544754
C3    C     C_R   0.840233 0.382179 0.384912 0.729722
O9    O     O_R   0.674540 0.388300 0.547620 -0.545143
C4    C     C_R   0.841135 0.362138 0.564763 0.677511
V2    V     V_3+5 0.564030 0.488110 0.497690 1.452503
O10   O     O_3   0.841030 0.564110 0.512470 -0.366176
C5    C     C_R   0.714711 0.121777 0.615554 -0.098338
H1    H     H_    0.725264 0.168952 0.521841 0.102824
H2    H     H_    0.652200 0.049398 0.590750 0.164006
C6    C     C_R   0.837548 0.284563 0.604316 -0.029452
C7    C     C_R   0.952615 0.311750 0.927378 -0.161504
C8    C     C_R   0.983042 0.385627 0.890835 -0.118073
C9    C     C_R   0.940238 0.365684 0.822007 -0.140385
C10   C     C_R   0.860421 0.270978 0.788045 0.079183
C11   C     C_R   0.815646 0.198469 0.827170 0.024738
C12   C     C_R   0.827719 0.245084 0.716490 0.033233
C13   C     C_R   0.744642 0.148612 0.686051 0.071999
C14   C     C_R   0.690504 0.081284 0.726556 0.294255
C15   C     C_R   0.724003 0.106818 0.795896 -0.162096
C16   C     C_R   0.874749 0.311738 0.673873 -0.192693
C17   C     C_R   0.758784 0.189500 0.575430 -0.183199
C18   C     C_R   0.870085 0.217959 0.896441 -0.068313
H3    H     H_    0.932064 0.386987 0.693262 0.089826
H4    H     H_    0.996076 0.327293 0.980052 0.107998
H5    H     H_    0.972495 0.426066 0.797035 0.099980
H6    H     H_    0.045764 0.458147 0.915623 0.115617
H7    H     H_    0.682251 0.051875 0.824674 0.175513
C19   C     C_R   0.701381 0.240231 0.207355 0.082581
C20   C     C_R   0.863507 0.181970 0.184893 -0.113491
C21   C     C_R   0.011204 0.181831 0.232387 -0.163167
H8    H     H_    0.134054 0.133414 0.218638 0.131529
C22   C     C_R   0.003902 0.246000 0.297790 -0.157840
H9    H     H_    0.122721 0.246390 0.332186 0.131372
C23   C     C_R   0.846509 0.310314 0.317836 -0.083738
C24   C     C_R   0.692652 0.302401 0.272441 0.068306
C25   C     C_3   0.596625 0.385493 0.248639 -0.373456
C26   C     C_3   0.611016 0.319626 0.177321 -0.004279
H10   H     H_    0.686965 0.455692 0.256343 0.181019
H11   H     H_    0.447064 0.396975 0.268418 0.209110
H12   H     H_    0.709069 0.351251 0.143353 0.138932
C27   C     C_R   0.477706 0.667626 0.734316 0.093815
C28   C     C_R   0.352074 0.682920 0.684074 -0.121454
C29   C     C_R   0.214170 0.758907 0.703018 -0.158055
H13   H     H_    0.111789 0.771966 0.665954 0.166252
C30   C     C_R   0.217702 0.824878 0.767612 0.285986
C31   C     C_R   0.353788 0.812910 0.816778 -0.142022
C32   C     C_R   0.477573 0.730357 0.799041 0.037223
C33   C     C_3   0.691305 0.725546 0.804619 -0.361340
C34   C     C_3   0.691138 0.657558 0.733680 -0.376741
H14   H     H_    0.734925 0.685847 0.844298 0.153530
H15   H     H_    0.763513 0.800012 0.807516 0.230585
H16   H     H_    0.735076 0.578863 0.732586 0.146820
H17   H     H_    0.762779 0.693023 0.695412 0.204013
C35   C     C_R   0.458338 0.883030 0.387223 -0.155325
H18   H     H_    0.480470 0.827163 0.477410 0.139535
H19   H     H_    0.508356 0.957498 0.413504 0.122988
C36   C     C_R   0.362775 0.713959 0.394540 -0.073488
C37   C     C_R   0.345289 0.682601 0.069252 -0.176164
C38   C     C_R   0.356076 0.606549 0.104743 -0.115469
C39   C     C_R   0.367316 0.631062 0.175193 -0.074517
C40   C     C_R   0.358326 0.732592 0.212262 0.088458
C41   C     C_R   0.366475 0.810073 0.175478 0.001634
C42   C     C_R   0.361423 0.759377 0.284507 0.005837
C43   C     C_R   0.417354 0.860172 0.317433 0.057447
C44   C     C_R   0.430404 0.935981 0.279877 0.185504
C45   C     C_R   0.396080 0.911119 0.210497 -0.174026
C46   C     C_R   0.311023 0.690475 0.325658 0.173856
C47   C     C_R   0.440598 0.808988 0.424351 -0.195842
C48   C     C_R   0.354320 0.784155 0.103855 -0.055502
H20   H     H_    0.338832 0.662342 0.014410 0.098368
H21   H     H_    0.394504 0.569926 0.199599 0.165316
H22   H     H_    0.360552 0.528155 0.077455 0.132034
H23   H     H_    0.403500 0.971656 0.183707 0.132205
O11   O     O_R   0.203450 0.916320 0.913910 -0.519570
O12   O     O_R   0.535520 0.888300 0.047620 -0.541300
O13   O     O_R   0.710860 0.083650 0.086100 -0.544386
C49   C     C_R   0.365461 0.861398 0.063977 0.675275
O14   O     O_R   0.532860 0.904250 0.912040 -0.543552
O15   O     O_R   0.708190 0.099710 0.949550 -0.548082
C50   C     C_R   0.364288 0.883146 0.884553 0.754226
O16   O     O_R   0.206120 0.900260 0.050460 -0.541923
O17   O     O_3   0.375280 0.064080 0.012470 -0.381380
V3    V     V_3+5 0.648180 0.988110 0.997690 1.433420
O18   O     O_R   0.038220 0.111740 0.952370 -0.523977
C51   C     C_R   0.871016 0.137850 0.934869 0.725194
O19   O     O_R   0.040880 0.095790 0.087940 -0.546333
C52   C     C_R   0.872485 0.117278 0.115307 0.687488
V4    V     V_3+5 0.148800 0.011950 0.002300 1.457869
O20   O     O_3   0.871820 0.935920 0.987530 -0.365814
N1    N     N_3   0.422346 0.288931 0.147094 -0.637056
H24   H     H_    0.445123 0.241346 0.099517 0.244933
H25   H     H_    0.346791 0.246559 0.176138 0.247898
Br1   Br    Br    0.060530 0.941306 0.780250 -0.559743
Br2   Br    Br    0.575925 0.950244 0.689957 -0.568907
N2    N     N_3   0.475474 0.039686 0.310880 -0.684731
H26   H     H_    0.374029 0.065975 0.348816 0.223993
H27   H     H_    0.612311 0.043831 0.332607 0.230418
Br3   Br    Br    0.135369 0.576469 0.295079 -0.623174

loop_
_geom_bond_atom_site_label_1
_geom_bond_atom_site_label_2
_ccdc_geom_bond_type
C37   H20   S    
C30   C31   A    
C49   O16   A    
C42   C43   A    
O12   V3    S    
C36   C46   A    
C41   C45   A    
C48   C49   S    
O17   V4    S    
C6    C16   A    
C24   C25   S    
C23   C24   A    
N2    H27   S    
C25   H11   S    
C12   C13   A    
O11   C50   A    
C1    C28   S    
C14   C15   A    
C10   C12   A    
C41   C48   A    
O5    C3    A    
C19   C20   A    
C20   C52   S    
O18   V4    S    
C33   H14   S    
V2    O10   S    
C30   Br1   S    
C31   C32   A    
C39   H21   S    
O13   C52   A    
O17   V3    S    
C19   C24   A    
C38   H22   S    
O14   V3    S    
O8    V2    S    
C37   C38   A    
O19   V4    S    
C9    C10   A    
C39   C40   A    
C27   C32   A    
O7    V1    S    
V3    O20   S    
C1    O6    A    
C33   H15   S    
C21   C22   A    
O9    C4    A    
C38   C39   A    
C36   C47   A    
C22   C23   A    
C45   H23   S    
C26   H12   S    
C29   C30   A    
C11   C15   A    
C7    C18   A    
C25   H10   S    
C43   C44   A    
O12   C49   A    
C27   C28   A    
C5    C13   A    
C4    C6    S    
C10   C11   A    
C20   C21   A    
C40   C42   A    
C7    H4    S    
C33   C34   S    
C29   H13   S    
C26   N1    S    
C35   H19   S    
O15   C51   A    
O2    C1    A    
C44   C45   A    
O13   V3    S    
C14   Br2   S    
O19   C52   A    
N1    H25   S    
C19   C26   S    
O3    C4    A    
O1    V2    S    
C21   H8    S    
O14   C50   A    
C12   C16   A    
O6    V2    S    
C9    H5    S    
O9    V2    S    
C5    C17   A    
C27   C34   S    
C22   H9    S    
O2    V1    S    
C28   C29   A    
O4    C2    A    
C25   C26   S    
C34   H16   S    
C42   C46   A    
H18   C47   S    
C16   H3    S    
O1    C2    A    
C35   C47   A    
C46   Br3   S    
O5    V1    S    
O8    C3    A    
C44   N2    S    
C8    H6    S    
N2    H26   S    
C34   H17   S    
O11   V4    S    
O7    V2    S    
O4    V1    S    
C3    C23   S    
O3    V1    S    
V1    O10   S    
C32   C33   S    
C11   C18   A    
C31   C50   S    
N1    H24   S    
C5    H2    S    
O16   V4    S    
O15   V3    S    
O18   C51   A    
C2    C36   S    
C40   C41   A    
C18   C51   S    
C37   C48   A    
V4    O20   S    
C15   H7    S    
C13   C14   A    
C35   C43   A    
C8    C9    A    
H1    C17   S    
C7    C8    A    
C6    C17   A    
