data_mof_unit_7800.cif
_audit_creation_date              2012-12-11T14:56:23-0500
_audit_creation_method            fapswitch 2.2
_symmetry_space_group_name_H-M    P1
_symmetry_Int_Tables_number       1
_space_group_crystal_system       triclinic
_cell_length_a                    10.530047
_cell_length_b                    10.71779
_cell_length_c                    17.052719
_cell_angle_alpha                 80.080332
_cell_angle_beta                  90.260247
_cell_angle_gamma                 119.4789
_cell_volume                      1643.10598356

loop_
_atom_site_label
_atom_site_type_symbol
_atom_type_description
_atom_site_fract_x
_atom_site_fract_y
_atom_site_fract_z
_atom_type_partial_charge
C1    C     C_R   0.222673 0.854152 0.128678 0.546266
C2    C     C_1   0.685275 0.400595 0.709921 -0.065472
C3    C     C_R   0.620212 0.709884 0.809042 -0.114454
C4    C     C_R   0.610332 0.207050 0.102559 0.550566
C5    C     C_R   0.587533 0.692079 0.731911 -0.014111
C6    C     C_R   0.664998 0.815938 0.668474 0.036834
C7    C     C_R   0.757744 0.954307 0.685914 -0.155396
C8    C     C_R   0.770841 0.971796 0.764591 -0.147389
C9    C     C_R   0.696248 0.849369 0.826029 0.013877
C10   C     C_R   0.083825 0.900957 0.790058 -0.124324
C11   C     C_R   0.045463 0.884656 0.713521 -0.127337
C12   C     C_R   0.704507 0.232896 0.315522 -0.051527
C13   C     C_R   0.046961 0.773992 0.681356 0.015374
C14   C     C_R   0.069690 0.668577 0.730389 -0.142476
C15   C     C_R   0.112992 0.687427 0.806945 -0.130624
C16   C     C_R   0.642187 0.857375 0.124684 0.539043
C17   C     C_R   0.129383 0.809558 0.834858 0.029015
C18   C     C_R   0.686445 0.809363 0.357041 0.567354
C19   C     C_R   0.680520 0.382703 0.400268 0.559311
C20   C     C_R   0.104191 0.810677 0.359383 0.563796
C21   C     C_R   0.677920 0.796361 0.587473 0.528450
C22   C     C_R   0.717541 0.445402 0.626062 0.535790
C23   C     C_R   0.705061 0.204656 0.239649 0.215339
C24   C     C_R   0.027787 0.774028 0.596510 0.542600
C25   C     C_R   0.214203 0.858445 0.902432 0.552555
C26   C     C_R   0.640280 0.290666 0.861963 0.563170
C27   C     C_R   0.649273 0.866290 0.900693 0.551233
C28   C     C_R   0.521300 0.278847 0.211388 -0.154668
C29   C     C_R   0.531161 0.316669 0.285922 -0.148597
C30   C     C_R   0.629315 0.301138 0.336201 -0.025213
C31   C     C_3   0.464087 0.541695 0.723421 -0.238686
C32   C     C_3   0.324087 0.544046 0.701450 -0.278581
C33   C     C_3   0.206830 0.395359 0.686035 -0.446740
C34   C     C_R   0.613816 0.230750 0.185027 0.011638
C35   C     C_1   0.670815 0.845827 0.204764 -0.009935
C36   C     C_1   0.681177 0.836179 0.274425 0.020605
C37   C     C_1   0.181198 0.825785 0.211389 -0.029863
C38   C     C_1   0.152110 0.820460 0.279987 -0.030552
C39   C     C_1   0.661898 0.356947 0.780470 -0.051994
Cr1   Cr    Cr6+3 0.402240 0.783890 0.019450 1.032364
Cr2   Cr    Cr6+3 0.382360 0.097900 0.991800 1.019056
Cr3   Cr    Cr6+3 0.715380 0.118170 0.988700 1.015905
Cr4   Cr    Cr6+3 0.936650 0.882420 0.465510 1.029555
Cr5   Cr    Cr6+3 0.605770 0.565620 0.493360 1.008752
Cr6   Cr    Cr6+3 0.921340 0.550490 0.496380 1.015470
H1    H     H_    0.447619 0.296662 0.172655 0.157503
H2    H     H_    0.089572 0.993242 0.811094 0.133866
H3    H     H_    0.813967 0.161370 0.166133 0.366247
H4    H     H_    0.247159 0.365764 0.636129 0.164831
H5    H     H_    0.177613 0.309596 0.740580 0.145263
H6    H     H_    0.106668 0.399199 0.669375 0.146682
H7    H     H_    0.282392 0.570754 0.751896 0.156529
H8    H     H_    0.346347 0.628891 0.647476 0.199752
H9    H     H_    0.497026 0.495845 0.680580 0.199101
H10   H     H_    0.435824 0.461024 0.780351 0.126252
H11   H     H_    0.023013 0.964160 0.677821 0.136155
H12   H     H_    0.062001 0.576975 0.708065 0.131307
H13   H     H_    0.141646 0.612234 0.842141 0.126230
H14   H     H_    0.470220 0.367391 0.301587 0.151396
H15   H     H_    0.777047 0.215632 0.355666 0.168142
H16   H     H_    0.565686 0.616300 0.857840 0.130393
H17   H     H_    0.818461 0.049005 0.638555 0.132444
H18   H     H_    0.831081 0.081152 0.777033 0.139324
O1    O     O_R   0.521780 0.757110 0.108900 -0.508183
O2    O     O_R   0.805020 0.410040 0.421340 -0.516449
O3    O     O_R   0.049240 0.685450 0.403290 -0.487327
O4    O     O_R   0.275160 0.783810 0.101120 -0.491185
O5    O     O_R   0.077520 0.903010 0.551800 -0.505605
O6    O     O_R   0.802980 0.872780 0.546830 -0.525801
O7    O     O_R   0.578090 0.681300 0.569920 -0.535478
O8    O     O_R   0.608530 0.436370 0.586530 -0.508667
O9    O     O_R   0.798770 0.401880 0.597100 -0.512099
O10   O     O_R   0.043450 0.677890 0.566230 -0.516494
O11   O     O_3   0.821250 0.666180 0.485090 -0.295624
O12   O     O_R   0.513330 0.228330 0.898660 -0.494998
O13   O     O_R   0.237900 0.972600 0.090980 -0.518634
O14   O     O_R   0.511190 0.220540 0.061620 -0.505565
O15   O     O_R   0.736920 0.257720 0.063840 -0.521113
O16   O     O_R   0.710450 0.984050 0.081720 -0.529688
O17   O     O_R   0.524090 0.765520 0.933110 -0.517426
O18   O     O_R   0.277300 0.791600 0.938160 -0.495065
O19   O     O_R   0.240210 0.981010 0.915190 -0.522570
O20   O     O_3   0.801282 0.158041 0.223298 -0.720333
O21   O     O_R   0.739230 0.266130 0.888050 -0.507224
O22   O     O_R   0.712580 0.991850 0.918770 -0.503714
O23   O     O_3   0.499990 0.999980 0.999980 -0.269852
O24   O     O_R   0.083770 0.911170 0.376030 -0.494441
O25   O     O_R   0.808770 0.880340 0.383890 -0.477098
O26   O     O_R   0.584340 0.689460 0.394160 -0.516032
O27   O     O_R   0.614320 0.443940 0.423590 -0.490728

loop_
_geom_bond_atom_site_label_1
_geom_bond_atom_site_label_2
_ccdc_geom_bond_type
C32   H8    S    
C35   C36   T    
C7    C8    A    
Cr2   O23   S    
C12   C23   A    
C28   H1    S    
C37   C38   T    
C23   O20   S    
Cr4   O25   S    
C20   O3    A    
C28   C29   A    
C16   C35   S    
Cr2   O14   S    
C5    C6    A    
C26   C39   S    
C10   C17   A    
C33   H4    S    
C20   O24   A    
Cr5   O8    S    
Cr6   O10   S    
Cr1   O23   S    
C27   O22   A    
C32   H7    S    
C2    C39   T    
C29   H14   S    
Cr4   O5    S    
Cr1   O4    S    
C2    C22   S    
Cr1   O17   S    
Cr5   O7    S    
Cr3   O23   S    
C1    C37   S    
Cr4   O11   S    
C28   C34   A    
Cr3   O16   S    
Cr4   O6    S    
C13   C14   A    
Cr6   O9    S    
C25   O18   A    
C18   O26   A    
Cr5   O26   S    
C22   O9    A    
C3    H16   S    
C4    C34   S    
Cr3   O21   S    
C27   O17   A    
C8    C9    A    
C33   H5    S    
C6    C21   S    
C18   O25   A    
C13   C24   S    
C21   O6    A    
Cr6   O11   S    
C7    H17   S    
C4    O15   A    
C29   C30   A    
C3    C9    A    
Cr2   O12   S    
C20   C38   S    
C31   C32   S    
C23   C34   A    
C26   O12   A    
Cr3   O22   S    
Cr5   O11   S    
Cr3   O15   S    
Cr6   O2    S    
C25   O19   A    
C15   H13   S    
C22   O8    A    
Cr6   O3    S    
Cr5   O27   S    
C9    C27   S    
C15   C17   A    
C14   H12   S    
C26   O21   A    
C12   C30   A    
C1    O13   A    
Cr1   O18   S    
C3    C5    A    
C6    C7    A    
C33   H6    S    
Cr1   O1    S    
H3    O20   S    
C21   O7    A    
C16   O16   A    
C17   C25   S    
C32   C33   S    
Cr4   O24   S    
C4    O14   A    
C19   O27   A    
Cr2   O13   S    
C11   C13   A    
Cr2   O19   S    
C1    O4    A    
C19   O2    A    
C31   H9    S    
C24   O10   A    
C10   C11   A    
C24   O5    A    
C8    H18   S    
C12   H15   S    
C10   H2    S    
C14   C15   A    
C16   O1    A    
C31   H10   S    
C19   C30   S    
C18   C36   S    
C11   H11   S    
C5    C31   S    
