data_mof_unit_52492.cif
_audit_creation_date              2012-12-10T17:33:58-0500
_audit_creation_method            fapswitch 2.2
_symmetry_space_group_name_H-M    P1
_symmetry_Int_Tables_number       1
_space_group_crystal_system       triclinic
_cell_length_a                    10.669513
_cell_length_b                    12.000782
_cell_length_c                    12.869518
_cell_angle_alpha                 93.786892
_cell_angle_beta                  90.883756
_cell_angle_gamma                 85.953673
_cell_volume                      1640.05287128

loop_
_atom_site_label
_atom_site_type_symbol
_atom_type_description
_atom_site_fract_x
_atom_site_fract_y
_atom_site_fract_z
_atom_type_partial_charge
C1    C     C_R   0.495698 0.522408 0.700382 0.913805
C2    C     C_R   0.476106 0.449541 0.972929 0.106922
C3    C     C_R   0.505581 0.551084 0.026010 0.187774
C4    C     C_R   0.742374 0.499713 0.499822 0.918939
C5    C     C_R   0.517947 0.556327 0.132527 -0.371535
C6    C     C_R   0.472114 0.359841 0.134845 0.530680
C7    C     C_R   0.458645 0.354893 0.026990 -0.327154
C8    C     C_R   0.388937 0.954419 0.397806 -0.455645
C9    C     C_R   0.398113 0.836994 0.407061 0.679502
C10   C     C_R   0.548054 0.858264 0.545247 -0.028707
C11   C     C_R   0.540525 0.976113 0.538549 0.060965
C12   C     C_3   0.121606 0.499764 0.503331 -0.083433
C13   C     C_R   0.461241 0.023825 0.462508 0.012845
C14   C     C_R   0.455040 0.140832 0.453823 -0.006915
C15   C     C_R   0.595992 0.163672 0.596245 -0.012365
C16   C     C_R   0.501084 0.477351 0.299343 0.935358
C17   C     C_R   0.607883 0.048030 0.606228 -0.304321
C18   C     C_R   0.257947 0.500203 0.500359 0.973632
C19   C     C_3   0.932033 0.474285 0.612554 0.281097
C20   C     C_3   0.078863 0.480496 0.617868 0.300412
C21   C     C_3   0.934192 0.413685 0.414941 -0.487915
C22   C     C_3   0.918985 0.615914 0.474611 -0.511271
C23   C     C_3   0.078799 0.407062 0.421511 0.324339
C24   C     C_3   0.878874 0.498611 0.501012 -0.047011
C25   C     C_3   0.905123 0.275755 0.613491 -0.263719
C26   C     C_3   0.143019 0.321628 0.261346 -0.262290
C27   C     C_3   0.550621 0.188101 0.178470 -0.334039
C28   C     C_3   0.312961 0.791490 0.243830 -0.343850
C29   C     C_1   0.632284 0.806266 0.619404 0.222248
C30   C     C_3   0.096016 0.565824 0.790480 -0.295291
C31   C     C_1   0.146323 0.377794 0.657101 0.160030
C32   C     C_3   0.061453 0.614941 0.470742 -0.322061
C33   C     C_R   0.498449 0.462619 0.187420 -0.159848
C34   C     C_R   0.490320 0.536472 0.811712 -0.044220
C35   C     C_R   0.521999 0.646089 0.971807 -0.210045
C36   C     C_R   0.514071 0.638829 0.864191 -0.191150
C37   C     C_R   0.467048 0.443429 0.866086 -0.251609
H1    H     H_    0.090260 0.630585 0.390466 0.234362
H2    H     H_    0.644273 0.218567 0.650785 0.150970
H3    H     H_    0.324607 0.991980 0.342140 0.158037
H4    H     H_    0.667973 0.016142 0.667621 0.148660
H5    H     H_    0.899537 0.329159 0.418131 0.145754
H6    H     H_    0.113480 0.324099 0.448983 0.069072
H7    H     H_    0.878638 0.639413 0.398062 0.204220
H8    H     H_    0.883809 0.681741 0.534139 0.211413
H9    H     H_    0.093030 0.685600 0.522789 0.228867
H10   H     H_    0.990193 0.263230 0.565874 0.123891
H11   H     H_    0.824390 0.252703 0.564208 0.185527
H12   H     H_    0.902010 0.441809 0.337535 0.205946
H13   H     H_    0.915347 0.214716 0.674636 0.180468
H14   H     H_    0.052607 0.281006 0.252193 0.136021
H15   H     H_    0.216197 0.263846 0.295328 0.182140
H16   H     H_    0.174353 0.339021 0.182606 0.207263
H17   H     H_    0.639073 0.223592 0.207997 0.164774
H18   H     H_    0.561807 0.153967 0.096414 0.157410
H19   H     H_    0.533188 0.117071 0.226014 0.185044
H20   H     H_    0.403659 0.814781 0.212518 0.141891
H21   H     H_    0.237567 0.858670 0.233746 0.160504
H22   H     H_    0.285507 0.716079 0.196789 0.209699
H23   H     H_    0.541760 0.634451 0.172732 0.181580
H24   H     H_    0.183573 0.526071 0.823607 0.183483
H25   H     H_    0.014985 0.517433 0.808818 0.178650
H26   H     H_    0.080420 0.650719 0.829592 0.187778
H27   H     H_    0.542891 0.724808 0.012338 0.131510
H28   H     H_    0.434074 0.277532 0.985881 0.157358
H29   H     H_    0.529869 0.711773 0.822341 0.171577
H30   H     H_    0.445236 0.365002 0.825246 0.170764
H31   H     H_    0.395053 0.178852 0.395500 0.143901
H32   H     H_    0.893482 0.548797 0.660998 0.146840
N1    N     N_R   0.523380 0.207800 0.519350 -0.104158
N2    N     N_R   0.476620 0.792180 0.480650 -0.161736
N3    N     N_1   0.700538 0.765484 0.678984 -0.251949
N4    N     N_1   0.199280 0.298861 0.687912 -0.219779
O1    O     O_R   0.506240 0.421700 0.658830 -0.624846
O2    O     O_3   0.128917 0.423738 0.322362 -0.600458
O3    O     O_3   0.447478 0.268089 0.188938 -0.615855
O4    O     O_3   0.322927 0.765412 0.349153 -0.579176
O5    O     O_3   0.110767 0.576609 0.682319 -0.634527
O6    O     O_R   0.491240 0.609310 0.646410 -0.622136
O7    O     O_R   0.692710 0.406190 0.506230 -0.616859
O8    O     O_R   0.677700 0.593810 0.493810 -0.642525
O9    O     O_R   0.508760 0.390690 0.353590 -0.590286
O10   O     O_R   0.493760 0.578300 0.341170 -0.597031
O11   O     O_R   0.322300 0.406190 0.506190 -0.646630
O12   O     O_R   0.307290 0.593810 0.493770 -0.576284
O13   O     O_3   0.882783 0.384122 0.663017 -0.618872
Zn1   Zn    Zn3+2 0.510020 0.374730 0.508290 0.966422
Zn2   Zn    Zn3+2 0.489980 0.625270 0.491710 0.997153

loop_
_geom_bond_atom_site_label_1
_geom_bond_atom_site_label_2
_ccdc_geom_bond_type
C8    C13   A    
C34   C37   A    
C35   C36   A    
C10   C29   S    
O11   Zn1   S    
C19   O13   S    
C21   H12   S    
C27   H17   S    
C28   H20   S    
C12   C23   S    
C22   C32   S    
C1    O1    A    
C4    O7    A    
O7    Zn1   S    
C4    C24   S    
C36   H29   S    
C31   N4    T    
O9    Zn1   S    
C23   H6    S    
C25   H13   S    
C2    C7    A    
C22   H7    S    
C4    O8    A    
C19   C20   S    
C8    C9    A    
C5    C33   A    
C18   O11   A    
C35   H27   S    
C32   H1    S    
O1    Zn1   S    
C25   H10   S    
C29   N3    T    
C10   N2    A    
O10   Zn2   S    
C30   H26   S    
C12   C32   S    
C14   N1    A    
N1    Zn1   S    
O6    Zn2   S    
C1    C34   S    
C18   O12   A    
C30   H24   S    
C27   H19   S    
C16   O10   A    
N2    Zn2   S    
C26   H15   S    
C16   C33   S    
C7    H28   S    
C3    C35   A    
C12   C20   S    
C16   O9    A    
C26   O2    S    
C9    O4    S    
C28   O4    S    
C25   H11   S    
C15   H2    S    
C30   H25   S    
C1    O6    A    
C22   C24   S    
C19   H32   S    
C27   O3    S    
C26   H16   S    
O12   Zn2   S    
C28   H22   S    
C15   C17   A    
C15   N1    A    
C11   C17   A    
C5    H23   S    
C32   H9    S    
C9    N2    A    
C23   O2    S    
C3    C5    A    
C6    O3    S    
C6    C7    A    
C28   H21   S    
C27   H18   S    
C6    C33   A    
C20   O5    S    
C21   C23   S    
C19   C24   S    
C26   H14   S    
C11   C13   A    
C2    C37   A    
C37   H30   S    
C25   O13   S    
C2    C3    A    
C34   C36   A    
C17   H4    S    
O8    Zn2   S    
C10   C11   A    
C21   H5    S    
C30   O5    S    
C22   H8    S    
C21   C24   S    
C12   C18   S    
C14   H31   S    
C8    H3    S    
C13   C14   A    
C20   C31   S    
