data_mof_unit_62698.cif
_audit_creation_date              2012-12-10T18:08:49-0500
_audit_creation_method            fapswitch 2.2
_symmetry_space_group_name_H-M    P1
_symmetry_Int_Tables_number       1
_space_group_crystal_system       triclinic
_cell_length_a                    36.922039
_cell_length_b                    18.376637
_cell_length_c                    18.377877
_cell_angle_alpha                 89.949663
_cell_angle_beta                  119.798707
_cell_angle_gamma                 90.021331
_cell_volume                      10820.6874869

loop_
_atom_site_label
_atom_site_type_symbol
_atom_type_description
_atom_site_fract_x
_atom_site_fract_y
_atom_site_fract_z
_atom_type_partial_charge
C1    C     C_R   0.499996 0.000026 0.360138 0.843147
C2    C     C_1   0.337399 0.999902 0.336749 -0.017864
C3    C     C_3   0.698169 0.700424 0.031624 -0.758969
C4    C     C_3   0.707880 0.402013 0.381603 0.080722
C5    C     C_3   0.696536 0.324503 0.391495 -0.774621
C6    C     C_3   0.293233 0.649826 0.664242 0.082328
C7    C     C_3   0.303746 0.730186 0.681819 -0.763341
C8    C     C_3   0.766440 0.189476 0.808362 -0.323765
C9    C     C_3   0.233727 0.870353 0.089886 -0.323905
C10   C     C_3   0.213836 0.033891 0.012184 -0.275874
C11   C     C_3   0.785952 0.089849 0.970088 -0.278699
C12   C     C_3   0.285995 0.635589 0.939240 -0.279123
C13   C     C_1   0.162587 0.500230 0.663304 -0.017826
C14   C     C_3   0.733560 0.310524 0.191637 -0.323824
C15   C     C_3   0.714048 0.410152 0.029912 -0.278613
C16   C     C_3   0.266721 0.465864 0.957183 -0.316274
C17   C     C_1   0.837436 0.499401 0.336741 -0.018202
C18   C     C_1   0.624885 0.000132 0.625193 -0.183012
C19   C     C_1   0.375090 0.000007 0.374881 -0.181785
C20   C     C_1   0.124901 0.500044 0.625153 -0.183084
C21   C     C_1   0.875115 0.499868 0.374807 -0.183085
C22   C     C_1   0.499969 0.000070 0.282652 -0.178268
C23   C     C_1   0.500031 0.999930 0.717348 -0.178498
C24   C     C_1   0.999970 0.500069 0.282653 -0.178924
C25   C     C_R   0.500004 0.999974 0.639861 0.843010
C26   C     C_1   0.000031 0.499930 0.717348 -0.178426
C27   C     C_1   0.499957 0.000059 0.217400 -0.177496
C28   C     C_1   0.500043 0.999941 0.782600 -0.177795
C29   C     C_1   0.999958 0.500058 0.217400 -0.178387
C30   C     C_1   0.000043 0.499941 0.782600 -0.177661
C31   C     C_R   0.000017 0.139689 0.999991 0.845888
C32   C     C_R   0.000003 0.860311 0.000030 0.843488
C33   C     C_R   0.499999 0.639689 0.999972 0.842954
C34   C     C_R   0.499996 0.360311 0.000023 0.846821
C35   C     C_R   0.919962 0.000084 0.919980 0.814413
C36   C     C_R   0.999997 0.500026 0.360139 0.843061
C37   C     C_R   0.080030 0.999879 0.080007 0.814659
C38   C     C_R   0.419968 0.500037 0.919990 0.814634
C39   C     C_R   0.580038 0.499916 0.080020 0.813744
C40   C     C_R   0.500001 0.859945 0.999977 0.847039
C41   C     C_R   0.499998 0.140055 0.000021 0.847352
C42   C     C_R   0.000003 0.359945 0.999982 0.847412
C43   C     C_R   0.999999 0.640055 0.000023 0.847463
C44   C     C_R   0.499983 0.000021 0.139968 0.847914
C45   C     C_R   0.500017 0.999979 0.860032 0.847518
C46   C     C_R   0.999983 0.500020 0.139968 0.847582
C47   C     C_R   0.000004 0.499974 0.639861 0.843143
C48   C     C_R   0.000017 0.499978 0.860032 0.848317
C49   C     C_1   0.000022 0.217184 0.999951 -0.174118
C50   C     C_1   0.000003 0.782816 0.000076 -0.176070
C51   C     C_1   0.500000 0.717184 0.999927 -0.175452
C52   C     C_1   0.499993 0.282816 0.000066 -0.172582
C53   C     C_R   0.580032 0.000009 0.580048 0.820607
C54   C     C_R   0.419959 0.000007 0.420002 0.820224
C55   C     C_R   0.080038 0.500002 0.580008 0.820296
C56   C     C_R   0.919967 0.499991 0.419951 0.820768
C57   C     C_1   0.500001 0.782449 0.999938 -0.176872
C58   C     C_1   0.837428 0.001746 0.838299 0.081503
C59   C     C_1   0.499994 0.217551 0.000056 -0.174785
C60   C     C_1   0.000015 0.282448 0.999956 -0.175968
C61   C     C_1   0.000001 0.717551 0.000063 -0.177561
C62   C     C_3   0.725647 0.028058 0.652727 -0.466804
C63   C     C_3   0.274329 0.934606 0.317599 -0.466488
C64   C     C_3   0.274071 0.071170 0.304975 -0.428726
C65   C     C_3   0.725819 0.924447 0.742685 -0.455731
C66   C     C_3   0.225757 0.544847 0.662174 -0.457747
C67   C     C_3   0.774353 0.471942 0.347273 -0.466810
C68   C     C_3   0.774181 0.575553 0.257315 -0.455725
C69   C     C_1   0.162542 0.998977 0.161339 0.066336
C70   C     C_3   0.225783 0.421971 0.723217 -0.464426
C71   C     C_3   0.774388 0.924737 0.793125 0.210708
C72   C     C_3   0.225573 0.072008 0.254654 0.210018
C73   C     C_3   0.225777 0.936430 0.272913 0.212154
C74   C     C_3   0.774214 0.024612 0.699346 0.207898
C75   C     C_3   0.274335 0.421793 0.767513 0.206596
C76   C     C_3   0.725612 0.575263 0.206876 0.210710
C77   C     C_3   0.725786 0.475388 0.300654 0.207908
C78   C     C_3   0.274329 0.546548 0.711464 0.212527
C79   C     C_1   0.875105 0.000826 0.875341 -0.146358
C80   C     C_1   0.337451 0.500649 0.838654 0.081984
C81   C     C_1   0.124872 0.999397 0.124567 -0.156518
C82   C     C_1   0.375122 0.500314 0.875423 -0.146019
C83   C     C_1   0.624895 0.499175 0.124660 -0.146191
C84   C     C_3   0.708675 0.001582 0.710028 0.137787
C85   C     C_3   0.291271 0.999521 0.289652 0.126786
C86   C     C_3   0.208709 0.500634 0.710384 0.137517
C87   C     C_3   0.791325 0.498418 0.289972 0.137803
C88   C     C_3   0.791153 0.003174 0.793323 0.083579
C89   C     C_3   0.208799 0.998617 0.205714 0.080812
C90   C     C_3   0.291185 0.501163 0.794276 0.084108
C91   C     C_1   0.662572 0.498254 0.161701 0.081472
C92   C     C_3   0.708847 0.496826 0.206677 0.083569
C93   C     C_3   0.774614 0.059359 0.835293 0.958637
C94   C     C_3   0.225308 0.986988 0.141896 0.961377
C95   C     C_3   0.274681 0.533396 0.852253 0.957144
C96   C     C_3   0.725386 0.440642 0.164706 0.958642
C97   C     C_3   0.724922 0.053341 0.786404 -0.511773
C98   C     C_3   0.274984 0.992678 0.194320 -0.512824
C99   C     C_3   0.224983 0.536204 0.797545 -0.511999
C100  C     C_3   0.775078 0.446659 0.213595 -0.511775
C101  C     C_3   0.792754 0.823989 0.881834 0.083360
C102  C     C_1   0.662564 0.000598 0.663259 -0.018185
C103  C     C_3   0.801831 0.799577 0.968377 -0.758984
C104  C     C_3   0.187827 0.181020 0.216059 0.086847
C105  C     C_3   0.172465 0.242263 0.151920 -0.753011
C106  C     C_3   0.206710 0.820117 0.292370 0.077528
C107  C     C_3   0.194379 0.744995 0.252957 -0.771887
C108  C     C_3   0.792119 0.097986 0.618397 0.080752
C109  C     C_3   0.803464 0.175496 0.608503 -0.774743
C110  C     C_3   0.293386 0.302699 0.815321 0.075473
C111  C     C_3   0.306700 0.253455 0.890950 -0.765104
C112  C     C_3   0.707246 0.676011 0.118167 0.083347
Cu1   Cu    Cu3+1 0.500000 0.072550 0.500000 0.957661
Cu2   Cu    Cu3+1 0.458680 1.000000 0.958690 0.953227
Cu3   Cu    Cu3+1 0.041320 0.500000 0.041310 0.950538
Cu4   Cu    Cu3+1 0.958680 0.500000 0.958690 0.953153
Cu5   Cu    Cu3+1 0.500000 0.927450 0.500000 0.955852
Cu6   Cu    Cu3+1 0.000000 0.572550 0.500000 0.957287
Cu7   Cu    Cu3+1 0.000000 0.427450 0.500000 0.955071
Cu8   Cu    Cu3+1 0.000010 0.000000 0.927480 0.968653
Cu9   Cu    Cu3+1 0.999990 1.000000 0.072520 0.963018
Cu10  Cu    Cu3+1 0.500010 0.500000 0.927480 0.965453
Cu11  Cu    Cu3+1 0.499990 0.500000 0.072520 0.970230
Cu12  Cu    Cu3+1 0.541320 0.000000 0.041310 0.953078
H1    H     H_    0.783765 0.980406 0.670492 0.047880
H2    H     H_    0.287222 0.936401 0.386682 0.146302
H3    H     H_    0.284977 0.077001 0.373088 0.141373
H4    H     H_    0.714950 0.886180 0.688907 0.142932
H5    H     H_    0.214812 0.520076 0.599391 0.141737
H6    H     H_    0.787145 0.506356 0.404587 0.146336
H7    H     H_    0.785050 0.613820 0.311094 0.142934
H8    H     H_    0.212937 0.394068 0.661547 0.146621
H9    H     H_    0.713094 0.904225 0.782627 0.207159
H10   H     H_    0.286782 0.118527 0.287003 0.212243
H11   H     H_    0.285143 0.882740 0.303472 0.201907
H12   H     H_    0.216387 0.950264 0.320535 0.046947
H13   H     H_    0.714740 0.084680 0.631691 0.200845
H14   H     H_    0.215025 0.390751 0.760900 0.201203
H15   H     H_    0.786906 0.595775 0.217373 0.207157
H16   H     H_    0.785259 0.415319 0.368308 0.200824
H17   H     H_    0.213040 0.601206 0.651232 0.207195
H18   H     H_    0.707950 0.105516 0.765160 0.143559
H19   H     H_    0.292046 0.948047 0.184209 0.143576
H20   H     H_    0.285056 0.042342 0.174436 0.185709
H21   H     H_    0.714691 0.030659 0.829459 0.183646
H22   H     H_    0.214676 0.594048 0.786920 0.184815
H23   H     H_    0.214804 0.075352 0.301812 0.033379
H24   H     H_    0.792050 0.394484 0.234839 0.143531
H25   H     H_    0.785309 0.469342 0.170540 0.183641
H26   H     H_    0.208095 0.512039 0.827227 0.142869
H27   H     H_    0.819096 0.806475 0.872755 0.133776
H28   H     H_    0.763470 0.796936 0.834286 0.126979
H29   H     H_    0.775794 0.815851 0.978815 0.244439
H30   H     H_    0.805225 0.739462 0.973530 0.190242
H31   H     H_    0.831227 0.824918 0.017304 0.255077
H32   H     H_    0.207169 0.204912 0.279655 0.128327
H33   H     H_    0.160100 0.153269 0.212205 0.128260
H34   H     H_    0.785959 0.888544 0.760056 0.040586
H35   H     H_    0.152819 0.219766 0.087892 0.256617
H36   H     H_    0.153558 0.281233 0.165355 0.191861
H37   H     H_    0.199446 0.271576 0.154732 0.242693
H38   H     H_    0.182600 0.839011 0.307594 0.137173
H39   H     H_    0.237375 0.815529 0.351183 0.127648
H40   H     H_    0.218301 0.724325 0.238298 0.238995
H41   H     H_    0.191932 0.706805 0.297178 0.190041
H42   H     H_    0.163735 0.747684 0.194216 0.257749
H43   H     H_    0.761258 0.084858 0.562967 0.128299
H44   H     H_    0.816246 0.060599 0.620137 0.137610
H45   H     H_    0.285785 0.519195 0.672294 0.041366
H46   H     H_    0.834469 0.189998 0.662262 0.256826
H47   H     H_    0.804678 0.180393 0.549521 0.190143
H48   H     H_    0.779663 0.213925 0.606056 0.239784
H49   H     H_    0.316910 0.298019 0.794480 0.135195
H50   H     H_    0.262472 0.283710 0.764281 0.129558
H51   H     H_    0.283623 0.256754 0.912893 0.241779
H52   H     H_    0.308602 0.196271 0.873650 0.190684
H53   H     H_    0.337803 0.270401 0.942616 0.256218
H54   H     H_    0.736530 0.703064 0.165715 0.126973
H55   H     H_    0.680904 0.693526 0.127246 0.133757
H56   H     H_    0.716235 0.519594 0.329508 0.047882
H57   H     H_    0.668773 0.675084 0.982697 0.255086
H58   H     H_    0.694775 0.760539 0.026471 0.190232
H59   H     H_    0.724206 0.684150 0.021186 0.244443
H60   H     H_    0.683754 0.439400 0.379863 0.137661
H61   H     H_    0.738742 0.415141 0.437032 0.128295
H62   H     H_    0.720337 0.286074 0.393943 0.239744
H63   H     H_    0.695322 0.319605 0.450478 0.190192
H64   H     H_    0.665531 0.310001 0.337736 0.256850
H65   H     H_    0.263791 0.644750 0.603015 0.125307
H66   H     H_    0.319106 0.622564 0.660234 0.134555
H67   H     H_    0.714041 0.611456 0.239944 0.040575
H68   H     H_    0.333360 0.736953 0.742071 0.256062
H69   H     H_    0.307432 0.754668 0.630608 0.185463
H70   H     H_    0.278288 0.758948 0.685633 0.244966
H71   H     H_    0.744673 0.187690 0.739640 0.183437
H72   H     H_    0.785947 0.238803 0.820628 0.195012
H73   H     H_    0.749783 0.195967 0.844260 0.125067
H74   H     H_    0.255638 0.844671 0.150931 0.182429
H75   H     H_    0.250233 0.895774 0.059752 0.126758
H76   H     H_    0.214314 0.825884 0.047781 0.194409
H77   H     H_    0.192317 0.990657 0.971326 0.194589
H78   H     H_    0.283745 0.403629 0.721161 0.046962
H79   H     H_    0.246580 0.021361 0.029554 0.124816
H80   H     H_    0.205096 0.084769 0.974747 0.180569
H81   H     H_    0.753260 0.109276 0.942427 0.122448
H82   H     H_    0.807631 0.136111 0.982465 0.193612
H83   H     H_    0.794515 0.065057 0.031615 0.180507
H84   H     H_    0.307766 0.609292 0.000011 0.194785
H85   H     H_    0.253336 0.632564 0.926626 0.123599
H86   H     H_    0.294474 0.694050 0.945213 0.179970
H87   H     H_    0.755327 0.312310 0.260359 0.183420
H88   H     H_    0.750217 0.304034 0.155739 0.125056
H89   H     H_    0.712855 0.993643 0.595413 0.146329
H90   H     H_    0.714053 0.261198 0.179371 0.195011
H91   H     H_    0.692369 0.363890 0.017534 0.193630
H92   H     H_    0.746740 0.390725 0.057572 0.122416
H93   H     H_    0.705485 0.434944 0.968384 0.180541
H94   H     H_    0.244991 0.423130 0.915775 0.183703
H95   H     H_    0.250032 0.511745 0.966828 0.126104
H96   H     H_    0.286308 0.440256 0.019415 0.196531
O1    O     O_R   0.500010 0.061270 0.394200 -0.581954
O2    O     O_R   0.439720 0.938730 0.439720 -0.582556
O3    O     O_R   0.439720 0.061270 0.439720 -0.580608
O4    O     O_R   0.560280 0.938730 0.560280 -0.581616
O5    O     O_R   0.060280 0.561270 0.560280 -0.581065
O6    O     O_R   0.939720 0.438730 0.439720 -0.582400
O7    O     O_R   0.939720 0.561270 0.439720 -0.581577
O8    O     O_R   0.060280 0.438730 0.560280 -0.582307
O9    O     O_R   1.000000 0.105620 0.938740 -0.580973
O10   O     O_R   1.000000 0.894380 0.061260 -0.582634
O11   O     O_R   1.000000 0.105620 0.061260 -0.583235
O12   O     O_R   0.499990 0.938730 0.605800 -0.582715
O13   O     O_R   0.000000 0.894380 0.938740 -0.582136
O14   O     O_R   0.500000 0.605620 0.938740 -0.582504
O15   O     O_R   0.500000 0.394380 0.061260 -0.580484
O16   O     O_R   0.500000 0.605620 0.061260 -0.582874
O17   O     O_R   0.500000 0.394380 0.938740 -0.582771
O18   O     O_R   0.939730 0.000000 0.878470 -0.587571
O19   O     O_R   0.060270 0.000000 0.121530 -0.593307
O20   O     O_R   0.439730 0.500000 0.878470 -0.591641
O21   O     O_R   0.560270 0.500000 0.121530 -0.587709
O22   O     O_R   0.939720 1.000000 0.000940 -0.569214
O23   O     O_R   0.499990 0.061270 0.605800 -0.582950
O24   O     O_R   0.060280 0.000000 0.999060 -0.566476
O25   O     O_R   0.439720 0.500000 0.000940 -0.566519
O26   O     O_R   0.560280 0.500000 0.999060 -0.569457
O27   O     O_R   0.534900 0.894160 0.034870 -0.587715
O28   O     O_R   0.465100 0.105840 0.965130 -0.587071
O29   O     O_R   0.465100 0.894160 0.965130 -0.583187
O30   O     O_R   0.534900 0.105840 0.034870 -0.582627
O31   O     O_R   0.034900 0.394160 0.034870 -0.588168
O32   O     O_R   0.965100 0.605840 0.965130 -0.587406
O33   O     O_R   0.965100 0.394160 0.965130 -0.582262
O34   O     O_R   0.500010 0.938730 0.394200 -0.583247
O35   O     O_R   0.034900 0.605840 0.034870 -0.584078
O36   O     O_R   0.534890 0.000000 0.140680 -0.586243
O37   O     O_R   0.465110 1.000000 0.859320 -0.586389
O38   O     O_R   0.034890 0.500000 0.140680 -0.587039
O39   O     O_R   0.965110 0.500000 0.859320 -0.586146
O40   O     O_R   0.465110 1.000000 0.070890 -0.584899
O41   O     O_R   0.534890 0.000000 0.929110 -0.584970
O42   O     O_R   0.965110 0.500000 0.070890 -0.584753
O43   O     O_R   0.034890 0.500000 0.929110 -0.584800
O44   O     O_3   0.788900 0.900565 0.876538 -0.511580
O45   O     O_R   0.000010 0.561270 0.394200 -0.582532
O46   O     O_3   0.211758 0.131924 0.198165 -0.515146
O47   O     O_3   0.208935 0.868243 0.234751 -0.521501
O48   O     O_3   0.790974 0.092633 0.693915 -0.522036
O49   O     O_3   0.291301 0.375159 0.838530 -0.522458
O50   O     O_3   0.711100 0.599436 0.123463 -0.511575
O51   O     O_3   0.709026 0.407366 0.306085 -0.522049
O52   O     O_3   0.288875 0.619426 0.730106 -0.511856
O53   O     O_3   0.793024 0.128332 0.834770 -0.555760
O54   O     O_3   0.207056 0.919744 0.099068 -0.553096
O55   O     O_3   0.209188 0.045439 0.083090 -0.550900
O56   O     O_R   0.999990 0.438730 0.605800 -0.582621
O57   O     O_3   0.790541 0.036461 0.919991 -0.548019
O58   O     O_3   0.290520 0.605746 0.873385 -0.549437
O59   O     O_3   0.706976 0.371669 0.165230 -0.555756
O60   O     O_3   0.709459 0.463540 0.080009 -0.548027
O61   O     O_3   0.293213 0.489440 0.927072 -0.555081
O62   O     O_R   0.999990 0.561270 0.605800 -0.582654
O63   O     O_R   0.000010 0.438730 0.394200 -0.583342
O64   O     O_R   0.560280 0.061270 0.560280 -0.582368

loop_
_geom_bond_atom_site_label_1
_geom_bond_atom_site_label_2
_ccdc_geom_bond_type
C14   O59   S    
C46   O38   A    
C107  H41   S    
C25   O12   A    
Cu9   O11   S    
C93   C97   S    
C98   H19   S    
C84   C102  S    
C36   O45   A    
C67   C77   S    
C10   O55   S    
Cu12  O36   S    
Cu5   O2    S    
C90   C95   S    
C48   O39   A    
C66   H17   S    
C78   C90   S    
C53   O4    A    
C106  O47   S    
C24   C36   S    
C49   C60   T    
C14   H87   S    
C8    H71   S    
C111  H51   S    
C84   C97   S    
C12   H84   S    
C30   C48   S    
C15   O60   S    
C47   O62   A    
C104  O46   S    
C12   H85   S    
Cu6   O62   S    
Cu8   O24   S    
C95   C99   S    
C37   O19   A    
C105  H36   S    
Cu3   O31   S    
C106  C107  S    
C94   C98   S    
Cu3   Cu4   S    
C39   O26   A    
C96   C100  S    
C92   C96   S    
C108  C109  S    
C14   H90   S    
C16   H95   S    
C1    O1    A    
C18   C102  T    
C89   C94   S    
C108  O48   S    
C34   O17   A    
C110  C111  S    
Cu1   O3    S    
Cu12  O30   S    
C85   C98   S    
C73   O47   S    
C75   C90   S    
Cu7   O56   S    
Cu6   Cu7   S    
C38   C82   S    
C74   O48   S    
C27   C44   S    
C103  H29   S    
Cu10  O20   S    
C95   O61   S    
C54   O2    A    
C76   O50   S    
C13   C86   S    
C4    H61   S    
C68   C76   S    
C77   O51   S    
C16   H94   S    
C51   C57   T    
C11   H82   S    
C78   O52   S    
C7    H69   S    
C10   H79   S    
C104  H33   S    
C93   O57   S    
C8    O53   S    
C18   C53   S    
C9    H76   S    
Cu10  O26   S    
C66   H5    S    
Cu2   Cu12  S    
C4    O51   S    
C106  H38   S    
C108  H44   S    
C107  H42   S    
C1    C22   S    
C101  C103  S    
C37   O24   A    
C63   C85   S    
C96   O59   S    
C21   C56   S    
C37   C81   S    
C8    H73   S    
C35   O18   A    
C11   H83   S    
C5    H62   S    
C31   C49   S    
C20   C55   S    
C69   C89   S    
C34   O15   A    
C43   O32   A    
C72   O46   S    
C104  C105  S    
C10   H77   S    
C75   H78   S    
Cu7   O8    S    
C16   H96   S    
C64   H10   S    
Cu4   O33   S    
C110  H50   S    
Cu6   O5    S    
Cu9   O22   S    
C66   C78   S    
C99   H26   S    
C32   O10   A    
C28   C45   S    
C77   H56   S    
C6    O52   S    
C111  H52   S    
C96   O60   S    
C65   H4    S    
C9    O54   S    
C69   C81   T    
C41   C59   S    
C15   H91   S    
C112  O50   S    
C94   O55   S    
Cu11  O25   S    
C47   O56   A    
C44   O36   A    
C65   C84   S    
Cu7   O63   S    
C2    C85   S    
C75   O49   S    
C42   O33   A    
Cu1   O23   S    
C65   C71   S    
C38   O25   A    
C38   O20   A    
C101  H27   S    
C78   H45   S    
C104  H32   S    
C33   C51   S    
Cu11  O16   S    
C31   O11   A    
C67   C87   S    
C63   H11   S    
C55   O8    A    
C41   O30   A    
C68   H7    S    
C63   C73   S    
C93   O53   S    
C67   H16   S    
C52   C59   T    
Cu8   O13   S    
C44   O40   A    
Cu6   O45   S    
Cu5   O34   S    
C103  H30   S    
C45   O41   A    
Cu5   O12   S    
C73   H12   S    
C3    C112  S    
C66   C86   S    
C64   H3    S    
Cu1   O1    S    
C6    H66   S    
C70   H8    S    
Cu4   O39   S    
C16   O61   S    
C32   O13   A    
C9    H75   S    
C106  H39   S    
C4    H60   S    
C7    H70   S    
C86   C99   S    
C3    H57   S    
C32   C50   S    
C33   O16   A    
Cu3   O43   S    
C26   C47   S    
C76   C92   S    
C112  H55   S    
Cu11  O15   S    
C58   C79   T    
C19   C54   S    
C80   C82   T    
Cu10  O14   S    
C108  H43   S    
C42   O31   A    
C70   H14   S    
C22   C27   T    
C41   O28   A    
C9    H74   S    
Cu6   O7    S    
C62   H89   S    
Cu1   Cu5   S    
C7    H68   S    
C67   H6    S    
C15   H93   S    
C23   C28   T    
C5    H63   S    
C42   C60   S    
C70   C86   S    
C12   O58   S    
C64   C85   S    
Cu11  O21   S    
C40   O27   A    
C83   C91   T    
C109  H46   S    
C43   C61   S    
C53   O64   A    
C112  H54   S    
C87   C100  S    
C110  H49   S    
C43   O35   A    
C71   O44   S    
C50   C61   T    
C71   H34   S    
C62   C84   S    
C88   C93   S    
C95   O58   S    
Cu9   O10   S    
C48   O43   A    
C13   C20   T    
C98   H20   S    
C56   O7    A    
C17   C87   S    
Cu2   O28   S    
C97   H21   S    
C99   H22   S    
C36   O63   A    
C15   H92   S    
C40   C57   S    
Cu3   O38   S    
C58   C88   S    
Cu8   O9    S    
C94   O54   S    
C110  O49   S    
C109  H48   S    
C45   O37   A    
C6    C7    S    
C56   O6    A    
C100  H25   S    
C46   O42   A    
C72   H23   S    
Cu4   O32   S    
Cu2   O37   S    
C29   C46   S    
C101  H28   S    
C34   C52   S    
C77   C92   S    
C14   H88   S    
C1    O34   A    
C55   O5    A    
Cu12  O27   S    
C12   H86   S    
C76   H67   S    
Cu9   O19   S    
C40   O29   A    
Cu2   O29   S    
C54   O3    A    
C105  H35   S    
C3    H59   S    
Cu12  O41   S    
C100  H24   S    
C4    C5    S    
C31   O9    A    
C6    H65   S    
C35   C79   S    
C8    H72   S    
C25   O23   A    
C105  H37   S    
C64   C72   S    
C62   H13   S    
C80   C90   S    
C3    H58   S    
C17   C21   T    
C97   H18   S    
C39   C83   S    
C63   H2    S    
Cu4   O42   S    
C33   O14   A    
Cu1   O64   S    
C73   C89   S    
C71   C88   S    
C74   H1    S    
C109  H47   S    
C24   C29   T    
C23   C25   S    
Cu3   O35   S    
C107  H40   S    
Cu7   O6    S    
C35   O22   A    
C68   H15   S    
C101  O44   S    
C70   C75   S    
C111  H53   S    
C68   C87   S    
Cu8   Cu9   S    
C62   C74   S    
Cu5   O4    S    
C72   C89   S    
Cu10  O17   S    
C11   H81   S    
C5    H64   S    
C74   C88   S    
Cu10  Cu11  S    
Cu2   O40   S    
C11   O57   S    
C65   H9    S    
C91   C92   S    
C103  H31   S    
C2    C19   T    
Cu8   O18   S    
C39   O21   A    
C26   C30   T    
C10   H80   S    
