data_mof_unit_57912.cif
_audit_creation_date              2012-12-10T18:18:18-0500
_audit_creation_method            fapswitch 2.2
_symmetry_space_group_name_H-M    P1
_symmetry_Int_Tables_number       1
_space_group_crystal_system       triclinic
_cell_length_a                    14.070832
_cell_length_b                    15.011097
_cell_length_c                    15.501556
_cell_angle_alpha                 89.386967
_cell_angle_beta                  67.316141
_cell_angle_gamma                 90.498423
_cell_volume                      3020.48123596

loop_
_atom_site_label
_atom_site_type_symbol
_atom_type_description
_atom_site_fract_x
_atom_site_fract_y
_atom_site_fract_z
_atom_type_partial_charge
C1    C     C_R   0.500392 0.673453 0.499712 0.913168
C2    C     C_R   0.499623 0.326551 0.500254 0.912494
C3    C     C_R   0.372132 0.458487 0.109281 -0.258406
C4    C     C_R   0.612466 0.421426 0.901948 -0.270016
C5    C     C_R   0.297486 0.461829 0.070360 0.077068
C6    C     C_R   0.686476 0.417574 0.941391 0.070712
C7    C     C_R   0.415267 0.184168 0.495060 -0.222458
C8    C     C_R   0.584852 0.815853 0.504693 -0.222463
C9    C     C_R   0.499238 0.230633 0.500584 -0.078178
C10   C     C_R   0.500832 0.769382 0.499269 -0.079827
C11   C     C_R   0.583344 0.185494 0.506151 -0.257845
C12   C     C_R   0.416743 0.814526 0.493670 -0.256400
C13   C     C_R   0.584319 0.093401 0.505862 0.118253
C14   C     C_R   0.415811 0.906623 0.493869 0.117995
C15   C     C_R   0.499853 0.046355 0.500080 0.062987
C16   C     C_R   0.500295 0.953669 0.499616 0.062833
C17   C     C_R   0.414961 0.091979 0.494744 0.108457
C18   C     C_R   0.585186 0.908045 0.504954 0.108616
C19   C     C_R   0.668309 0.047765 0.511141 -0.213042
C20   C     C_R   0.331834 0.952261 0.488566 -0.211727
C21   C     C_R   0.668752 0.955215 0.510662 -0.202192
C22   C     C_R   0.331404 0.044812 0.489017 -0.202758
C23   C     C_R   0.435595 0.498326 0.676400 0.887457
C24   C     C_R   0.564387 0.499593 0.323642 0.891623
C25   C     C_R   0.174522 0.445674 0.562140 0.322320
C26   C     C_R   0.825637 0.553861 0.437415 0.323106
C27   C     C_R   0.228639 0.553135 0.438029 -0.125692
C28   C     C_R   0.771552 0.446343 0.561474 -0.123178
C29   C     C_R   0.129161 0.553886 0.436363 0.012958
C30   C     C_R   0.871241 0.445053 0.562605 0.027129
C31   C     C_R   0.050676 0.499306 0.499728 0.063854
C32   C     C_R   0.949698 0.499704 0.499312 0.062931
C33   C     C_R   0.073014 0.444370 0.563459 -0.029586
C34   C     C_R   0.927336 0.554672 0.435621 -0.037871
C35   C     C_R   0.106643 0.608026 0.372783 -0.223057
C36   C     C_R   0.893994 0.390267 0.625555 -0.232102
C37   C     C_R   0.007284 0.608533 0.372301 -0.153026
C38   C     C_R   0.993268 0.389931 0.626237 -0.162100
C39   C     C_R   0.395586 0.487502 0.778182 -0.062472
C40   C     C_R   0.603434 0.488055 0.222485 -0.057864
C41   C     C_R   0.257342 0.479238 0.930782 -0.180995
C42   C     C_R   0.733255 0.441267 0.076157 -0.176918
C43   C     C_R   0.290407 0.489445 0.833985 -0.168953
C44   C     C_R   0.704839 0.463424 0.169970 -0.189175
C45   C     C_R   0.466507 0.472163 0.819229 -0.249653
C46   C     C_R   0.532002 0.491620 0.180586 -0.245220
C47   C     C_R   0.435466 0.458600 0.915339 0.068932
C48   C     C_R   0.555593 0.461335 0.090175 0.062455
C49   C     C_R   0.329211 0.465858 0.972670 0.147898
C50   C     C_R   0.659268 0.439826 0.035371 0.165826
C51   C     C_R   0.509197 0.444870 0.955572 0.049165
C52   C     C_R   0.478641 0.455489 0.052566 0.042106
H1    H     H_    0.289386 0.595023 0.389811 0.146354
H2    H     H_    0.710809 0.404429 0.609676 0.142310
H3    H     H_    0.166002 0.650216 0.323233 0.148699
H4    H     H_    0.834796 0.347572 0.674571 0.134494
H5    H     H_    0.994434 0.651679 0.321734 0.193142
H6    H     H_    0.006160 0.346529 0.676597 0.190730
H7    H     H_    0.457159 0.518679 0.220003 0.156290
H8    H     H_    0.547285 0.475172 0.775284 0.161345
H9    H     H_    0.761317 0.460090 0.201511 0.180501
H10   H     H_    0.234199 0.500545 0.803209 0.186298
H11   H     H_    0.175696 0.483770 0.972537 0.165170
H12   H     H_    0.812573 0.423733 0.036439 0.171286
H13   H     H_    0.344883 0.454954 0.184573 0.147367
H14   H     H_    0.637283 0.402534 0.829622 0.140159
H15   H     H_    0.350362 0.219533 0.490647 0.184377
H16   H     H_    0.649761 0.780489 0.509100 0.184548
H17   H     H_    0.648178 0.221827 0.510712 0.163582
H18   H     H_    0.351880 0.778192 0.489167 0.164438
H19   H     H_    0.733425 0.083608 0.515590 0.148797
H20   H     H_    0.266708 0.916420 0.484135 0.149574
H21   H     H_    0.734171 0.920578 0.514781 0.154733
H22   H     H_    0.265987 0.079450 0.484895 0.154280
N1    N     N_R   0.249980 0.499930 0.499960 -0.115649
N2    N     N_R   0.750020 0.500070 0.500040 -0.116444
O1    O     O_R   0.419720 0.632140 0.499980 -0.632632
O2    O     O_R   0.580280 0.367860 0.500020 -0.634466
O3    O     O_R   0.580270 0.632160 0.499970 -0.581716
O4    O     O_R   0.419730 0.367840 0.500030 -0.582092
O5    O     O_R   0.373870 0.499980 0.632250 -0.572763
O6    O     O_R   0.626130 0.500020 0.367750 -0.572327
O7    O     O_R   0.534420 0.500000 0.632240 -0.632011
O8    O     O_R   0.465580 0.500000 0.367760 -0.633209
Zn1   Zn    Zn3+2 0.392800 0.499980 0.500010 0.983056
Zn2   Zn    Zn3+2 0.607200 0.500020 0.499990 0.983541
N3    N     N_3   0.189870 0.465048 0.129890 -0.460109
H23   H     H_    0.179925 0.470263 0.200067 0.196429
H24   H     H_    0.156356 0.404237 0.123831 0.185669
N4    N     N_3   0.790016 0.393350 0.884737 -0.471716
H25   H     H_    0.818521 0.438729 0.828711 0.201801
H26   H     H_    0.787959 0.330234 0.857576 0.187163
Br1   Br    Br    0.206827 0.370366 0.647982 -0.549129
Br2   Br    Br    0.793345 0.628903 0.351360 -0.539037

loop_
_geom_bond_atom_site_label_1
_geom_bond_atom_site_label_2
_ccdc_geom_bond_type
C26   Br2   S    
C4    H14   S    
N3    H23   S    
C45   H8    S    
C25   Br1   S    
N2    Zn2   S    
C46   H7    S    
C27   C29   A    
C34   C37   A    
C1    O1    A    
C19   H19   S    
C47   C49   A    
C40   C46   A    
C23   O7    A    
C36   H4    S    
C19   C21   A    
C15   C16   A    
C18   C21   A    
C21   H21   S    
C7    C9    A    
C24   O6    A    
C38   H6    S    
C26   C34   A    
C7    C17   A    
C26   N2    A    
C31   C33   A    
C39   C45   A    
O2    Zn2   S    
C48   C50   A    
O1    Zn1   S    
C41   C43   A    
C5    C49   A    
C3    H13   S    
C42   C44   A    
C27   N1    A    
C41   C49   A    
N1    Zn1   S    
C45   C47   A    
C46   C48   A    
C13   C19   A    
C4    C51   A    
C35   H3    S    
C51   C52   A    
C14   C20   A    
O8    Zn1   S    
C4    C6    A    
C28   H2    S    
C47   C51   A    
O6    Zn2   S    
C8    C18   A    
C25   N1    A    
C32   C34   A    
O4    Zn1   S    
C2    O2    A    
N4    H26   S    
C31   C32   A    
C40   C44   A    
C11   H17   S    
C6    C50   A    
C9    C11   A    
C10   C12   A    
C42   C50   A    
C16   C18   A    
C12   C14   A    
C8    H16   S    
C13   C15   A    
C1    O3    A    
C14   C16   A    
C22   H22   S    
C28   N2    A    
C42   H12   S    
C15   C17   A    
C12   H18   S    
C23   O5    A    
C35   C37   A    
C1    C10   S    
C33   C38   A    
C20   C22   A    
C3    C5    A    
C39   C43   A    
C3    C52   A    
C27   H1    S    
C44   H9    S    
C29   C35   A    
C17   C22   A    
C30   C36   A    
C28   C30   A    
C24   O8    A    
C29   C31   A    
C6    N4    S    
C30   C32   A    
C11   C13   A    
N4    H25   S    
C23   C39   S    
C36   C38   A    
C24   C40   S    
O5    Zn1   S    
C2    O4    A    
C7    H15   S    
C5    N3    S    
C48   C52   A    
O7    Zn2   S    
C8    C10   A    
N3    H24   S    
C41   H11   S    
C20   H20   S    
C2    C9    S    
O3    Zn2   S    
C37   H5    S    
C43   H10   S    
C25   C33   A    
