data_mof_unit_46406.cif
_audit_creation_date              2012-10-26T19:04:01-0400
_audit_creation_method            fapswitch 2.2
_symmetry_space_group_name_H-M    P1
_symmetry_Int_Tables_number       1
_space_group_crystal_system       triclinic
_cell_length_a                    15.874059
_cell_length_b                    12.994995
_cell_length_c                    11.73471
_cell_angle_alpha                 99.358462
_cell_angle_beta                  92.683989
_cell_angle_gamma                 91.250616
_cell_volume                      2384.77174549

loop_
_atom_site_label
_atom_site_type_symbol
_atom_type_description
_atom_site_fract_x
_atom_site_fract_y
_atom_site_fract_z
_atom_type_partial_charge
C1    C     C_R   0.495929 0.300044 0.479363 0.573297
C2    C     C_R   0.484479 0.187868 0.469964 -0.045098
C3    C     C_R   0.396173 0.031693 0.415325 0.248827
C4    C     C_R   0.340373 0.499949 0.501207 0.549436
C5    C     C_R   0.411890 0.137362 0.412487 -0.056725
C6    C     C_R   0.542037 0.134417 0.531041 0.244708
C7    C     C_R   0.525902 0.028530 0.538582 -0.011988
C8    C     C_R   0.455714 0.974340 0.472142 -0.031441
C9    C     C_R   0.447387 0.864680 0.465030 -0.024651
C10   C     C_R   0.564869 0.868485 0.606523 -0.157996
C11   C     C_R   0.577611 0.974778 0.610219 -0.004233
C12   C     C_3   0.951264 0.432411 0.594136 -0.182839
C13   C     C_R   0.427338 0.393841 0.025186 -0.157540
C14   C     C_R   0.433168 0.405467 0.146153 0.034225
C15   C     C_R   0.533672 0.544760 0.155508 0.134930
C16   C     C_R   0.500695 0.700214 0.520804 0.544947
C17   C     C_R   0.528435 0.537145 0.032789 -0.041280
C18   C     C_R   0.472542 0.462356 0.967109 0.010415
C19   C     C_R   0.464228 0.457672 0.844682 0.435448
C20   C     C_R   0.571014 0.590071 0.852929 0.013855
C21   C     C_R   0.577831 0.601144 0.973774 -0.179546
C22   C     C_R   0.659594 0.499700 0.498792 0.547252
C23   C     C_3   0.917087 0.498293 0.502118 0.084891
C24   C     C_3   0.050578 0.435290 0.599137 -0.117606
C25   C     C_3   0.045624 0.447246 0.385958 -0.198577
C26   C     C_3   0.947599 0.446947 0.382041 0.186597
C27   C     C_1   0.748999 0.498760 0.496723 0.000112
C28   C     C_3   0.083159 0.498458 0.506690 -0.022979
C29   C     C_1   0.089675 0.475557 0.715675 0.194553
C30   C     C_1   0.914479 0.463659 0.708236 0.190117
C31   C     C_3   0.916508 0.780134 0.511006 -0.114815
C32   C     C_1   0.383896 0.802890 0.388417 0.280066
C33   C     C_3   0.259488 0.994849 0.446525 -0.100731
C34   C     C_3   0.954112 0.612366 0.534597 0.201215
C35   C     C_1   0.643160 0.024998 0.691474 0.261526
C36   C     C_1   0.349653 0.194545 0.355751 0.243758
C37   C     C_3   0.676848 0.185035 0.505748 -0.105007
C38   C     C_3   0.324138 0.427928 0.792844 -0.085694
C39   C     C_1   0.592559 0.619096 0.223544 0.263787
C40   C     C_3   0.904196 0.434429 0.187795 -0.098330
C41   C     C_3   0.051909 0.611776 0.531329 -0.185871
C42   C     C_1   0.824495 0.498229 0.497853 0.011735
C43   C     C_1   0.175472 0.499169 0.505383 -0.058097
C44   C     C_1   0.250918 0.499648 0.503798 -0.012145
C45   C     C_R   0.503232 0.813184 0.531521 -0.023561
Cu1   Cu    Cu3+1 0.506190 0.507730 0.615930 1.024095
Cu2   Cu    Cu3+1 0.493810 0.492270 0.384070 0.994327
H1    H     H_    0.929563 0.349829 0.565193 0.081421
H2    H     H_    0.923472 0.363994 0.366429 0.066689
H3    H     H_    0.080361 0.653271 0.615172 0.098781
H4    H     H_    0.073353 0.655499 0.463308 0.162842
H5    H     H_    0.937133 0.641861 0.625276 0.099095
H6    H     H_    0.979207 0.811069 0.549585 0.095166
H7    H     H_    0.868727 0.788117 0.578011 0.117692
H8    H     H_    0.896639 0.828305 0.445218 0.158053
H9    H     H_    0.245626 0.077895 0.477976 0.117240
H10   H     H_    0.278361 0.955550 0.520903 0.108505
H11   H     H_    0.200251 0.955772 0.405591 0.152645
H12   H     H_    0.605896 0.827263 0.659280 0.122678
H13   H     H_    0.658300 0.226376 0.432946 0.108437
H14   H     H_    0.693581 0.103347 0.471983 0.112132
H15   H     H_    0.734289 0.225719 0.550538 0.146953
H16   H     H_    0.321880 0.513963 0.795257 0.138718
H17   H     H_    0.296620 0.407766 0.871666 0.112107
H18   H     H_    0.282663 0.390290 0.718291 0.148566
H19   H     H_    0.962627 0.392562 0.162739 0.108217
H20   H     H_    0.887109 0.481478 0.119760 0.176612
H21   H     H_    0.851149 0.377806 0.191016 0.114661
H22   H     H_    0.071522 0.353570 0.576830 0.101868
H23   H     H_    0.609938 0.639062 0.809120 0.136355
H24   H     H_    0.388180 0.330383 0.978090 0.137071
H25   H     H_    0.622253 0.659371 0.019966 0.125776
H26   H     H_    0.397163 0.353118 0.189156 0.160607
H27   H     H_    0.069776 0.489929 0.318625 0.170792
H28   H     H_    0.066922 0.365571 0.365117 0.089925
N1    N     N_R   0.515490 0.519350 0.790130 -0.219002
N2    N     N_R   0.484510 0.480650 0.209890 -0.245520
N3    N     N_1   0.120126 0.507053 0.806545 -0.311388
N4    N     N_1   0.885658 0.487978 0.797064 -0.284350
N5    N     N_1   0.333577 0.753112 0.327535 -0.256741
N6    N     N_1   0.695645 0.064733 0.756725 -0.274583
N7    N     N_1   0.299516 0.239880 0.310920 -0.317113
N8    N     N_1   0.640114 0.678904 0.277158 -0.287213
O1    O     O_R   0.504390 0.354460 0.582000 -0.409670
O2    O     O_3   0.321441 0.985891 0.363168 -0.540487
O3    O     O_3   0.612995 0.188034 0.585903 -0.530515
O4    O     O_3   0.406283 0.388971 0.778681 -0.544309
O5    O     O_3   0.916618 0.502109 0.294489 -0.497785
O6    O     O_R   0.493940 0.341410 0.386200 -0.528224
O7    O     O_R   0.384660 0.506540 0.597940 -0.494119
O8    O     O_R   0.374210 0.493480 0.402140 -0.485418
O9    O     O_R   0.506060 0.658590 0.613800 -0.521409
O10   O     O_R   0.495610 0.645540 0.418000 -0.488364
O11   O     O_R   0.625790 0.506520 0.597860 -0.499293
O12   O     O_R   0.615340 0.493460 0.402060 -0.492432
O13   O     O_3   0.920310 0.675378 0.456372 -0.499044

loop_
_geom_bond_atom_site_label_1
_geom_bond_atom_site_label_2
_ccdc_geom_bond_type
C9    C45   A    
C33   H11   S    
C3    O2    S    
C22   O11   A    
C22   O12   A    
C12   H1    S    
Cu1   N1    S    
C37   H15   S    
C35   N6    T    
C7    C8    A    
C1    O1    A    
C7    C11   A    
C12   C23   S    
C16   O10   A    
C23   C42   S    
C13   C18   A    
C19   N1    A    
C34   O13   S    
C25   H27   S    
C19   O4    S    
C14   N2    A    
Cu1   O9    S    
C31   O13   S    
C5    C36   S    
C28   C41   S    
C20   N1    A    
C1    C2    S    
C23   C26   S    
C33   O2    S    
C24   C29   S    
C9    C32   S    
C29   N3    T    
C36   N7    T    
C8    C9    A    
C40   H20   S    
C33   H10   S    
C38   H17   S    
C4    O8    A    
C33   H9    S    
C40   H19   S    
C13   C14   A    
Cu2   O6    S    
C20   H23   S    
C2    C6    A    
C34   C41   S    
C24   H22   S    
C4    O7    A    
C21   H25   S    
C14   H26   S    
C37   O3    S    
C3    C8    A    
C26   H2    S    
C18   C19   A    
C4    C44   S    
C25   C26   S    
C17   C21   A    
C25   H28   S    
C43   C44   T    
C32   N5    T    
Cu1   O11   S    
C38   H18   S    
C23   C34   S    
C10   C45   A    
C17   C18   A    
Cu2   O10   S    
C31   H6    S    
C15   C39   S    
Cu1   O1    S    
C30   N4    T    
C16   O9    A    
C22   C27   S    
C2    C5    A    
Cu2   N2    S    
C41   H3    S    
C38   H16   S    
C15   C17   A    
Cu1   Cu2   S    
C1    O6    A    
C12   C30   S    
Cu2   O8    S    
C24   C28   S    
C3    C5    A    
C16   C45   S    
C37   H14   S    
C6    C7    A    
Cu1   O7    S    
C13   H24   S    
C12   C24   S    
C28   C43   S    
C34   H5    S    
C6    O3    S    
C38   O4    S    
C40   O5    S    
C11   C35   S    
C10   H12   S    
C39   N8    T    
C27   C42   T    
C15   N2    A    
C31   H7    S    
C37   H13   S    
C10   C11   A    
C25   C28   S    
C20   C21   A    
C26   O5    S    
C40   H21   S    
Cu2   O12   S    
C31   H8    S    
C41   H4    S    
