data_mof_unit_35262.cif
_audit_creation_date              2012-12-10T17:57:27-0500
_audit_creation_method            fapswitch 2.2
_symmetry_space_group_name_H-M    P1
_symmetry_Int_Tables_number       1
_space_group_crystal_system       triclinic
_cell_length_a                    9.542095
_cell_length_b                    10.806281
_cell_length_c                    13.456582
_cell_angle_alpha                 90.772354
_cell_angle_beta                  72.151312
_cell_angle_gamma                 89.66414
_cell_volume                      1320.59200973

loop_
_atom_site_label
_atom_site_type_symbol
_atom_type_description
_atom_site_fract_x
_atom_site_fract_y
_atom_site_fract_z
_atom_type_partial_charge
C1    C     C_R   0.501928 0.737593 0.495217 0.840877
C2    C     C_R   0.434845 0.482476 0.979404 0.084420
C3    C     C_R   0.472726 0.454041 0.871028 0.090448
C4    C     C_R   0.544067 0.468370 0.030806 0.073441
C5    C     C_R   0.683712 0.416086 0.975978 0.174440
C6    C     C_R   0.711972 0.375168 0.873173 -0.216137
C7    C     C_R   0.607295 0.391538 0.822128 -0.197057
C8    C     C_R   0.519212 0.505320 0.135106 -0.241150
C9    C     C_R   0.762567 0.434970 0.130504 -0.192433
C10   C     C_R   0.373660 0.487286 0.815188 -0.107569
C11   C     C_R   0.634851 0.936656 0.438236 0.009800
C12   C     C_R   0.421279 0.493238 0.700131 0.778023
C13   C     C_R   0.632909 0.065206 0.446456 -0.262651
C14   C     C_R   0.502017 0.128662 0.497289 -0.014965
C15   C     C_R   0.371949 0.064456 0.542020 -0.171545
C16   C     C_R   0.373424 0.936558 0.538780 -0.211361
C17   C     C_R   0.504235 0.871634 0.488816 -0.040180
C18   C     C_R   0.892392 0.568780 0.571323 0.021681
C19   C     C_R   0.040428 0.569703 0.572576 0.104275
C20   C     C_R   0.105684 0.430524 0.428618 -0.042620
C21   C     C_R   0.957063 0.430594 0.428668 -0.025495
C22   C     C_R   0.500311 0.262313 0.499937 0.783215
C23   C     C_R   0.579005 0.498555 0.299882 0.835287
C24   C     C_R   0.792497 0.402044 0.025581 -0.188689
C25   C     C_R   0.624230 0.483797 0.186143 -0.034885
C26   C     C_R   0.230351 0.526907 0.870442 -0.190359
C27   C     C_R   0.187662 0.541321 0.978145 -0.139752
C28   C     C_R   0.288713 0.522212 0.032170 -0.184465
Cu1   Cu    Cu3+1 0.359340 0.499980 0.500000 0.934159
Cu2   Cu    Cu3+1 0.640660 0.500020 0.500000 0.968023
H1    H     H_    0.845189 0.417854 0.168904 0.146959
H2    H     H_    0.732002 0.116435 0.408796 0.132199
H3    H     H_    0.270001 0.113151 0.581361 0.151159
H4    H     H_    0.272547 0.888365 0.577214 0.148684
H5    H     H_    0.808854 0.624152 0.627027 0.174529
H6    H     H_    0.186468 0.374582 0.371451 0.133071
H7    H     H_    0.926270 0.374816 0.371466 0.115209
H8    H     H_    0.815487 0.329729 0.831953 0.147080
H9    H     H_    0.899293 0.362318 0.983945 0.139881
H10   H     H_    0.417831 0.550078 0.179400 0.151078
H11   H     H_    0.151499 0.549583 0.830209 0.183398
H12   H     H_    0.247465 0.536481 0.115486 0.130994
H13   H     H_    0.076417 0.571296 0.019880 0.165827
H14   H     H_    0.632486 0.350928 0.744843 0.174978
N1    N     N_R   0.147940 0.499970 0.499970 -0.200735
N2    N     N_R   0.852060 0.500060 0.499990 -0.181320
O1    O     O_R   0.381250 0.680340 0.500010 -0.619391
O2    O     O_R   0.618820 0.680370 0.500010 -0.546006
O3    O     O_R   0.323240 0.499950 0.650980 -0.607212
O4    O     O_R   0.560810 0.499980 0.650980 -0.588967
O5    O     O_R   0.381180 0.319630 0.499990 -0.584355
O6    O     O_R   0.618750 0.319660 0.499990 -0.593123
O7    O     O_R   0.439190 0.500020 0.349020 -0.593356
O8    O     O_R   0.676760 0.500050 0.349020 -0.557369
C29   C     C_2   0.072757 0.648681 0.653814 0.292958
H15   H     H_    0.182081 0.677144 0.648638 0.141321
O9    O     O_2   0.973616 0.685504 0.729928 -0.581319
C30   C     C_2   0.772755 0.876929 0.371615 0.360162
H16   H     H_    0.877574 0.921565 0.362195 0.059269
O10   O     O_2   0.770631 0.782160 0.321704 -0.532381

loop_
_geom_bond_atom_site_label_1
_geom_bond_atom_site_label_2
_ccdc_geom_bond_type
C12   O4    A    
C29   H15   S    
C19   N1    A    
C1    O2    A    
C12   O3    A    
C6    C7    A    
Cu1   O7    S    
C11   C30   S    
C11   C13   A    
C18   H5    S    
C13   H2    S    
C1    C17   S    
C20   N1    A    
C4    C8    A    
C10   C26   A    
C6    H8    S    
C2    C3    A    
Cu2   O4    S    
C9    C25   A    
C9    C24   A    
C3    C10   A    
Cu1   O3    S    
C13   C14   A    
C8    C25   A    
Cu2   O8    S    
C14   C22   S    
C26   C27   A    
Cu1   Cu2   S    
C5    C24   A    
C10   C12   S    
Cu1   O1    S    
C2    C4    A    
C18   N2    A    
Cu2   O2    S    
Cu2   N2    S    
C23   O7    A    
C3    C7    A    
C23   C25   S    
C1    O1    A    
C5    C6    A    
C22   O5    A    
C9    H1    S    
C19   C29   S    
C15   C16   A    
C20   H6    S    
C27   H13   S    
C24   H9    S    
C21   H7    S    
C20   C21   A    
C23   O8    A    
C22   O6    A    
C21   N2    A    
Cu1   O5    S    
C28   H12   S    
C27   C28   A    
C18   C19   A    
Cu2   O6    S    
C14   C15   A    
C4    C5    A    
C2    C28   A    
C8    H10   S    
C16   H4    S    
C30   H16   S    
C29   O9    D    
C30   O10   D    
C15   H3    S    
C11   C17   A    
C26   H11   S    
Cu1   N1    S    
C16   C17   A    
C7    H14   S    
