data_mof_unit_10038.cif
_audit_creation_date              2012-12-11T20:37:08-0500
_audit_creation_method            fapswitch 2.2
_symmetry_space_group_name_H-M    P1
_symmetry_Int_Tables_number       1
_space_group_crystal_system       triclinic
_cell_length_a                    8.219652
_cell_length_b                    18.904696
_cell_length_c                    22.916474
_cell_angle_alpha                 97.333473
_cell_angle_beta                  89.653932
_cell_angle_gamma                 93.63061
_cell_volume                      3524.76682712

loop_
_atom_site_label
_atom_site_type_symbol
_atom_type_description
_atom_site_fract_x
_atom_site_fract_y
_atom_site_fract_z
_atom_type_partial_charge
Ba1   Ba    Ba6+2 0.849480 0.533290 0.473010 1.648832
Ba2   Ba    Ba6+2 0.340340 0.466770 0.527000 1.652045
C1    C     C_3   0.659192 0.799361 0.334574 -0.220347
C2    C     C_3   0.599731 0.722333 0.340326 0.227523
C3    C     C_3   0.507078 0.362790 0.346927 0.340125
C4    C     C_3   0.520446 0.347864 0.280079 -0.122306
C5    C     C_3   0.092242 0.311964 0.684254 0.264103
C6    C     C_3   0.111407 0.289056 0.745098 -0.223392
C7    C     C_3   0.566625 0.274511 0.653232 0.303886
C8    C     C_3   0.567525 0.203030 0.677825 -0.242717
C9    C     C_R   0.340081 0.520555 0.332702 -0.305115
C10   C     C_R   0.095076 0.560212 0.940679 -0.029079
C11   C     C_R   0.049963 0.555808 0.880398 0.596073
C12   C     C_3   0.099133 0.684941 0.320909 0.342777
C13   C     C_R   0.958800 0.432654 0.880126 0.577507
C14   C     C_R   0.004001 0.435281 0.939833 -0.025071
C15   C     C_R   0.071989 0.499422 0.970351 -0.051268
C16   C     C_R   0.162123 0.624140 0.972230 -0.071169
C17   C     C_R   0.204920 0.627523 0.031696 -0.069203
C18   C     C_R   0.182938 0.567010 0.061746 -0.023029
C19   C     C_R   0.116534 0.502715 0.030842 -0.050177
C20   C     C_R   0.982552 0.374662 0.969712 -0.061265
C21   C     C_R   0.027859 0.377676 0.028701 -0.074184
C22   C     C_R   0.094996 0.441563 0.060111 -0.026971
C23   C     C_3   0.077916 0.708292 0.260325 -0.067794
C24   C     C_R   0.141818 0.445304 0.119922 0.590686
C25   C     C_R   0.225524 0.569544 0.121925 0.580130
C26   C     C_2   0.792533 0.454346 0.768240 -0.082235
C27   C     C_3   0.768975 0.429986 0.703440 -0.040164
C28   C     C_1   0.004367 0.510779 0.685461 0.036593
C29   C     C_2   0.050051 0.515258 0.742015 -0.105858
C30   C     C_2   0.936790 0.487584 0.787694 0.185502
C31   C     C_R   0.404187 0.543688 0.233239 -0.086444
C32   C     C_R   0.447334 0.548128 0.292820 -0.017001
C33   C     C_R   0.191215 0.486434 0.314192 0.025112
C34   C     C_3   0.202964 0.687331 0.608554 0.303445
C35   C     C_R   0.144785 0.483118 0.254542 -0.101390
C36   C     C_R   0.250390 0.512428 0.213084 0.199197
C37   C     C_2   0.872193 0.472617 0.664268 -0.302124
C38   C     C_2   0.397814 0.706010 0.483992 -0.288343
C39   C     C_3   0.259768 0.755206 0.485174 -0.013017
C40   C     C_2   0.326500 0.829822 0.477409 -0.161044
C41   C     C_2   0.478085 0.852309 0.498206 -0.054247
C42   C     C_2   0.578675 0.799242 0.523343 0.088521
C43   C     C_1   0.529901 0.729565 0.514897 0.052932
C44   C     C_R   0.649782 0.068483 0.506717 0.449915
C45   C     C_3   0.224114 0.766519 0.631879 -0.377673
C46   C     C_R   0.540029 0.928493 0.499414 0.481958
C47   C     C_R   0.614409 0.192990 0.485557 -0.131972
C48   C     C_R   0.665374 0.265250 0.489858 0.041047
C49   C     C_R   0.905424 0.244026 0.543444 0.014754
C50   C     C_R   0.856477 0.170919 0.539229 -0.142044
C51   C     C_R   0.707575 0.145005 0.511148 -0.069015
C52   C     C_R   0.805583 0.290938 0.521150 -0.274618
C53   C     C_3   0.001320 0.315689 0.400126 0.300337
C54   C     C_3   0.986094 0.235070 0.383145 -0.373628
C55   C     C_3   0.682806 0.618533 0.649547 0.346076
C56   C     C_3   0.674993 0.633450 0.716542 -0.114739
H1    H     H_    0.612106 0.715727 0.387505 0.053909
H2    H     H_    0.291324 0.773863 0.674335 0.135495
H3    H     H_    0.294408 0.796482 0.600694 0.064838
H4    H     H_    0.102838 0.788979 0.638851 0.126274
H5    H     H_    0.881467 0.334635 0.414060 0.005115
H6    H     H_    0.089423 0.328426 0.436957 0.072407
H7    H     H_    0.892467 0.220790 0.348167 0.129682
H8    H     H_    0.950092 0.207884 0.421678 0.069960
H9    H     H_    0.104996 0.215909 0.366706 0.132552
H10   H     H_    0.808534 0.607231 0.636295 -0.024998
H11   H     H_    0.599708 0.571116 0.634828 0.080230
H12   H     H_    0.787802 0.808752 0.349926 0.148284
H13   H     H_    0.751644 0.682749 0.732333 0.111075
H14   H     H_    0.724176 0.588325 0.735779 0.054430
H15   H     H_    0.469393 0.713726 0.327274 0.007348
H16   H     H_    0.583895 0.836178 0.363336 0.016627
H17   H     H_    0.377382 0.369289 0.358573 -0.017729
H18   H     H_    0.580012 0.413378 0.361761 0.062763
H19   H     H_    0.458723 0.294893 0.264097 0.113826
H20   H     H_    0.457939 0.389343 0.260092 0.061746
H21   H     H_    0.056892 0.659879 0.227668 0.106291
H22   H     H_    0.165476 0.363202 0.682878 0.096847
H23   H     H_    0.961973 0.320260 0.676934 -0.058174
H24   H     H_    0.091611 0.335195 0.778647 0.117869
H25   H     H_    0.237454 0.273402 0.751040 0.141987
H26   H     H_    0.696556 0.292309 0.647559 -0.066596
H27   H     H_    0.507881 0.266922 0.609125 0.058224
H28   H     H_    0.663811 0.171150 0.655155 0.005677
H29   H     H_    0.988980 0.650872 0.329200 0.092362
H30   H     H_    0.597846 0.212495 0.725516 0.170808
H31   H     H_    0.009420 0.329633 0.049724 0.129946
H32   H     H_    0.930885 0.324322 0.947464 0.148129
H33   H     H_    0.255718 0.677928 0.054104 0.125516
H34   H     H_    0.490679 0.564068 0.202715 0.114602
H35   H     H_    0.181567 0.672007 0.951040 0.126752
H36   H     H_    0.170627 0.538097 0.755295 0.140383
H37   H     H_    0.703215 0.435783 0.798826 0.124170
H38   H     H_    0.027508 0.457563 0.240551 0.136500
H39   H     H_    0.375721 0.523092 0.378323 0.081504
H40   H     H_    0.207711 0.652989 0.320788 -0.025060
H41   H     H_    0.854806 0.459143 0.617170 0.084648
H42   H     H_    0.247072 0.866324 0.460594 0.120347
H43   H     H_    0.504367 0.174279 0.461085 0.107875
H44   H     H_    0.934156 0.134885 0.557235 0.106970
H45   H     H_    0.396919 0.657199 0.453311 0.059724
H46   H     H_    0.843734 0.347123 0.524048 0.059578
H47   H     H_    0.969191 0.740253 0.260250 0.154089
H48   H     H_    0.324148 0.667051 0.598173 0.020942
H49   H     H_    0.124902 0.679966 0.568617 0.032557
N1    N     N_R   0.982881 0.492286 0.850239 -0.426102
N2    N     N_R   0.204205 0.509166 0.150917 -0.424324
N3    N     N_R   0.494615 0.047155 0.489233 -0.244784
N4    N     N_R   0.440785 0.978763 0.485750 -0.247352
N5    N     N_R   0.695780 0.949783 0.516188 -0.205877
N6    N     N_R   0.749552 0.018236 0.519923 -0.234367
O1    O     O_2   0.898140 0.461210 0.359840 -0.442618
O2    O     O_3   0.639504 0.679196 0.625619 -0.653993
O3    O     O_3   0.117759 0.745354 0.363471 -0.616003
O4    O     O_2   0.291560 0.538810 0.640200 -0.453387
O5    O     O_3   0.051160 0.538120 0.569110 -0.491511
O6    O     O_3   0.535440 0.410410 0.602240 -0.474270
O7    O     O_3   0.128821 0.652104 0.652402 -0.622468
O8    O     O_3   0.632100 0.415050 0.468960 -0.479534
O9    O     O_3   0.124670 0.374100 0.572690 -0.488899
O10   O     O_2   0.241625 0.247585 0.532962 -0.483539
O11   O     O_3   0.148891 0.259080 0.641877 -0.608379
O12   O     O_3   0.138540 0.461940 0.430900 -0.493325
O13   O     O_3   0.557600 0.585010 0.531050 -0.485431
O14   O     O_2   0.379790 0.327560 0.468300 -0.457423
O15   O     O_3   0.563126 0.305031 0.372331 -0.649422
O16   O     O_2   0.431824 0.461825 0.709110 -0.489259
O17   O     O_3   0.483425 0.324466 0.691648 -0.588681
O18   O     O_2   0.068102 0.608952 0.855233 -0.593399
O19   O     O_2   0.898179 0.376602 0.854741 -0.567741
O20   O     O_2   0.129441 0.391171 0.144025 -0.596657
O21   O     O_2   0.280924 0.625914 0.148494 -0.602213
O22   O     O_3   0.654260 0.589640 0.397760 -0.478539
O23   O     O_2   0.785231 0.543643 0.294202 -0.490366
O24   O     O_3   0.054112 0.347317 0.350984 -0.626183
O25   O     O_3   0.694247 0.674614 0.304615 -0.610498
O26   O     O_2   0.809910 0.672460 0.531740 -0.471481
O27   O     O_3   0.065030 0.625960 0.427320 -0.493108
O28   O     O_2   0.925387 0.748335 0.453659 -0.483530
P1    P     P_3+3 0.069200 0.440380 0.368230 1.005072
P2    P     P_3+3 0.634560 0.662100 0.548650 0.974419
P3    P     P_3+3 0.091116 0.719013 0.433690 0.953023
P4    P     P_3+3 0.120500 0.559680 0.631780 1.006547
P5    P     P_3+3 0.105447 0.280840 0.572142 0.949907
P6    P     P_3+3 0.645210 0.587930 0.321267 0.949535
P7    P     P_3+3 0.562404 0.326108 0.448961 0.949206
P8    P     P_3+3 0.553357 0.410229 0.677929 0.963024
N7    N     N_3   0.506710 0.640985 0.735936 -0.454168
H50   H     H_    0.469525 0.689646 0.725257 0.202980
H51   H     H_    0.505480 0.644760 0.781855 0.192013
N8    N     N_3   0.691282 0.349926 0.262131 -0.462511
H52   H     H_    0.694482 0.345002 0.216178 0.190737
H53   H     H_    0.743201 0.304808 0.274210 0.213907
C57   C     C_2   0.645317 0.815652 0.272497 0.553830
H54   H     H_    0.528825 0.807906 0.250038 0.022742
O29   O     O_2   0.764430 0.838474 0.247027 -0.569801
C58   C     C_2   0.993831 0.227080 0.753283 0.551050
H55   H     H_    0.997941 0.177378 0.723975 0.051941
O30   O     O_2   0.893276 0.231942 0.792742 -0.531072
C59   C     C_2   0.408143 0.160314 0.667742 0.563702
H56   H     H_    0.360809 0.146390 0.623360 0.022781
O31   O     O_2   0.332158 0.139908 0.709015 -0.570376
N9    N     N_3   0.700984 0.826373 0.566550 -0.473393
H57   H     H_    0.667172 0.810836 0.607286 0.184156
H58   H     H_    0.812947 0.806286 0.553867 0.213020
N10   N     N_3   0.222424 0.750099 0.243988 -0.470906
H59   H     H_    0.206304 0.760387 0.200708 0.222391
H60   H     H_    0.226682 0.799809 0.270065 0.202182

loop_
_geom_bond_atom_site_label_1
_geom_bond_atom_site_label_2
_ccdc_geom_bond_type
O6    P8    S    
C53   C54   S    
N9    H57   S    
C6    H25   S    
C39   C40   S    
C17   C18   A    
C5    O11   S    
O24   P1    S    
C45   H4    S    
Ba2   O5    S    
C23   H47   S    
C5    C6    S    
C55   O2    S    
C7    O17   S    
C42   C43   D    
Ba2   P4    S    
C8    H30   S    
C48   C52   A    
C26   H37   S    
C6    H24   S    
O1    P1    D    
C52   H46   S    
C26   C27   S    
C33   C35   A    
C22   C24   A    
C12   H29   S    
C16   C17   A    
C47   H43   S    
C28   C29   D    
C12   O3    S    
C56   H13   S    
C4    H20   S    
C13   C14   A    
O13   P2    S    
C44   C51   S    
C34   C45   S    
O4    P4    D    
Ba1   Ba2   S    
C1    H16   S    
N3    N4    A    
Ba1   P1    S    
C7    H27   S    
C45   H2    S    
O3    P3    S    
O26   P2    D    
C8    H28   S    
C13   O19   D    
C58   H55   S    
C14   C15   A    
C53   H5    S    
C10   C15   A    
C21   C22   A    
C58   O30   D    
N8    H53   S    
C7    C8    S    
O12   P1    S    
Ba1   O26   S    
O14   P7    D    
C42   N9    S    
Ba2   O14   S    
N10   H60   S    
O7    P4    S    
N9    H58   S    
C34   H49   S    
C54   H8    S    
C11   N1    Am   
C20   C21   A    
N5    N6    A    
Ba2   O4    S    
C12   H40   S    
C59   O31   D    
Ba2   O9    S    
C23   N10   S    
C11   O18   D    
C38   C43   D    
O2    P2    S    
C34   H48   S    
C49   C50   A    
O23   P6    D    
N10   H59   S    
C26   C30   D    
C1    H12   S    
Ba1   O13   S    
C39   P3    S    
C3    O15   S    
C31   H34   S    
O15   P7    S    
C4    H19   S    
C7    H26   S    
C49   P5    S    
O11   P5    S    
C15   C19   A    
C35   H38   S    
C13   N1    Am   
C3    H17   S    
C41   C42   S    
O16   P8    D    
C35   C36   A    
Ba1   P2    S    
C40   H42   S    
C32   P6    S    
C37   H41   S    
C29   C30   S    
O10   P5    D    
O25   P6    S    
C50   H44   S    
C53   H6    S    
C27   C37   S    
O17   P8    S    
C21   H31   S    
C31   C32   A    
C20   H32   S    
O8    P7    S    
C10   C11   A    
C36   N2    S    
C24   N2    Am   
C2    H15   S    
Ba1   O27   S    
Ba2   O13   S    
C38   C39   S    
C46   N5    A    
O22   P6    S    
C44   N3    A    
C30   N1    S    
N7    H51   S    
O28   P3    D    
Ba1   O1    S    
C55   H10   S    
C1    C2    S    
C54   H9    S    
C50   C51   A    
C28   P4    S    
C59   H56   S    
C41   C46   S    
Ba2   O8    S    
C48   P7    S    
C57   H54   S    
C14   C20   A    
C44   N6    A    
C5    H23   S    
C23   H21   S    
C25   O21   D    
O5    P4    S    
C9    C32   A    
O27   P3    S    
Ba1   O12   S    
C45   H3    S    
Ba2   O6    S    
C18   C25   A    
C29   H36   S    
C31   C36   A    
C53   O24   S    
C9    H39   S    
C49   C52   A    
C3    H18   S    
C9    C33   A    
C24   O20   D    
C38   H45   S    
C56   H14   S    
C55   C56   S    
C3    C4    S    
C47   C51   A    
C2    H1    S    
C57   O29   D    
C1    C57   S    
C28   C37   D    
Ba1   O5    S    
O9    P5    S    
C12   C23   S    
C34   O7    S    
Ba1   O8    S    
C4    N8    S    
C17   H33   S    
C33   P1    S    
C27   P8    S    
Ba2   O12   S    
C56   N7    S    
C46   N4    A    
C18   C19   A    
C25   N2    Am   
C8    C59   S    
C47   C48   A    
C40   C41   D    
C19   C22   A    
C10   C16   A    
C43   P2    S    
C16   H35   S    
N7    H50   S    
C55   H11   S    
N8    H52   S    
Ba1   O22   S    
C6    C58   S    
C2    O25   S    
C54   H7    S    
C5    H22   S    
