data_mof_unit_37774.cif
_audit_creation_date              2012-10-26T18:59:20-0400
_audit_creation_method            fapswitch 2.2
_symmetry_space_group_name_H-M    P1
_symmetry_Int_Tables_number       1
_space_group_crystal_system       triclinic
_cell_length_a                    10.840187
_cell_length_b                    19.452887
_cell_length_c                    18.093412
_cell_angle_alpha                 90.069989
_cell_angle_beta                  90.092207
_cell_angle_gamma                 90.242589
_cell_volume                      3815.36883453

loop_
_atom_site_label
_atom_site_type_symbol
_atom_type_description
_atom_site_fract_x
_atom_site_fract_y
_atom_site_fract_z
_atom_type_partial_charge
C1    C     C_R   0.499735 0.367489 0.499987 0.540635
C2    C     C_R   0.490138 0.184167 0.566675 -0.124834
C3    C     C_R   0.500657 0.852211 0.500085 0.032752
C4    C     C_R   0.499342 0.147788 0.499915 0.032752
C5    C     C_R   0.491824 0.815941 0.566871 -0.123184
C6    C     C_R   0.508173 0.184059 0.433129 -0.123184
C7    C     C_R   0.491952 0.744362 0.566900 -0.135072
C8    C     C_R   0.508045 0.255638 0.433100 -0.135072
C9    C     C_R   0.500688 0.707961 0.500084 0.010528
C10   C     C_R   0.499312 0.292039 0.499916 0.010529
C11   C     C_R   0.417180 0.963970 0.544868 -0.117675
C12   C     C_R   0.500265 0.632511 0.500013 0.540635
C13   C     C_R   0.582819 0.036030 0.455131 -0.117675
C14   C     C_R   0.416825 0.035547 0.544809 -0.117270
C15   C     C_R   0.583175 0.964453 0.455191 -0.117270
C16   C     C_R   0.262012 0.501913 0.499788 0.548207
C17   C     C_R   0.737988 0.498087 0.500212 0.548207
C18   C     C_R   0.499644 0.072116 0.499941 0.030072
C19   C     C_R   0.500355 0.927884 0.500059 0.030072
C20   C     C_R   0.428463 0.454947 0.722042 0.035937
C21   C     C_R   0.571536 0.545053 0.277958 0.035937
C22   C     C_R   0.429405 0.454873 0.799492 -0.162041
C23   C     C_R   0.871793 0.496618 0.500644 -0.003985
C24   C     C_R   0.570594 0.545127 0.200508 -0.162041
C25   C     C_R   0.503681 0.501808 0.838593 0.011143
C26   C     C_R   0.496318 0.498192 0.161407 0.011143
C27   C     C_R   0.579496 0.547950 0.798061 -0.020831
C28   C     C_R   0.420505 0.452050 0.201939 -0.020831
C29   C     C_R   0.574660 0.545507 0.719731 0.074771
C30   C     C_R   0.425340 0.454493 0.280269 0.074771
C31   C     C_R   0.452701 0.556407 0.961674 -0.121780
C32   C     C_R   0.547299 0.443594 0.038326 -0.121779
C33   C     C_R   0.451686 0.555626 0.039377 -0.122354
C34   C     C_R   0.128207 0.503382 0.499356 -0.003985
C35   C     C_R   0.548313 0.444374 0.960623 -0.122354
C36   C     C_R   0.498280 0.499032 0.078594 0.023059
C37   C     C_R   0.501719 0.500968 0.921406 0.023059
C38   C     C_R   0.251342 0.649296 0.319265 -0.094307
C39   C     C_R   0.748659 0.350704 0.680736 -0.094308
C40   C     C_R   0.192612 0.620557 0.380747 -0.051064
C41   C     C_R   0.807388 0.379443 0.619253 -0.051064
C42   C     C_R   0.120081 0.560904 0.372858 0.049974
C43   C     C_R   0.879919 0.439096 0.627142 0.049974
C44   C     C_R   0.104716 0.531639 0.302399 -0.103473
C45   C     C_R   0.939034 0.471452 0.561871 -0.033257
C46   C     C_R   0.895285 0.468361 0.697601 -0.103473
C47   C     C_R   0.163724 0.560524 0.241115 -0.114318
C48   C     C_R   0.836277 0.439476 0.758885 -0.114318
C49   C     C_R   0.237520 0.619077 0.249602 -0.098932
C50   C     C_R   0.762481 0.380923 0.750398 -0.098932
C51   C     C_R   0.933219 0.524146 0.439409 -0.153765
C52   C     C_R   0.066781 0.475854 0.560591 -0.153765
C53   C     C_3   0.665476 0.596944 0.839304 -0.270957
C54   C     C_3   0.753018 0.639848 0.790874 -0.315336
C55   C     C_3   0.838936 0.684085 0.838165 -0.452227
C56   C     C_R   0.060966 0.528548 0.438129 -0.033257
C57   C     C_3   0.334525 0.403055 0.160696 -0.270958
C58   C     C_3   0.246983 0.360151 0.209126 -0.315336
C59   C     C_3   0.161065 0.315914 0.161835 -0.452227
C60   C     C_R   0.510017 0.744270 0.433320 -0.140517
C61   C     C_R   0.489984 0.255730 0.566680 -0.140517
C62   C     C_R   0.509863 0.815833 0.433324 -0.124835
Cu1   Cu    Cu3+1 0.499960 0.500000 0.573360 0.930746
Cu2   Cu    Cu3+1 0.500040 0.500000 0.426640 0.930746
H1    H     H_    0.283752 0.641101 0.202177 0.097395
H2    H     H_    0.629738 0.581151 0.307452 0.116364
H3    H     H_    0.371428 0.418661 0.828930 0.095237
H4    H     H_    0.628570 0.581340 0.171070 0.095236
H5    H     H_    0.630574 0.579491 0.686550 0.125474
H6    H     H_    0.369426 0.420509 0.313450 0.125474
H7    H     H_    0.414608 0.600237 0.932869 0.098969
H8    H     H_    0.585392 0.399763 0.067131 0.098969
H9    H     H_    0.413312 0.598941 0.069012 0.097322
H10   H     H_    0.586687 0.401059 0.930988 0.097322
H11   H     H_    0.307698 0.694944 0.325614 0.097073
H12   H     H_    0.716249 0.358899 0.797824 0.097395
H13   H     H_    0.692303 0.305056 0.674387 0.097073
H14   H     H_    0.204715 0.644192 0.434526 0.097458
H15   H     H_    0.795285 0.355808 0.565474 0.097459
H16   H     H_    0.048542 0.485941 0.295218 0.096585
H17   H     H_    0.951458 0.514059 0.704782 0.096585
H18   H     H_    0.152839 0.537268 0.187114 0.103350
H19   H     H_    0.847162 0.462732 0.812886 0.103350
H20   H     H_    0.881314 0.544486 0.393072 0.127518
H21   H     H_    0.118686 0.455514 0.606928 0.127518
H22   H     H_    0.517630 0.717451 0.381054 0.115167
H23   H     H_    0.485209 0.717613 0.619219 0.120482
H24   H     H_    0.482374 0.282549 0.618946 0.115167
H25   H     H_    0.515556 0.842756 0.381074 0.100406
H26   H     H_    0.484448 0.157244 0.618926 0.100406
H27   H     H_    0.486247 0.842975 0.619116 0.101371
H28   H     H_    0.513748 0.157025 0.380884 0.101372
H29   H     H_    0.784644 0.719900 0.873063 0.149490
H30   H     H_    0.896851 0.651110 0.874215 0.148466
H31   H     H_    0.900504 0.714734 0.801792 0.142646
H32   H     H_    0.810306 0.605347 0.756197 0.158065
H33   H     H_    0.698562 0.674331 0.754439 0.152449
H34   H     H_    0.514786 0.282387 0.380781 0.120482
H35   H     H_    0.608650 0.632942 0.872419 0.144580
H36   H     H_    0.722390 0.566096 0.878132 0.152262
H37   H     H_    0.103150 0.348889 0.125785 0.148466
H38   H     H_    0.215358 0.280099 0.126937 0.149491
H39   H     H_    0.099497 0.285265 0.198208 0.142646
H40   H     H_    0.301439 0.325669 0.245562 0.152449
H41   H     H_    0.189695 0.394653 0.243803 0.158065
H42   H     H_    0.277610 0.433903 0.121868 0.152262
H43   H     H_    0.391351 0.367058 0.127581 0.144580
H44   H     H_    0.351258 0.936795 0.579112 0.100862
H45   H     H_    0.648740 0.063205 0.420888 0.100862
H46   H     H_    0.350642 0.062329 0.579014 0.101144
H47   H     H_    0.649358 0.937671 0.420986 0.101144
H48   H     H_    0.370260 0.418850 0.692548 0.116365
N1    N     N_R   0.499990 0.500020 0.683620 -0.226603
N2    N     N_R   0.500010 0.499980 0.316380 -0.226603
O1    O     O_R   0.499950 0.400180 0.561980 -0.507559
O2    O     O_R   0.500050 0.599820 0.438020 -0.507559
O3    O     O_R   0.500010 0.400190 0.438070 -0.513406
O4    O     O_R   0.499990 0.599810 0.561930 -0.513405
O5    O     O_R   0.319610 0.500000 0.561950 -0.510285
O6    O     O_R   0.680390 0.500000 0.438050 -0.510285
O7    O     O_R   0.319670 0.500010 0.438050 -0.492932
O8    O     O_R   0.680330 0.499990 0.561950 -0.492933

loop_
_geom_bond_atom_site_label_1
_geom_bond_atom_site_label_2
_ccdc_geom_bond_type
C35   H10   S    
C34   C56   A    
C23   C45   A    
C21   H2    S    
C27   C29   A    
C14   C18   A    
C55   H29   S    
C47   C49   A    
C38   C49   A    
C28   C57   S    
C53   H35   S    
C15   C19   A    
C11   C19   A    
C17   C23   S    
C49   H1    S    
C13   C18   A    
Cu2   O2    S    
C39   H13   S    
C52   H21   S    
C35   C37   A    
C24   C26   A    
C20   N1    A    
C11   C14   A    
Cu2   O7    S    
C62   H25   S    
C26   C36   S    
C33   C36   A    
C60   C62   A    
C51   C56   A    
C47   H18   S    
C2    H26   S    
C8    H34   S    
C13   H45   S    
C17   O6    A    
C16   C34   S    
C20   H48   S    
C7    H23   S    
C22   C25   A    
C31   C33   A    
C54   H33   S    
C3    C19   S    
C54   H32   S    
C44   C47   A    
C4    C18   S    
C40   C42   A    
C57   H42   S    
C41   C43   A    
C42   C44   A    
C55   H30   S    
C30   H6    S    
C2    C61   A    
C29   H5    S    
C38   H11   S    
C53   H36   S    
C46   C48   A    
Cu2   N2    S    
C59   H37   S    
C32   C35   A    
C15   H47   S    
C44   H16   S    
C55   H31   S    
C16   O5    A    
C5    C7    A    
Cu1   O4    S    
C60   H22   S    
C6    C8    A    
C45   C52   A    
C58   C59   S    
C53   C54   S    
Cu2   O3    S    
C31   C37   A    
C2    C4    A    
C16   O7    A    
C61   H24   S    
C50   H12   S    
C46   H17   S    
Cu1   O5    S    
C23   C51   A    
C1    O3    A    
C42   C56   S    
C43   C45   S    
C5    H27   S    
C12   O4    A    
C4    C6    A    
C57   H43   S    
C20   C22   A    
C13   C15   A    
C40   H14   S    
C10   C61   A    
C58   H40   S    
C32   C36   A    
Cu1   O8    S    
C30   N2    A    
C3    C62   A    
C33   H9    S    
C14   H46   S    
C29   N1    A    
C54   C55   S    
C59   H38   S    
C34   C52   A    
C1    C10   S    
C21   N2    A    
C3    C5    A    
C41   H15   S    
C27   C53   S    
C25   C27   A    
C26   C28   A    
Cu2   O6    S    
C48   H19   S    
C9    C60   A    
C59   H39   S    
C58   H41   S    
C28   C30   A    
Cu1   O1    S    
C38   C40   A    
C57   C58   S    
C6    H28   S    
C48   C50   A    
C43   C46   A    
C22   H3    S    
C9    C12   S    
C24   H4    S    
Cu1   Cu2   S    
Cu1   N1    S    
C7    C9    A    
C17   O8    A    
C39   C50   A    
C39   C41   A    
C8    C10   A    
C21   C24   A    
C11   H44   S    
C1    O1    A    
C12   O2    A    
C51   H20   S    
C25   C37   S    
C31   H7    S    
C32   H8    S    
