data_mof_unit_37347.cif
_audit_creation_date              2012-12-11T17:23:12-0500
_audit_creation_method            fapswitch 2.2
_symmetry_space_group_name_H-M    P1
_symmetry_Int_Tables_number       1
_space_group_crystal_system       triclinic
_cell_length_a                    8.323103
_cell_length_b                    16.463253
_cell_length_c                    27.067508
_cell_angle_alpha                 95.390886
_cell_angle_beta                  93.087091
_cell_angle_gamma                 86.447858
_cell_volume                      3681.12750751

loop_
_atom_site_label
_atom_site_type_symbol
_atom_type_description
_atom_site_fract_x
_atom_site_fract_y
_atom_site_fract_z
_atom_type_partial_charge
Ba1   Ba    Ba6+2 0.851940 0.461560 0.523510 1.766726
Ba2   Ba    Ba6+2 0.337880 0.538370 0.476480 1.772326
C1    C     C_3   0.615066 0.158148 0.653984 0.591297
C2    C     C_R   0.936425 0.578847 0.179524 0.637671
C3    C     C_2   0.761555 0.554718 0.272542 0.342417
C4    C     C_3   0.088793 0.281723 0.656716 0.292966
C5    C     C_3   0.751268 0.577808 0.328268 -0.195922
C6    C     C_1   0.992297 0.486593 0.340087 0.008256
C7    C     C_2   0.009289 0.470400 0.290748 0.317675
C8    C     C_2   0.890557 0.509179 0.254539 0.228332
C9    C     C_R   0.998033 0.502766 0.100297 -0.078840
C10   C     C_R   0.985432 0.429653 0.122764 -0.067203
C11   C     C_R   0.011701 0.355110 0.094130 -0.034770
C12   C     C_3   0.609390 0.243761 0.635860 0.330941
C13   C     C_R   0.971653 0.577720 0.128915 -0.037894
C14   C     C_2   0.893099 0.546021 0.358511 -0.299663
C15   C     C_2   0.347265 0.477813 0.641843 -0.319399
C16   C     C_3   0.066602 0.252605 0.708222 0.658986
C17   C     C_R   0.118048 0.423383 0.971281 0.019985
C18   C     C_R   0.076216 0.573331 0.975068 0.021531
C19   C     C_R   0.117771 0.497482 0.948034 0.060071
C20   C     C_R   0.168791 0.350042 0.943566 -0.090421
C21   C     C_R   0.213455 0.349257 0.894723 -0.008939
C22   C     C_R   0.209088 0.421410 0.870910 -0.027792
C23   C     C_3   0.523603 0.648379 0.627626 0.293885
C24   C     C_R   0.160307 0.495653 0.897263 -0.078822
C25   C     C_R   0.155011 0.567956 0.872927 -0.036391
C26   C     C_R   0.197346 0.564799 0.822525 0.633792
C27   C     C_R   0.254058 0.420281 0.821284 0.691567
C28   C     C_3   0.178616 0.292617 0.422086 0.327855
C29   C     C_2   0.435069 0.453451 0.730149 0.338412
C30   C     C_3   0.450351 0.426274 0.675413 -0.053632
C31   C     C_1   0.211386 0.514532 0.657735 0.037434
C32   C     C_2   0.170636 0.516405 0.705098 -0.173246
C33   C     C_2   0.290302 0.487706 0.744943 0.143766
C34   C     C_3   0.525856 0.666354 0.683797 -0.309800
C35   C     C_R   0.070077 0.424888 0.021346 0.022140
C36   C     C_R   0.036965 0.500992 0.049198 0.060361
C37   C     C_R   0.042776 0.575351 0.026551 0.019967
C38   C     C_R   0.053275 0.352625 0.044760 -0.083330
C39   C     C_R   0.982431 0.650499 0.106553 -0.046794
C40   C     C_3   0.175339 0.199747 0.414924 -0.351539
C41   C     C_R   0.069434 0.644685 0.949325 -0.088023
C42   C     C_R   0.107481 0.641879 0.899541 -0.039806
C43   C     C_R   0.016567 0.649494 0.056666 -0.091032
C44   C     C_R   0.395271 0.268171 0.523756 0.105821
C45   C     C_3   0.950483 0.757767 0.350231 0.290168
C46   C     C_R   0.527554 0.241945 0.495729 -0.026235
C47   C     C_R   0.577402 0.158995 0.490268 -0.149194
C48   C     C_R   0.485737 0.100814 0.508832 0.297673
C49   C     C_R   0.339532 0.127135 0.530724 -0.213934
C50   C     C_R   0.294049 0.210840 0.537830 -0.054966
C51   C     C_R   0.629083 0.855514 0.518284 0.297402
C52   C     C_3   0.015409 0.712431 0.584128 0.309447
C53   C     C_R   0.670696 0.771438 0.511055 -0.022996
C54   C     C_R   0.718780 0.911237 0.495244 0.259199
C55   C     C_R   0.803394 0.742618 0.484122 -0.358402
C56   C     C_3   0.899788 0.820897 0.313725 0.250148
C57   C     C_R   0.904782 0.796564 0.467279 -0.027681
C58   C     C_R   0.860330 0.880866 0.471314 -0.138057
C59   C     C_3   0.007793 0.804335 0.599111 0.247310
C60   C     C_3   0.697186 0.242288 0.369322 0.882350
C61   C     C_3   0.585855 0.185807 0.335727 0.543458
C62   C     C_3   0.336271 0.637725 0.318103 0.302281
C63   C     C_3   0.239050 0.653263 0.270637 -0.330885
C64   C     C_R   0.945830 0.432472 0.173299 0.694179
Cl1   Cl    Cl    0.813287 0.291135 0.328382 -0.631372
Cl2   Cl    Cl    0.796061 0.099961 0.637644 -0.606221
Cl3   Cl    Cl    0.511450 0.106596 0.367523 -0.706723
Cl4   Cl    Cl    0.594478 0.430751 0.773528 -0.585291
Cl5   Cl    Cl    0.477392 0.889031 0.560402 -0.542379
H1    H     H_    0.647907 0.238264 0.596980 0.013159
H2    H     H_    0.481161 0.267259 0.636296 -0.092089
H3    H     H_    0.514157 0.124945 0.634628 0.070904
H4    H     H_    0.399299 0.635258 0.613908 0.008563
H5    H     H_    0.606863 0.594238 0.618637 0.036350
H6    H     H_    0.439737 0.718733 0.693996 0.148971
H7    H     H_    0.490880 0.612291 0.701275 0.060536
H8    H     H_    0.648935 0.681389 0.698253 0.136698
H9    H     H_    0.974218 0.697932 0.328957 -0.054038
H10   H     H_    0.846302 0.751992 0.373491 -0.023673
H11   H     H_    0.000838 0.830044 0.289877 0.062903
H12   H     H_    0.288336 0.171690 0.430423 0.096050
H13   H     H_    0.798289 0.797889 0.289067 0.077354
H14   H     H_    0.433619 0.681786 0.322689 -0.043277
H15   H     H_    0.257683 0.649456 0.349995 0.094352
H16   H     H_    0.200140 0.718929 0.270903 0.093229
H17   H     H_    0.132233 0.616471 0.268151 0.128020
H18   H     H_    0.992849 0.329206 0.649219 0.068742
H19   H     H_    0.311168 0.635389 0.237644 0.151644
H20   H     H_    0.000919 0.297734 0.109943 0.137189
H21   H     H_    0.251845 0.291121 0.875537 0.151556
H22   H     H_    0.179298 0.291814 0.958882 0.081632
H23   H     H_    0.077414 0.178515 0.435720 0.144806
H24   H     H_    0.068434 0.292492 0.025648 0.080616
H25   H     H_    0.964316 0.709281 0.127708 0.127223
H26   H     H_    0.032172 0.704111 0.966367 0.077581
H27   H     H_    0.207293 0.309157 0.656159 -0.106627
H28   H     H_    0.100112 0.698533 0.881940 0.131149
H29   H     H_    0.051407 0.540079 0.715499 0.145855
H30   H     H_    0.025028 0.708441 0.043127 0.077237
H31   H     H_    0.900350 0.568922 0.397325 0.098690
H32   H     H_    0.380657 0.479135 0.603771 0.122199
H33   H     H_    0.262386 0.082727 0.542519 0.166096
H34   H     H_    0.160357 0.177328 0.375037 0.200763
H35   H     H_    0.684435 0.139542 0.470550 0.184474
H36   H     H_    0.935355 0.922696 0.455941 0.122643
H37   H     H_    0.835143 0.677672 0.479468 0.075481
H38   H     H_    0.971774 0.207856 0.704408 0.157641
H39   H     H_    0.303953 0.309608 0.429757 -0.053443
H40   H     H_    0.104374 0.314274 0.454091 0.051669
H41   H     H_    0.192923 0.818374 0.645059 0.336750
H42   H     H_    0.858954 0.153664 0.377537 0.291215
H43   H     H_    0.381779 0.249388 0.338347 0.333412
H44   H     H_    0.695666 0.180368 0.722380 0.357243
H45   H     H_    0.892555 0.692967 0.574156 -0.086530
H46   H     H_    0.295953 0.250708 0.726998 0.346924
H47   H     H_    0.946199 0.922683 0.352252 0.330415
H48   H     H_    0.206661 0.399465 0.296938 0.350966
H49   H     H_    0.592777 0.635004 0.257675 0.291934
H50   H     H_    0.297079 0.372078 0.511099 0.297868
H51   H     H_    0.065368 0.366678 0.735865 0.287463
H52   H     H_    0.092956 0.698790 0.551913 0.055996
H53   H     H_    0.929664 0.819089 0.631275 0.079828
H54   H     H_    0.953507 0.837438 0.568108 0.029567
H55   H     H_    0.658160 0.152963 0.305920 0.110245
N1    N     N_R   0.924080 0.506590 0.201602 -0.404515
N2    N     N_R   0.247265 0.491345 0.797090 -0.416467
N3    N     N_2   0.530637 0.015610 0.503583 -0.124799
N4    N     N_2   0.677061 0.997305 0.497742 -0.171200
O1    O     O_2   0.915540 0.542930 0.617950 -0.471543
O2    O     O_2   0.242084 0.790175 0.463809 -0.413694
O3    O     O_3   0.093486 0.780431 0.377054 -0.610339
O4    O     O_3   0.147530 0.542870 0.557780 -0.495641
O5    O     O_3   0.552080 0.402920 0.475380 -0.426643
O6    O     O_2   0.387280 0.697260 0.523450 -0.423588
O7    O     O_3   0.572518 0.717000 0.606870 -0.589475
O8    O     O_2   0.584010 0.457640 0.366347 -0.398240
O9    O     O_3   0.393855 0.555439 0.315144 -0.553274
O10   O     O_2   0.929451 0.368857 0.191909 -0.505727
O11   O     O_2   0.299519 0.355344 0.799540 -0.541834
O12   O     O_3   0.605192 0.305731 0.396216 -0.589258
O13   O     O_2   0.917288 0.644662 0.204004 -0.603360
O14   O     O_2   0.191823 0.627628 0.801639 -0.576335
O15   O     O_3   0.664390 0.396160 0.588360 -0.462827
O16   O     O_2   0.790488 0.449450 0.677348 -0.463713
O17   O     O_3   0.077450 0.672752 0.624835 -0.641865
O18   O     O_3   0.710831 0.295897 0.665884 -0.587372
O19   O     O_2   0.802410 0.302720 0.476520 -0.433511
O20   O     O_3   0.070880 0.354870 0.564040 -0.479646
O21   O     O_2   0.959961 0.208914 0.530086 -0.458359
O22   O     O_3   0.162971 0.831406 0.610573 -0.622351
O23   O     O_3   0.077377 0.214830 0.620996 -0.562371
O24   O     O_3   0.801071 0.195899 0.399679 -0.757877
O25   O     O_3   0.459233 0.230712 0.312583 -0.653728
O26   O     O_3   0.594182 0.161935 0.705260 -0.649698
O27   O     O_3   0.208179 0.212539 0.726527 -0.632755
O28   O     O_3   0.847775 0.895098 0.339289 -0.681161
O29   O     O_3   0.142883 0.427289 0.271026 -0.654879
O30   O     O_3   0.650505 0.588233 0.239446 -0.682140
O31   O     O_3   0.366356 0.349674 0.538027 -0.721919
O32   O     O_3   0.013857 0.316559 0.742715 -0.665035
O33   O     O_2   0.274150 0.457040 0.382020 -0.452760
O34   O     O_3   0.042160 0.457070 0.442220 -0.510040
O35   O     O_3   0.525310 0.603770 0.411640 -0.491718
O36   O     O_3   0.120426 0.326377 0.378656 -0.568105
O37   O     O_3   0.637620 0.597020 0.524620 -0.494550
O38   O     O_3   0.118810 0.645070 0.435950 -0.512181
P1    P     P_3+3 0.086060 0.566890 0.610430 0.999765
P2    P     P_3+3 0.625290 0.314770 0.461990 1.123695
P3    P     P_3+3 0.098962 0.247713 0.562400 1.026933
P4    P     P_3+3 0.103630 0.433040 0.389570 1.058762
P5    P     P_3+3 0.090129 0.752662 0.437825 0.986563
P6    P     P_3+3 0.655967 0.396316 0.652572 1.049000
P7    P     P_3+3 0.568839 0.697169 0.542193 1.050760
P8    P     P_3+3 0.564688 0.548196 0.354965 1.048688

loop_
_geom_bond_atom_site_label_1
_geom_bond_atom_site_label_2
_ccdc_geom_bond_type
C52   H52   S    
O36   P4    S    
C12   O18   S    
H44   O26   S    
H43   O25   S    
Ba1   O15   S    
C1    Cl2   S    
C16   H38   S    
H42   O24   S    
C19   C24   A    
C31   P1    S    
C2    O13   D    
O35   P8    S    
C24   C25   A    
Ba2   O4    S    
C60   Cl1   S    
C28   H39   S    
C59   H53   S    
C4    H27   S    
C17   C19   A    
C22   C24   A    
O7    P7    S    
C35   C38   A    
C34   H6    S    
C56   H11   S    
C36   C37   A    
C42   H28   S    
C55   C57   A    
C39   H25   S    
C7    O29   S    
C44   C50   A    
Ba1   P2    S    
O21   P3    D    
C64   N1    Am   
C32   C33   S    
O5    P2    S    
C1    H3    S    
C22   C27   A    
C11   C38   A    
C17   C35   A    
C9    C13   A    
C25   C42   A    
C29   Cl4   S    
C61   Cl3   S    
Ba1   O34   S    
C6    C7    D    
O4    P1    S    
C52   H45   S    
O16   P6    D    
C32   H29   S    
C21   C22   A    
H41   O22   S    
Ba1   O19   S    
C26   O14   D    
O3    P5    S    
C7    C8    S    
C21   H21   S    
C37   C43   A    
O6    P7    D    
H50   O31   S    
C57   C58   A    
C6    C14   D    
C45   O3    S    
O9    P8    S    
O38   P5    S    
C15   C31   D    
C45   H9    S    
C60   O12   S    
C50   P3    S    
C62   H15   S    
C40   H34   S    
C63   H16   S    
C51   C53   A    
C63   H19   S    
C4    C16   S    
C44   C46   A    
H46   O27   S    
O19   P2    D    
C4    O23   S    
C12   H2    S    
C17   C20   A    
C6    P4    S    
C13   C39   A    
C56   O28   S    
Ba2   O34   S    
C3    C5    S    
C18   C37   A    
C54   N4    S    
C48   C49   A    
C49   H33   S    
C10   C64   A    
C44   O31   S    
O18   P6    S    
C49   C50   A    
C23   H4    S    
C53   P7    S    
C9    C36   A    
C23   O7    S    
C41   C42   A    
C35   C36   A    
C48   N3    S    
C56   H13   S    
O20   P3    S    
C3    O30   S    
C27   O11   D    
C5    P8    S    
O23   P3    S    
C60   C61   S    
C31   C32   D    
Ba1   O20   S    
C57   P5    S    
C18   C19   A    
O33   P4    D    
C58   H36   S    
Ba2   O35   S    
C28   O36   S    
C1    C12   S    
C43   H30   S    
C46   P2    S    
C14   H31   S    
C46   C47   A    
Ba1   O4    S    
C53   C55   A    
O8    P8    D    
C20   H22   S    
C29   C33   D    
O34   P4    S    
C38   H24   S    
C8    N1    S    
C51   Cl5   S    
Ba2   O38   S    
C62   H14   S    
C18   C41   A    
C63   H17   S    
O37   P7    S    
N3    N4    D    
C51   C54   A    
O1    P1    D    
C39   C43   A    
O15   P6    S    
C2    N1    Am   
C40   H23   S    
C12   H1    S    
C29   C30   S    
C5    C14   S    
C40   H12   S    
C41   H26   S    
Ba1   O1    S    
C34   H8    S    
Ba2   O33   S    
C9    C10   A    
C47   H35   S    
C52   C59   S    
C60   O24   S    
C4    H18   S    
Ba2   O5    S    
H51   O32   S    
O12   P2    S    
C28   H40   S    
C23   H5    S    
C62   C63   S    
C2    C13   A    
C15   H32   S    
C61   O25   S    
C3    C8    D    
C16   O27   S    
C34   H7    S    
C45   C56   S    
C16   O32   S    
C30   P6    S    
Ba1   Ba2   S    
Ba1   P1    S    
C1    O26   S    
O2    P5    D    
C45   H10   S    
C33   N2    S    
C59   O22   S    
Ba2   O6    S    
C61   H55   S    
H47   O28   S    
C23   C34   S    
C54   C58   A    
C55   H37   S    
C64   O10   D    
C10   C11   A    
H48   O29   S    
C47   C48   A    
C27   N2    Am   
C25   C26   A    
H49   O30   S    
C15   C30   S    
Ba1   O37   S    
C20   C21   A    
C28   C40   S    
C59   H54   S    
Ba1   O5    S    
O17   P1    S    
Ba2   O37   S    
C11   H20   S    
C26   N2    Am   
Ba2   P4    S    
C52   O17   S    
C62   O9    S    
