data_mof_unit_53859.cif
_audit_creation_date              2012-12-10T16:57:09-0500
_audit_creation_method            fapswitch 2.2
_symmetry_space_group_name_H-M    P1
_symmetry_Int_Tables_number       1
_space_group_crystal_system       triclinic
_cell_length_a                    7.769581
_cell_length_b                    8.570651
_cell_length_c                    16.442639
_cell_angle_alpha                 91.907318
_cell_angle_beta                  80.740243
_cell_angle_gamma                 93.702403
_cell_volume                      1078.10667241

loop_
_atom_site_label
_atom_site_type_symbol
_atom_type_description
_atom_site_fract_x
_atom_site_fract_y
_atom_site_fract_z
_atom_type_partial_charge
C1    C     C_R   0.546114 0.794806 0.498235 0.971640
C2    C     C_R   0.384894 0.351451 0.236939 -0.213399
C3    C     C_R   0.588218 0.407043 0.859693 -0.195086
C4    C     C_R   0.398763 0.278804 0.159943 -0.242092
C5    C     C_R   0.439252 0.313798 0.893187 0.064062
C6    C     C_R   0.551927 0.301686 0.102396 0.120387
C7    C     C_R   0.299028 0.288276 0.848795 0.486952
C8    C     C_R   0.695743 0.395156 0.123105 0.509571
C9    C     C_R   0.306235 0.362195 0.774088 -0.281008
C10   C     C_R   0.682856 0.460344 0.203672 -0.343386
C11   C     C_2   0.417192 0.266928 0.979376 -0.242280
C12   C     C_R   0.453778 0.205216 0.502393 0.965236
C13   C     C_2   0.555252 0.247589 0.016477 -0.206524
C14   C     C_3   0.177022 0.038974 0.867487 0.079642
C15   C     C_3   0.150463 0.983557 0.780344 -0.383983
C16   C     C_3   0.160357 0.806625 0.769404 -0.929809
C17   C     C_3   0.952802 0.549250 0.075842 0.059603
C18   C     C_3   0.070103 0.589743 0.994632 -0.301853
C19   C     C_3   0.215373 0.712334 0.007187 -0.985861
C20   C     C_2   0.570394 0.958273 0.497450 -0.382554
C21   C     C_2   0.429287 0.041825 0.504285 -0.387218
C22   C     C_R   0.476569 0.497137 0.654873 0.879734
C23   C     C_R   0.521486 0.491481 0.345092 0.884122
C24   C     C_R   0.457032 0.451035 0.740181 -0.102136
C25   C     C_R   0.526834 0.441824 0.259290 -0.072469
C26   C     C_R   0.598139 0.472536 0.783041 -0.223867
H1    H     H_    0.715684 0.540367 0.757295 0.157999
H2    H     H_    0.296013 0.990815 0.511010 0.179504
H3    H     H_    0.022535 0.379858 0.439007 0.185817
H4    H     H_    0.977489 0.620101 0.561032 0.186419
H5    H     H_    0.078946 0.974034 0.912705 0.180379
H6    H     H_    0.307918 0.008787 0.879706 0.136491
H7    H     H_    0.020811 0.016787 0.768675 0.234407
H8    H     H_    0.253057 0.040697 0.734033 0.215901
H9    H     H_    0.288561 0.770532 0.781417 0.264360
H10   H     H_    0.145443 0.771213 0.705209 0.272910
H11   H     H_    0.053950 0.745604 0.812124 0.256452
H12   H     H_    0.265785 0.330591 0.280450 0.157895
H13   H     H_    0.036040 0.523685 0.122325 0.158065
H14   H     H_    0.875363 0.652672 0.096168 0.134464
H15   H     H_    0.129947 0.482989 0.966663 0.258105
H16   H     H_    0.989735 0.634040 0.951268 0.206277
H17   H     H_    0.159101 0.821765 0.034458 0.261103
H18   H     H_    0.297125 0.738662 0.946837 0.267479
H19   H     H_    0.300126 0.667628 0.048459 0.275950
H20   H     H_    0.793178 0.524593 0.224117 0.142063
H21   H     H_    0.197228 0.342602 0.740590 0.174977
H22   H     H_    0.681491 0.230717 0.979010 0.209548
H23   H     H_    0.289028 0.280626 0.015419 0.191990
H24   H     H_    0.288661 0.205504 0.145209 0.158181
H25   H     H_    0.695491 0.433978 0.893444 0.177849
H26   H     H_    0.703640 0.009303 0.490882 0.179482
N1    N     N_2   0.953500 0.457650 0.478520 -0.171611
N2    N     N_2   0.046500 0.542350 0.521480 -0.173738
O1    O     O_R   0.388470 0.738640 0.505270 -0.608704
O2    O     O_3   0.844240 0.414814 0.062984 -0.663565
O3    O     O_R   0.611530 0.261360 0.494730 -0.608024
O4    O     O_R   0.679650 0.711510 0.491500 -0.628112
O5    O     O_R   0.320350 0.288490 0.508500 -0.632549
O6    O     O_R   0.337210 0.515200 0.623500 -0.619776
O7    O     O_R   0.662790 0.484800 0.376500 -0.611460
O8    O     O_R   0.628380 0.488060 0.609730 -0.616844
O9    O     O_R   0.371620 0.511940 0.390270 -0.622863
O10   O     O_3   0.148765 0.200214 0.880169 -0.659920
Zn1   Zn    Zn3+2 0.305580 0.518120 0.509190 0.927744
Zn2   Zn    Zn3+2 0.694420 0.481880 0.490810 0.937931

loop_
_geom_bond_atom_site_label_1
_geom_bond_atom_site_label_2
_ccdc_geom_bond_type
C10   H20   S    
C13   H22   S    
C2    C4    A    
C19   H19   S    
C9    C24   A    
C5    C11   S    
C11   H23   S    
C22   O8    A    
C11   C13   D    
C2    H12   S    
C15   H8    S    
C14   H5    S    
C14   O10   S    
O9    Zn1   S    
C8    O2    S    
C23   O9    A    
C17   C18   S    
C1    O1    A    
C20   H26   S    
N2    Zn1   S    
N1    N2    D    
C16   H10   S    
C6    C13   S    
N1    Zn2   S    
H4    N2    S    
C17   O2    S    
C26   H1    S    
H3    N1    S    
C12   O3    A    
C12   C21   S    
C10   C25   A    
C8    C10   A    
O1    Zn1   S    
C21   H2    S    
C19   H17   S    
O6    Zn1   S    
C9    H21   S    
C2    C25   A    
C7    C9    A    
C18   H16   S    
C16   H9    S    
C22   O6    A    
C22   C24   S    
C7    O10   S    
O8    Zn2   S    
C15   C16   S    
O3    Zn2   S    
C19   H18   S    
C23   O7    A    
C23   C25   S    
C20   C21   D    
C4    C6    A    
C18   C19   S    
C17   H13   S    
C18   H15   S    
C4    H24   S    
C5    C7    A    
C3    H25   S    
C14   C15   S    
C1    C20   S    
C6    C8    A    
C3    C5    A    
C1    O4    A    
C12   O5    A    
O7    Zn2   S    
O4    Zn2   S    
C3    C26   A    
O5    Zn1   S    
C24   C26   A    
C16   H11   S    
C14   H6    S    
C15   H7    S    
C17   H14   S    
