data_mof_unit_64472.cif
_audit_creation_date              2012-12-10T18:06:52-0500
_audit_creation_method            fapswitch 2.2
_symmetry_space_group_name_H-M    P1
_symmetry_Int_Tables_number       1
_space_group_crystal_system       monoclinic
_cell_length_a                    28.317389
_cell_length_b                    18.375008
_cell_length_c                    21.735572
_cell_angle_alpha                 90.0
_cell_angle_beta                  139.5716
_cell_angle_gamma                 90.0
_cell_volume                      7334.32223376

loop_
_atom_site_label
_atom_site_type_symbol
_atom_type_description
_atom_site_fract_x
_atom_site_fract_y
_atom_site_fract_z
_atom_type_partial_charge
C1    C     C_R   0.860111 0.499989 0.859854 0.835275
C2    C     C_R   0.139889 0.499989 0.140146 0.835274
C3    C     C_R   0.360111 0.999989 0.859854 0.835274
C4    C     C_R   0.639889 0.999989 0.140146 0.835274
C5    C     C_R   0.044846 0.539761 0.826341 -0.199674
C6    C     C_R   0.955159 0.539766 0.173664 -0.199672
C7    C     C_R   0.544846 0.039762 0.826340 -0.199673
C8    C     C_R   0.455154 0.039762 0.173660 -0.199674
C9    C     C_R   0.046985 0.536728 0.764902 -0.197988
C10   C     C_R   0.953019 0.536734 0.235102 -0.197992
C11   C     C_R   0.546985 0.036729 0.764902 -0.197989
C12   C     C_R   0.453015 0.036729 0.235098 -0.197989
C13   C     C_R   0.997984 0.492769 0.684009 -0.093894
C14   C     C_R   0.002015 0.492770 0.315991 -0.093889
C15   C     C_R   0.497984 0.992769 0.684009 -0.093894
C16   C     C_R   0.502015 0.992769 0.315991 -0.093893
C17   C     C_1   0.782585 0.499945 0.781946 -0.185279
C18   C     C_1   0.217415 0.499945 0.218054 -0.185277
C19   C     C_1   0.282585 0.999945 0.781946 -0.185279
C20   C     C_1   0.717415 0.999945 0.218054 -0.185279
C21   C     C_1   0.717285 0.499921 0.716577 -0.176092
C22   C     C_1   0.282715 0.499921 0.283423 -0.176090
C23   C     C_1   0.217285 0.999921 0.716577 -0.176092
C24   C     C_1   0.782715 0.999922 0.283423 -0.176092
C25   C     C_R   1.000000 0.639928 0.500000 0.855254
C26   C     C_R   0.000000 0.360071 0.500000 0.826153
C27   C     C_R   0.500000 0.139928 0.500000 0.855255
C28   C     C_R   0.500000 0.860071 0.500000 0.826154
C29   C     C_R   0.999557 0.496525 0.618519 0.787733
C30   C     C_R   0.000443 0.496526 0.381481 0.787730
C31   C     C_R   0.499557 0.996525 0.618519 0.787732
C32   C     C_R   0.500443 0.996525 0.381481 0.787731
C33   C     C_R   0.500000 0.639737 0.500000 0.839398
C34   C     C_R   0.500000 0.360264 0.500000 0.837227
C35   C     C_R   0.000000 0.139737 0.500000 0.839398
C36   C     C_R   0.000000 0.860264 0.500000 0.837227
C37   C     C_R   0.639739 0.499946 0.639502 0.838619
C38   C     C_R   0.360261 0.499946 0.360497 0.838620
C39   C     C_R   0.139739 0.999946 0.639502 0.838619
C40   C     C_R   0.860261 0.999946 0.360497 0.838620
C41   C     C_1   1.000000 0.717452 0.500000 -0.183984
C42   C     C_1   1.000000 0.282553 0.500000 -0.178761
C43   C     C_1   0.500000 0.217452 0.500000 -0.183984
C44   C     C_1   0.500000 0.782553 0.500000 -0.178760
C45   C     C_R   0.997652 0.499961 0.878830 0.786936
C46   C     C_R   0.002349 0.499961 0.121171 0.786936
C47   C     C_R   0.497652 0.999961 0.878830 0.786936
C48   C     C_R   0.502348 0.999961 0.121170 0.786936
C49   C     C_1   0.500000 0.282736 0.500000 -0.174622
C50   C     C_1   0.500000 0.717269 0.500000 -0.172062
C51   C     C_1   1.000000 0.782736 0.500000 -0.174623
C52   C     C_1   1.000000 0.217269 0.500000 -0.172062
C53   C     C_R   0.885352 0.419004 0.700878 -0.200751
C54   C     C_R   0.114641 0.418994 0.299116 -0.200750
C55   C     C_R   0.385353 0.919003 0.700879 -0.200750
C56   C     C_R   0.614647 0.919003 0.299121 -0.200750
C57   C     C_R   0.836860 0.373279 0.621495 0.150678
C58   C     C_R   0.163126 0.373263 0.378493 0.150677
C59   C     C_R   0.336862 0.873278 0.621496 0.150678
C60   C     C_R   0.663138 0.873277 0.378503 0.150678
C61   C     C_R   0.845128 0.363304 0.566344 -0.164917
C62   C     C_R   0.154858 0.363288 0.433643 -0.164917
C63   C     C_R   0.345129 0.863302 0.566345 -0.164918
C64   C     C_R   0.654870 0.863301 0.433654 -0.164918
C65   C     C_R   0.899108 0.400672 0.587696 -0.204500
C66   C     C_R   0.100882 0.400663 0.412295 -0.204501
C67   C     C_R   0.399109 0.900671 0.587697 -0.204500
C68   C     C_R   0.600890 0.900670 0.412302 -0.204500
C69   C     C_R   0.946066 0.449916 0.664674 0.096070
C70   C     C_R   0.053930 0.449911 0.335322 0.096070
C71   C     C_R   0.446066 0.949915 0.664675 0.096070
C72   C     C_R   0.553933 0.949915 0.335325 0.096069
C73   C     C_R   0.941792 0.455733 0.725261 0.069163
C74   C     C_R   0.058205 0.455729 0.274736 0.069163
C75   C     C_R   0.441792 0.955733 0.725261 0.069163
C76   C     C_R   0.558208 0.955733 0.274738 0.069162
C77   C     C_R   0.993358 0.499298 0.807818 -0.084158
C78   C     C_R   0.006643 0.499298 0.192184 -0.084164
C79   C     C_R   0.493358 0.999298 0.807817 -0.084159
C80   C     C_R   0.506642 0.999298 0.192183 -0.084159
Cu1   Cu    Cu3+1 0.000000 0.427490 0.000000 0.950361
Cu2   Cu    Cu3+1 0.000000 0.572510 0.000000 0.957286
Cu3   Cu    Cu3+1 0.500000 0.927490 0.000000 0.950363
Cu4   Cu    Cu3+1 0.500000 0.072510 0.000000 0.957287
Cu5   Cu    Cu3+1 0.072520 0.500000 0.572540 0.949747
Cu6   Cu    Cu3+1 0.927480 0.500000 0.427460 0.949746
Cu7   Cu    Cu3+1 0.572520 0.000000 0.572540 0.949745
Cu8   Cu    Cu3+1 0.427480 0.000000 0.427460 0.949746
Cu9   Cu    Cu3+1 0.500000 0.500000 0.438200 0.959077
Cu10  Cu    Cu3+1 0.500000 0.500000 0.561800 0.959082
Cu11  Cu    Cu3+1 0.000000 0.000000 0.438200 0.959076
Cu12  Cu    Cu3+1 0.000000 0.000000 0.561800 0.959079
H1    H     H_    0.084273 0.573204 0.889486 0.153453
H2    H     H_    0.915735 0.573213 0.110522 0.153457
H3    H     H_    0.584272 0.073205 0.889485 0.153453
H4    H     H_    0.415728 0.073205 0.110515 0.153454
H5    H     H_    0.877790 0.426311 0.742329 0.139657
H6    H     H_    0.122205 0.426300 0.257667 0.139663
H7    H     H_    0.377790 0.926310 0.742329 0.139658
H8    H     H_    0.622210 0.926310 0.257671 0.139658
H9    H     H_    0.808996 0.327094 0.505721 0.137993
H10   H     H_    0.190984 0.327073 0.494261 0.137995
H11   H     H_    0.308998 0.827092 0.505723 0.137993
H12   H     H_    0.691001 0.827090 0.494276 0.137993
H13   H     H_    0.903815 0.389636 0.543718 0.160992
H14   H     H_    0.096173 0.389629 0.456272 0.160988
H15   H     H_    0.403816 0.889635 0.543719 0.160991
H16   H     H_    0.596183 0.889634 0.456280 0.160991
H17   H     H_    0.086648 0.569725 0.780042 0.159221
H18   H     H_    0.913359 0.569734 0.219966 0.159219
H19   H     H_    0.586647 0.069726 0.780041 0.159221
H20   H     H_    0.413353 0.069726 0.219959 0.159221
O1    O     O_R   0.894200 0.438770 0.894190 -0.588388
O2    O     O_R   0.105800 0.561230 0.105810 -0.579962
O3    O     O_R   0.105800 0.438770 0.105810 -0.588390
O4    O     O_R   0.894200 0.561230 0.894190 -0.579962
O5    O     O_R   0.394200 0.938770 0.894190 -0.588388
O6    O     O_R   0.605800 0.061230 0.105810 -0.579962
O7    O     O_R   0.605800 0.938770 0.105810 -0.588388
O8    O     O_R   0.394200 0.061230 0.894190 -0.579962
O9    O     O_R   0.999990 0.438770 0.909810 -0.586301
O10   O     O_R   0.000010 0.561230 0.090190 -0.584503
O11   O     O_R   0.000010 0.438770 0.090190 -0.586302
O12   O     O_R   0.999990 0.561230 0.909810 -0.584503
O13   O     O_R   0.499990 0.938770 0.909810 -0.586301
O14   O     O_R   0.500010 0.061230 0.090190 -0.584503
O15   O     O_R   0.500010 0.938770 0.090190 -0.586301
O16   O     O_R   0.499990 0.061230 0.909810 -0.584503
O17   O     O_R   0.061240 0.605830 0.561270 -0.580411
O18   O     O_R   0.938760 0.394170 0.438730 -0.588698
O19   O     O_R   0.938760 0.605830 0.438730 -0.580410
O20   O     O_R   0.061240 0.394170 0.561270 -0.588699
O21   O     O_R   0.561240 0.105830 0.561270 -0.580411
O22   O     O_R   0.438760 0.894170 0.438730 -0.588698
O23   O     O_R   0.438760 0.105830 0.438730 -0.580410
O24   O     O_R   0.561240 0.894170 0.561270 -0.588699
O25   O     O_R   0.061260 0.500000 0.651450 -0.582992
O26   O     O_R   0.938740 0.500000 0.348550 -0.582991
O27   O     O_R   0.561260 0.000000 0.651450 -0.582992
O28   O     O_R   0.438740 0.000000 0.348550 -0.582992
O29   O     O_R   0.938780 0.500000 0.528960 -0.592372
O30   O     O_R   0.061220 0.500000 0.471040 -0.592371
O31   O     O_R   0.438780 1.000000 0.528960 -0.592371
O32   O     O_R   0.561220 0.000000 0.471040 -0.592372
O33   O     O_R   0.500010 0.605810 0.447830 -0.583112
O34   O     O_R   0.499990 0.394190 0.552170 -0.584171
O35   O     O_R   0.499990 0.605810 0.552170 -0.583112
O36   O     O_R   0.500010 0.394190 0.447830 -0.584172
O37   O     O_R   0.000010 0.105810 0.447830 -0.583113
O38   O     O_R   0.999990 0.894190 0.552170 -0.584171
O39   O     O_R   0.999990 0.105810 0.552170 -0.583112
O40   O     O_R   0.000010 0.894190 0.447830 -0.584172
O41   O     O_R   0.605800 0.500000 0.553630 -0.587697
O42   O     O_R   0.394200 0.500000 0.446370 -0.587695
O43   O     O_R   0.105800 0.000000 0.553630 -0.587697
O44   O     O_R   0.894200 0.000000 0.446370 -0.587697
O45   O     O_R   0.605820 0.500000 0.658030 -0.580326
O46   O     O_R   0.394180 0.500000 0.341970 -0.580328
O47   O     O_R   0.105820 0.000000 0.658030 -0.580326
O48   O     O_R   0.894180 1.000000 0.341970 -0.580328
C81   C     C_3   0.775870 0.335718 0.595011 -0.417005
C82   C     C_3   0.789964 0.253722 0.614353 -0.347582
C83   C     C_3   0.728653 0.215907 0.588587 -0.810487
H21   H     H_    0.724206 0.238254 0.631522 0.254825
H22   H     H_    0.675985 0.223533 0.512047 0.254889
H23   H     H_    0.740229 0.156709 0.603191 0.243576
H24   H     H_    0.794192 0.229119 0.571962 0.218630
H25   H     H_    0.842167 0.244340 0.690810 0.226854
H26   H     H_    0.769815 0.359000 0.635987 0.200536
H27   H     H_    0.723815 0.345548 0.518599 0.199215
C84   C     C_3   0.224111 0.335692 0.404973 -0.417013
C85   C     C_3   0.210001 0.253700 0.385608 -0.347584
C86   C     C_3   0.271307 0.215875 0.411373 -0.810501
H28   H     H_    0.275766 0.238225 0.368453 0.254828
H29   H     H_    0.323972 0.223484 0.487916 0.254893
H30   H     H_    0.259716 0.156680 0.396749 0.243575
H31   H     H_    0.205761 0.229095 0.427987 0.218634
H32   H     H_    0.157799 0.244332 0.309148 0.226856
H33   H     H_    0.230174 0.358977 0.364005 0.200537
H34   H     H_    0.276166 0.345509 0.481387 0.199218
C87   C     C_3   0.275872 0.835715 0.595012 -0.417007
C88   C     C_3   0.289967 0.753720 0.614358 -0.347580
C89   C     C_3   0.228657 0.715904 0.588591 -0.810492
H35   H     H_    0.224207 0.738251 0.631522 0.254826
H36   H     H_    0.175990 0.723527 0.512050 0.254889
H37   H     H_    0.240235 0.656706 0.603199 0.243576
H38   H     H_    0.294199 0.729117 0.571970 0.218630
H39   H     H_    0.342170 0.744340 0.690815 0.226854
H40   H     H_    0.269815 0.858998 0.635987 0.200536
H41   H     H_    0.223817 0.845543 0.518600 0.199215
C90   C     C_3   0.724128 0.835715 0.404988 -0.417007
C91   C     C_3   0.710029 0.753720 0.385636 -0.347582
C92   C     C_3   0.771340 0.715903 0.411405 -0.810492
H42   H     H_    0.775795 0.738253 0.368479 0.254826
H43   H     H_    0.824006 0.723522 0.487947 0.254890
H44   H     H_    0.759759 0.656706 0.396791 0.243576
H45   H     H_    0.705794 0.729115 0.428019 0.218632
H46   H     H_    0.657828 0.744343 0.309177 0.226854
H47   H     H_    0.730187 0.858999 0.364016 0.200536
H48   H     H_    0.776182 0.845539 0.481401 0.199216

loop_
_geom_bond_atom_site_label_1
_geom_bond_atom_site_label_2
_ccdc_geom_bond_type
C85   H31   S    
C58   C62   A    
Cu9   O36   S    
Cu7   Cu8   S    
Cu4   O16   S    
C56   C76   A    
C55   C59   A    
C2    C18   S    
C45   O9    A    
Cu7   O21   S    
C61   H9    S    
C83   H21   S    
C8    H4    S    
C47   C79   S    
C72   C76   A    
C25   O17   A    
Cu1   Cu2   S    
C87   H40   S    
C47   O16   A    
C66   C70   A    
Cu5   Cu6   S    
C7    C11   A    
C35   O37   A    
C82   C83   S    
C7    C79   A    
C1    O1    A    
Cu1   O11   S    
Cu12  O47   S    
C30   O26   A    
C64   C68   A    
C13   C29   S    
C83   H22   S    
C90   H47   S    
C32   O28   A    
C89   H36   S    
Cu5   O20   S    
Cu11  O40   S    
C65   C69   A    
Cu6   O19   S    
C6    C78   A    
C37   O45   A    
C22   C38   S    
C87   H41   S    
Cu3   O7    S    
C59   C87   S    
C9    C13   A    
C88   C89   S    
Cu8   O28   S    
C33   O35   A    
Cu5   O17   S    
C54   C74   A    
C34   O36   A    
C20   C24   T    
C92   H43   S    
C16   C72   A    
C70   C74   A    
C4    O7    A    
C3    C19   S    
C1    O4    A    
C91   H46   S    
Cu7   O32   S    
Cu10  O42   S    
C3    O5    A    
Cu8   O31   S    
C26   O18   A    
C68   C72   A    
C81   H26   S    
Cu9   O33   S    
C86   H28   S    
Cu4   O14   S    
C14   C70   A    
C84   H33   S    
C35   O39   A    
Cu3   O13   S    
C65   H13   S    
C47   O13   A    
C86   H29   S    
C45   O12   A    
C9    H17   S    
C63   C67   A    
C62   C66   A    
C11   H19   S    
C90   C91   S    
C27   O21   A    
C12   C16   A    
Cu9   O46   S    
C83   H23   S    
C90   H48   S    
Cu2   O2    S    
C63   H11   S    
C10   C14   A    
C89   H37   S    
C25   C41   S    
Cu11  Cu12  S    
Cu11  O37   S    
C53   C57   A    
Cu6   O18   S    
C36   O40   A    
C53   H5    S    
C33   C50   S    
C87   C88   S    
C48   O14   A    
C15   C31   S    
C28   C44   S    
C17   C21   T    
C56   C60   A    
Cu1   O9    S    
C19   C23   T    
C89   H35   S    
C5    C9    A    
Cu10  O35   S    
C37   O41   A    
Cu1   O1    S    
C2    O3    A    
Cu9   O41   S    
Cu3   Cu4   S    
Cu4   O8    S    
C92   H44   S    
C29   O29   A    
Cu1   O3    S    
Cu12  O39   S    
C46   O10   A    
Cu12  O44   S    
C88   H39   S    
C91   H45   S    
C69   C73   A    
C84   C85   S    
C38   O46   A    
Cu11  O48   S    
C36   C51   S    
C33   O33   A    
C15   C71   A    
C82   H25   S    
C81   H27   S    
C67   H15   S    
C85   H32   S    
C11   C15   A    
Cu12  O38   S    
C28   O22   A    
C46   O11   A    
C75   C79   A    
Cu11  O43   S    
C56   H8    S    
C55   H7    S    
C25   O19   A    
Cu5   O25   S    
C12   H20   S    
C26   O20   A    
C85   C86   S    
C26   C42   S    
C46   C78   S    
Cu2   O12   S    
C54   C58   A    
C86   H30   S    
C44   C50   T    
C64   H12   S    
C27   C43   S    
C24   C40   S    
C34   C49   S    
C73   C77   A    
C39   O47   A    
C18   C22   T    
C53   C73   A    
Cu7   O24   S    
C40   O48   A    
C43   C49   T    
C76   C80   A    
Cu8   O23   S    
Cu7   O27   S    
C54   H6    S    
Cu5   O30   S    
C6    C10   A    
C5    H1    S    
C7    H3    S    
C57   C61   A    
C16   C32   S    
C29   O25   A    
C59   C63   A    
C30   O30   A    
C60   C64   A    
C28   O24   A    
C27   O23   A    
C91   C92   S    
C48   C80   S    
Cu10  O45   S    
C58   C84   S    
C55   C75   A    
Cu10  O34   S    
C81   C82   S    
C48   O15   A    
C71   C75   A    
C2    O2    A    
C36   O38   A    
C66   H14   S    
C13   C69   A    
C60   C90   S    
C23   C39   S    
Cu8   O22   S    
C57   C81   S    
Cu2   O10   S    
C10   H18   S    
C67   C71   A    
C88   H38   S    
C31   O31   A    
C84   H34   S    
Cu3   O15   S    
C32   O32   A    
Cu3   O5    S    
C3    O8    A    
Cu6   O26   S    
Cu2   O4    S    
C82   H24   S    
C4    C20   S    
C61   C65   A    
C21   C37   S    
C1    C17   S    
Cu6   O29   S    
Cu4   O6    S    
C92   H42   S    
C74   C78   A    
C6    H2    S    
C39   O43   A    
C35   C52   S    
C8    C80   A    
C38   O42   A    
C34   O34   A    
C40   O44   A    
C45   C77   S    
C68   H16   S    
C62   H10   S    
Cu9   Cu10  S    
C5    C77   A    
C41   C51   T    
C14   C30   S    
C8    C12   A    
C31   O27   A    
C42   C52   T    
C4    O6    A    
