data_mof_unit_29109.cif
_audit_creation_date              2012-12-10T18:36:14-0500
_audit_creation_method            fapswitch 2.2
_symmetry_space_group_name_H-M    P1
_symmetry_Int_Tables_number       1
_space_group_crystal_system       triclinic
_cell_length_a                    15.021406
_cell_length_b                    15.717119
_cell_length_c                    19.230622
_cell_angle_alpha                 91.091688
_cell_angle_beta                  105.512039
_cell_angle_gamma                 81.254243
_cell_volume                      4322.85807301

loop_
_atom_site_label
_atom_site_type_symbol
_atom_type_description
_atom_site_fract_x
_atom_site_fract_y
_atom_site_fract_z
_atom_type_partial_charge
C1    C     C_R   0.440651 0.661797 0.487220 0.876654
C2    C     C_R   0.559350 0.338202 0.512785 0.876536
C3    C     C_R   0.403113 0.754687 0.481361 -0.181228
C4    C     C_R   0.596906 0.245313 0.518646 -0.181232
C5    C     C_R   0.321058 0.865351 0.540489 -0.048828
C6    C     C_R   0.679065 0.134681 0.459556 -0.048843
C7    C     C_R   0.324354 0.785952 0.506292 -0.068669
C8    C     C_R   0.675716 0.214074 0.493762 -0.068589
C9    C     C_R   0.457790 0.813590 0.465536 -0.084577
C10   C     C_R   0.542233 0.186380 0.534433 -0.084733
C11   C     C_R   0.445875 0.899038 0.491017 0.029747
C12   C     C_R   0.554274 0.100914 0.509008 0.029757
C13   C     C_R   0.388960 0.917346 0.539329 0.086129
C14   C     C_R   0.611215 0.082628 0.460720 0.086181
C15   C     C_R   0.494533 0.964682 0.476516 0.074266
C16   C     C_R   0.505674 0.035240 0.523528 0.074272
C17   C     C_R   0.470115 0.036243 0.584242 -0.220524
C18   C     C_R   0.530132 0.963680 0.415818 -0.220661
C19   C     C_R   0.404925 0.984326 0.587764 -0.207768
C20   C     C_R   0.595312 0.015618 0.412306 -0.207787
C21   C     C_R   0.833963 0.649741 0.595853 -0.101628
C22   C     C_R   0.166025 0.350286 0.404108 -0.101596
C23   C     C_R   0.503621 0.496592 0.634913 0.875313
C24   C     C_R   0.496382 0.503403 0.365087 0.875414
C25   C     C_R   0.747615 0.622672 0.581128 -0.002352
C26   C     C_R   0.252378 0.377346 0.418850 -0.002054
C27   C     C_R   0.795607 0.507941 0.511361 -0.045432
C28   C     C_R   0.204388 0.492057 0.488635 -0.045468
C29   C     C_R   0.883604 0.533639 0.520231 -0.027131
C30   C     C_R   0.116390 0.466358 0.479757 -0.027069
C31   C     C_R   0.903797 0.603246 0.567240 0.080617
C32   C     C_R   0.096194 0.396764 0.432734 0.080629
C33   C     C_R   0.953041 0.490375 0.487697 0.017808
C34   C     C_R   0.046953 0.509614 0.512295 0.017788
C35   C     C_R   0.066319 0.571432 0.568036 -0.003953
C36   C     C_R   0.933676 0.428553 0.431958 -0.003921
C37   C     C_R   0.994484 0.621240 0.589333 -0.226004
C38   C     C_R   0.005510 0.378762 0.410646 -0.226058
C39   C     C_R   0.429013 0.483571 0.732136 -0.242763
C40   C     C_R   0.571005 0.516393 0.267872 -0.242657
C41   C     C_R   0.427966 0.483679 0.803687 -0.007279
C42   C     C_R   0.572063 0.516273 0.196324 -0.007342
C43   C     C_R   0.510896 0.488410 0.857541 -0.019302
C44   C     C_R   0.489137 0.511551 0.142466 -0.019330
C45   C     C_R   0.596043 0.488621 0.839708 -0.046046
C46   C     C_R   0.403984 0.511359 0.160292 -0.046057
C47   C     C_R   0.596899 0.487474 0.766536 -0.058282
C48   C     C_R   0.403119 0.512506 0.233461 -0.058320
C49   C     C_R   0.511054 0.489343 0.712374 -0.119142
C50   C     C_R   0.488959 0.510635 0.287628 -0.119113
C51   C     C_R   0.492157 0.506675 0.067804 0.309876
C52   C     C_R   0.507886 0.493280 0.932206 0.309857
H1    H     H_    0.364790 0.478321 0.691474 0.193341
H2    H     H_    0.635223 0.521644 0.308536 0.193355
H3    H     H_    0.011649 0.670509 0.628912 0.169684
H4    H     H_    0.988346 0.329496 0.371063 0.169697
H5    H     H_    0.224612 0.548425 0.515817 0.168113
H6    H     H_    0.775378 0.451573 0.484182 0.168125
H7    H     H_    0.307448 0.343379 0.397677 0.140576
H8    H     H_    0.692545 0.656647 0.602296 0.140592
H9    H     H_    0.371399 0.993608 0.631265 0.161401
H10   H     H_    0.628856 0.006343 0.368815 0.161408
H11   H     H_    0.490190 0.078154 0.628842 0.168012
H12   H     H_    0.510064 0.921799 0.371199 0.168105
N1    N     N_R   0.526093 0.565224 0.969723 -0.167415
N2    N     N_R   0.473954 0.434730 0.030287 -0.167451
N3    N     N_R   0.518843 0.571670 0.036914 -0.168216
N4    N     N_R   0.481203 0.428284 0.963096 -0.168225
N5    N     N_R   0.731690 0.552730 0.540620 -0.108825
N6    N     N_R   0.268310 0.447270 0.459380 -0.108843
O1    O     O_R   0.383120 0.605620 0.479520 -0.613239
O2    O     O_R   0.616880 0.394380 0.520480 -0.613224
O3    O     O_R   0.531890 0.639510 0.505590 -0.606081
O4    O     O_R   0.468110 0.360490 0.494410 -0.606044
O5    O     O_R   0.425590 0.483060 0.588820 -0.607028
O6    O     O_R   0.574410 0.516940 0.411180 -0.607009
O7    O     O_R   0.574360 0.516950 0.614890 -0.610495
O8    O     O_R   0.425640 0.483050 0.385110 -0.610524
Zn1   Zn    Zn3+2 0.400660 0.477370 0.482600 0.967239
Zn2   Zn    Zn3+2 0.599340 0.522630 0.517400 0.967232
C53   C     C_1   0.848428 0.724247 0.640405 0.101422
N7    N     N_1   0.859844 0.783886 0.676035 -0.199573
C54   C     C_1   0.151555 0.275800 0.359532 0.101285
N8    N     N_1   0.140137 0.216177 0.323881 -0.199605
C55   C     C_1   0.157717 0.583093 0.611933 0.140488
N9    N     N_1   0.229734 0.594878 0.647791 -0.211827
C56   C     C_1   0.842279 0.416864 0.388083 0.140442
N10   N     N_1   0.770261 0.405058 0.352244 -0.211841
C57   C     C_1   0.339881 0.481492 0.820334 0.185918
N11   N     N_1   0.269440 0.479772 0.833636 -0.198366
C58   C     C_1   0.660150 0.518455 0.179684 0.185907
N12   N     N_1   0.730594 0.520173 0.166387 -0.198372
C59   C     C_R   0.684778 0.484082 0.897622 0.118181
C60   C     C_R   0.740378 0.404147 0.919798 -0.134424
C61   C     C_R   0.824723 0.399786 0.973607 -0.126375
C62   C     C_R   0.853901 0.475097 0.005463 -0.100746
C63   C     C_R   0.798749 0.554895 0.983550 -0.119439
C64   C     C_R   0.714415 0.559517 0.929715 -0.135475
H13   H     H_    0.718482 0.345509 0.895229 0.126082
H14   H     H_    0.867535 0.338052 0.990541 0.132406
H15   H     H_    0.919265 0.471633 0.047041 0.130213
H16   H     H_    0.821450 0.613166 0.008171 0.133057
H17   H     H_    0.672393 0.621658 0.912800 0.133481
C65   C     C_R   0.315246 0.515946 0.102376 0.118175
C66   C     C_R   0.285596 0.440545 0.070225 -0.135497
C67   C     C_R   0.201255 0.445216 0.016395 -0.119407
C68   C     C_R   0.146104 0.525029 0.994549 -0.100772
C69   C     C_R   0.175293 0.600306 0.026463 -0.126404
C70   C     C_R   0.259647 0.595897 0.080265 -0.134405
H18   H     H_    0.327613 0.378391 0.087092 0.133520
H19   H     H_    0.178545 0.386971 0.991728 0.133079
H20   H     H_    0.080734 0.528530 0.952976 0.130215
H21   H     H_    0.132482 0.662052 0.009582 0.132402
H22   H     H_    0.281550 0.654509 0.104881 0.126058
C71   C     C_R   0.687955 0.478296 0.748210 0.156386
C72   C     C_R   0.742213 0.545161 0.761570 -0.132081
C73   C     C_R   0.828837 0.535055 0.745883 -0.147053
C74   C     C_R   0.860870 0.459112 0.715246 -0.107929
C75   C     C_R   0.806896 0.392600 0.701197 -0.116314
C76   C     C_R   0.721110 0.401731 0.718171 -0.118098
H23   H     H_    0.717463 0.604887 0.784116 0.123331
H24   H     H_    0.870695 0.586510 0.756723 0.143040
H25   H     H_    0.927328 0.451970 0.702164 0.138308
H26   H     H_    0.831667 0.333844 0.677395 0.138763
H27   H     H_    0.680266 0.349523 0.707610 0.097900
C77   C     C_R   0.312056 0.521683 0.251780 0.156367
C78   C     C_R   0.278907 0.598238 0.281836 -0.118035
C79   C     C_R   0.193114 0.607369 0.298804 -0.116339
C80   C     C_R   0.139127 0.540868 0.284729 -0.107971
C81   C     C_R   0.171152 0.464936 0.254071 -0.147067
C82   C     C_R   0.257781 0.454831 0.238392 -0.132115
H28   H     H_    0.319759 0.650437 0.292416 0.097891
H29   H     H_    0.168348 0.666117 0.322621 0.138733
H30   H     H_    0.072664 0.548011 0.297806 0.138307
H31   H     H_    0.129282 0.413492 0.243208 0.143060
H32   H     H_    0.282524 0.395114 0.215828 0.123357
C83   C     C_R   0.466684 0.218868 0.569591 0.141829
C84   C     C_R   0.372198 0.217436 0.533470 -0.095128
C85   C     C_R   0.302239 0.247160 0.567453 -0.128696
C86   C     C_R   0.325871 0.278940 0.637275 -0.107805
C87   C     C_R   0.419550 0.280691 0.673414 -0.131804
C88   C     C_R   0.489705 0.251813 0.639514 -0.180000
H33   H     H_    0.353077 0.192889 0.479350 0.127889
H34   H     H_    0.229676 0.245409 0.539723 0.143404
H35   H     H_    0.271642 0.301819 0.663519 0.132654
H36   H     H_    0.437918 0.303955 0.727919 0.142513
H37   H     H_    0.562025 0.253283 0.668169 0.111694
C89   C     C_R   0.533169 0.781065 0.430230 0.141664
C90   C     C_R   0.509904 0.748263 0.360271 -0.180490
C91   C     C_R   0.579889 0.719296 0.326235 -0.131899
C92   C     C_R   0.673642 0.720807 0.362275 -0.107845
C93   C     C_R   0.697517 0.752446 0.432132 -0.128643
C94   C     C_R   0.627724 0.782279 0.466245 -0.094812
H38   H     H_    0.437527 0.746976 0.331697 0.111875
H39   H     H_    0.561333 0.696131 0.271708 0.142606
H40   H     H_    0.727740 0.697846 0.335929 0.132646
H41   H     H_    0.770137 0.754000 0.459788 0.143329
H42   H     H_    0.647028 0.806720 0.520388 0.127834
C95   C     C_1   0.754103 0.260648 0.504785 0.220579
N13   N     N_1   0.818716 0.295460 0.514666 -0.230471
C96   C     C_1   0.245965 0.739389 0.495326 0.220579
N14   N     N_1   0.181351 0.704585 0.485492 -0.230418
C97   C     C_1   0.248743 0.892770 0.576890 0.166226
N15   N     N_1   0.191072 0.914583 0.605877 -0.190588
C98   C     C_1   0.751343 0.107356 0.423109 0.166258
N16   N     N_1   0.808970 0.085625 0.394072 -0.190595

loop_
_geom_bond_atom_site_label_1
_geom_bond_atom_site_label_2
_ccdc_geom_bond_type
C15   C18   A    
N2    N4    A    
C83   C88   A    
O8    Zn1   S    
C98   N16   T    
C27   C29   A    
C11   C13   A    
C68   H20   S    
C41   C57   S    
C61   C62   A    
C60   H13   S    
C4    C8    A    
C45   C59   S    
C79   C80   A    
O1    Zn1   S    
C63   C64   A    
C39   C41   A    
C28   H5    S    
C69   C70   A    
C47   C71   S    
C7    C96   S    
C1    O1    A    
C22   C32   A    
C54   N8    T    
C5    C97   S    
C35   C37   A    
C66   H18   S    
C42   C58   S    
C3    C7    A    
C84   H33   S    
C65   C70   A    
C43   C52   S    
C23   C49   S    
C67   C68   A    
C15   C16   A    
C29   C33   A    
C33   C36   A    
C72   C73   A    
C34   C35   A    
C94   H42   S    
C74   C75   A    
C78   H28   S    
C11   C15   A    
C12   C16   A    
C16   C17   A    
N1    N3    A    
C64   H17   S    
C92   C93   A    
C25   H8    S    
C32   C38   A    
C26   H7    S    
C5    C13   A    
C63   H16   S    
C27   N5    A    
C23   O7    A    
C40   C42   A    
C6    C98   S    
C90   H38   S    
C75   H26   S    
C62   H15   S    
C41   C43   A    
C42   C44   A    
C2    O2    A    
C65   C66   A    
C44   C46   A    
C96   N14   T    
C67   H19   S    
C45   C47   A    
C36   C56   S    
C24   C50   S    
C85   C86   A    
C46   C48   A    
C72   H23   S    
C30   C34   A    
C14   C20   A    
C86   C87   A    
C47   C49   A    
C82   H32   S    
C58   N12   T    
C5    C7    A    
C13   C19   A    
C76   H27   S    
C24   O6    A    
C6    C8    A    
C52   N4    A    
C55   N9    T    
C46   C65   S    
C53   N7    T    
C31   C37   A    
C1    C3    S    
C51   N2    A    
C69   H21   S    
C2    C4    S    
C73   H24   S    
C79   H29   S    
C3    C9    A    
C6    C14   A    
C21   C31   A    
C85   H34   S    
C95   N13   T    
C68   C69   A    
C62   C63   A    
C33   C34   A    
C59   C60   A    
C51   N3    A    
C92   H40   S    
C89   C90   A    
C48   C50   A    
C43   C45   A    
C10   C12   A    
C87   H36   S    
C70   H22   S    
C44   C51   S    
C24   O8    A    
C10   C83   S    
C81   H31   S    
C21   C53   S    
C40   H2    S    
C91   H39   S    
C9    C11   A    
C26   N6    A    
C25   N5    A    
C89   C94   A    
C4    C10   A    
C78   C79   A    
C80   C81   A    
C66   C67   A    
O7    Zn2   S    
C21   C25   A    
C93   H41   S    
C39   C49   A    
N6    Zn1   S    
C61   H14   S    
C88   H37   S    
C28   N6    A    
O6    Zn2   S    
C23   O5    A    
C27   H6    S    
C2    O4    A    
C86   H35   S    
C75   C76   A    
C83   C84   A    
C9    C89   S    
C73   C74   A    
O4    Zn1   S    
C1    O3    A    
C22   C54   S    
C28   C30   A    
C81   C82   A    
C12   C14   A    
O2    Zn2   S    
C90   C91   A    
C17   H11   S    
C30   C32   A    
C35   C55   S    
C18   H12   S    
C39   H1    S    
C77   C82   A    
C19   H9    S    
C77   C78   A    
C40   C50   A    
C36   C38   A    
C17   C19   A    
O3    Zn2   S    
C18   C20   A    
C74   H25   S    
C20   H10   S    
C60   C61   A    
C97   N15   T    
C84   C85   A    
C48   C77   S    
C80   H30   S    
C37   H3    S    
C38   H4    S    
C93   C94   A    
C56   N10   T    
C29   C31   A    
C71   C76   A    
C22   C26   A    
C91   C92   A    
N5    Zn2   S    
C57   N11   T    
C87   C88   A    
C8    C95   S    
O5    Zn1   S    
C59   C64   A    
C52   N1    A    
C71   C72   A    
