data_mof_unit_43072.cif
_audit_creation_date              2012-12-10T17:29:14-0500
_audit_creation_method            fapswitch 2.2
_symmetry_space_group_name_H-M    P1
_symmetry_Int_Tables_number       1
_space_group_crystal_system       triclinic
_cell_length_a                    12.009007
_cell_length_b                    12.871879
_cell_length_c                    13.114467
_cell_angle_alpha                 87.123178
_cell_angle_beta                  113.76817
_cell_angle_gamma                 93.505191
_cell_volume                      1851.0785352

loop_
_atom_site_label
_atom_site_type_symbol
_atom_type_description
_atom_site_fract_x
_atom_site_fract_y
_atom_site_fract_z
_atom_type_partial_charge
C1    C     C_R   0.477028 0.299497 0.497675 0.894599
C2    C     C_R   0.612462 0.495831 0.830745 -0.255269
C3    C     C_R   0.536604 0.811870 0.502891 -0.042357
C4    C     C_R   0.567666 0.497830 0.709120 0.905172
C5    C     C_R   0.463310 0.188147 0.497257 -0.046569
C6    C     C_R   0.366597 0.028861 0.530761 -0.213625
C7    C     C_R   0.371247 0.136521 0.522616 -0.200153
C8    C     C_R   0.548340 0.133085 0.476758 -0.284550
C9    C     C_R   0.545693 0.026243 0.486434 0.182756
C10   C     C_R   0.454182 0.973771 0.513775 0.191997
C11   C     C_R   0.451058 0.866874 0.522758 -0.275199
C12   C     C_R   0.556515 0.507274 0.987980 0.145965
C13   C     C_R   0.629122 0.863569 0.478250 -0.190737
C14   C     C_R   0.633617 0.971221 0.469934 -0.223830
C15   C     C_R   0.011729 0.606948 0.404797 -0.317557
C16   C     C_R   0.522974 0.700508 0.502388 0.877159
C17   C     C_R   0.131423 0.596102 0.413793 -0.002064
C18   C     C_R   0.156592 0.452984 0.540413 -0.013454
C19   C     C_R   0.036640 0.461272 0.534278 0.037808
C20   C     C_R   0.963197 0.539119 0.465429 0.096821
C21   C     C_R   0.843526 0.547387 0.459793 -0.170728
C22   C     C_R   0.867316 0.402513 0.585692 0.680299
C23   C     C_R   0.543987 0.541703 0.880692 0.013075
C24   C     C_R   0.988975 0.393872 0.595553 -0.468271
C25   C     C_R   0.433161 0.506999 0.291199 0.939809
C26   C     C_R   0.295349 0.638728 0.008456 0.333269
C27   C     C_R   0.393900 0.528061 0.172207 -0.265415
C28   C     C_R   0.713278 0.436599 0.896354 0.531923
C29   C     C_R   0.735709 0.414446 0.008052 -0.258473
C30   C     C_R   0.657671 0.447527 0.053028 -0.279210
C31   C     C_3   0.122123 0.586839 0.126220 -0.262336
C32   C     C_3   0.851120 0.234793 0.655116 -0.296002
C33   C     C_3   0.898867 0.440922 0.888063 -0.247259
C34   C     C_R   0.467833 0.534554 0.026218 0.068358
C35   C     C_R   0.380167 0.608989 0.965935 -0.031403
C36   C     C_R   0.383659 0.655013 0.868128 -0.200674
C37   C     C_R   0.462996 0.620856 0.825419 -0.163444
C38   C     C_R   0.464849 0.489186 0.123499 -0.356416
C39   C     C_R   0.305173 0.600247 0.113726 0.496322
H1    H     H_    0.695575 0.820946 0.462812 0.156864
H2    H     H_    0.325685 0.717486 0.823201 0.154897
H3    H     H_    0.213993 0.393346 0.593392 0.125721
H4    H     H_    0.522598 0.426448 0.167348 0.180352
H5    H     H_    0.680873 0.427347 0.139762 0.162016
H6    H     H_    0.810899 0.367201 0.059116 0.159979
H7    H     H_    0.462041 0.658642 0.749442 0.153569
H8    H     H_    0.380630 0.826547 0.543620 0.154378
H9    H     H_    0.066577 0.619139 0.166114 0.176668
H10   H     H_    0.131960 0.502606 0.150141 0.140429
H11   H     H_    0.071333 0.597183 0.034683 0.172659
H12   H     H_    0.295928 0.988932 0.551379 0.138867
H13   H     H_    0.941651 0.224776 0.724375 0.157197
H14   H     H_    0.849612 0.207321 0.575324 0.128132
H15   H     H_    0.784383 0.184479 0.675865 0.211520
H16   H     H_    0.175305 0.696919 0.872560 0.317505
H17   H     H_    0.949878 0.425238 0.978755 0.117621
H18   H     H_    0.893899 0.526235 0.869000 0.145208
H19   H     H_    0.951665 0.408870 0.845322 0.206391
H20   H     H_    0.704497 0.011212 0.449660 0.135528
H21   H     H_    0.305165 0.179198 0.538558 0.156066
H22   H     H_    0.618016 0.173370 0.454863 0.158831
H23   H     H_    0.786295 0.607333 0.407260 0.154696
H24   H     H_    0.957926 0.668192 0.351235 0.147873
H25   H     H_    0.046701 0.335778 0.650945 0.155048
H26   H     H_    0.168432 0.649458 0.367866 0.164386
N1    N     N_R   0.798200 0.480260 0.519790 -0.133945
N2    N     N_R   0.201820 0.519740 0.480210 -0.101114
O1    O     O_R   0.579910 0.341070 0.505280 -0.574557
O2    O     O_3   0.817271 0.339019 0.646699 -0.549583
O3    O     O_3   0.206904 0.709131 0.953452 -0.747637
O4    O     O_3   0.781713 0.391391 0.848658 -0.557877
O5    O     O_R   0.388440 0.353740 0.492580 -0.638430
O6    O     O_R   0.643280 0.490550 0.663120 -0.534621
O7    O     O_R   0.451810 0.503220 0.650420 -0.628164
O8    O     O_R   0.611560 0.646260 0.507420 -0.635702
O9    O     O_R   0.420090 0.658930 0.494720 -0.625096
O10   O     O_R   0.548190 0.496780 0.349580 -0.627402
O11   O     O_R   0.356720 0.509450 0.336880 -0.584289
O12   O     O_3   0.236344 0.641254 0.163580 -0.566502
Zn1   Zn    Zn3+2 0.627850 0.491540 0.508480 0.992574
Zn2   Zn    Zn3+2 0.372150 0.508460 0.491520 0.949607

loop_
_geom_bond_atom_site_label_1
_geom_bond_atom_site_label_2
_ccdc_geom_bond_type
O1    Zn1   S    
C33   H19   S    
C21   N1    A    
C16   O8    A    
C32   H14   S    
C11   H8    S    
C19   C20   A    
C14   H20   S    
C12   C23   A    
C25   O10   A    
C36   C37   A    
C18   C19   A    
C18   H3    S    
C26   C39   A    
C27   C38   A    
C1    O1    A    
C34   C35   A    
C32   H13   S    
C13   H1    S    
C22   N1    A    
C35   C36   A    
C27   C39   A    
C8    C9    A    
C6    H12   S    
C9    C10   A    
C22   O2    S    
C4    O7    A    
O5    Zn2   S    
C3    C13   A    
C8    H22   S    
C33   H17   S    
C24   H25   S    
C34   C38   A    
C13   C14   A    
C30   H5    S    
C36   H2    S    
C31   H10   S    
C32   H15   S    
C15   C20   A    
C17   N2    A    
C1    O5    A    
C25   O11   A    
C5    C7    A    
C18   N2    A    
C23   C37   A    
C29   H6    S    
C39   O12   S    
C2    C4    S    
C9    C14   A    
C29   C30   A    
C4    O6    A    
C21   H23   S    
C6    C7    A    
N2    Zn2   S    
C31   H9    S    
C26   O3    S    
C22   C24   A    
C28   O4    S    
O7    Zn2   S    
C12   C34   A    
C7    H21   S    
C1    C5    S    
O8    Zn1   S    
O10   Zn1   S    
C15   C17   A    
C28   C29   A    
C33   H18   S    
C12   C30   A    
C16   O9    A    
O9    Zn2   S    
C6    C10   A    
C5    C8    A    
C31   O12   S    
C32   O2    S    
C25   C27   S    
N1    Zn1   S    
C17   H26   S    
C19   C24   A    
C38   H4    S    
O11   Zn2   S    
O6    Zn1   S    
H16   O3    S    
C3    C11   A    
C10   C11   A    
C33   O4    S    
C26   C35   A    
C20   C21   A    
C2    C23   A    
C15   H24   S    
C2    C28   A    
C31   H11   S    
C37   H7    S    
C3    C16   S    
