data_mof_unit_26796.cif
_audit_creation_date              2012-12-11T16:21:19-0500
_audit_creation_method            fapswitch 2.2
_symmetry_space_group_name_H-M    P1
_symmetry_Int_Tables_number       1
_space_group_crystal_system       triclinic
_cell_length_a                    7.174714
_cell_length_b                    37.174406
_cell_length_c                    41.125352
_cell_angle_alpha                 89.999907
_cell_angle_beta                  90.001593
_cell_angle_gamma                 90.000296
_cell_volume                      10968.7783239

loop_
_atom_site_label
_atom_site_type_symbol
_atom_type_description
_atom_site_fract_x
_atom_site_fract_y
_atom_site_fract_z
_atom_type_partial_charge
O1    O     O_R   0.564240 0.782760 0.216890 -0.521511
O2    O     O_R   0.435760 0.217240 0.783110 -0.539021
O3    O     O_R   0.435760 0.217240 0.716890 -0.521481
O4    O     O_R   0.564240 0.782760 0.283110 -0.539002
O5    O     O_R   0.064240 0.717240 0.283110 -0.521517
O6    O     O_R   0.935760 0.282760 0.716890 -0.538999
O7    O     O_R   0.935760 0.282760 0.783110 -0.521534
O8    O     O_R   0.064240 0.717240 0.216890 -0.539014
O9    O     O_R   0.234510 0.787070 0.282870 -0.518176
O10   O     O_R   0.765490 0.212930 0.717130 -0.533894
O11   O     O_R   0.765490 0.212930 0.782870 -0.518139
O12   O     O_R   0.234510 0.787070 0.217130 -0.533890
O13   O     O_R   0.734510 0.712930 0.217130 -0.518114
O14   O     O_R   0.265490 0.287070 0.782870 -0.533905
O15   O     O_R   0.265490 0.287070 0.717130 -0.518137
O16   O     O_R   0.734510 0.712930 0.282870 -0.533906
C1    C     C_R   0.403126 0.796182 0.293441 0.734104
C2    C     C_R   0.596542 0.203737 0.706672 0.731474
C3    C     C_R   0.596878 0.203817 0.793441 0.734080
C4    C     C_R   0.403452 0.796262 0.206672 0.731495
C5    C     C_R   0.903121 0.703817 0.206558 0.734151
C6    C     C_R   0.096549 0.296261 0.793328 0.731431
C7    C     C_R   0.096875 0.296183 0.706559 0.734182
C8    C     C_R   0.903455 0.703738 0.293328 0.731407
O17   O     O_3   0.397750 0.727090 0.250000 -0.347959
O18   O     O_3   0.602250 0.272910 0.750000 -0.347989
O19   O     O_3   0.897750 0.772910 0.250000 -0.347988
O20   O     O_3   0.102250 0.227090 0.750000 -0.347947
V1    V     V_3+5 0.122890 0.754250 0.250000 1.599273
V2    V     V_3+5 0.877110 0.245750 0.750000 1.599301
V3    V     V_3+5 0.622890 0.745750 0.250000 1.599300
V4    V     V_3+5 0.377110 0.254250 0.750000 1.599306
C9    C     C_R   0.883988 0.611460 0.429282 0.660080
C10   C     C_R   0.997778 0.386146 0.570507 0.657144
C11   C     C_R   0.115325 0.388475 0.929309 0.660017
C12   C     C_R   0.002946 0.613816 0.070534 0.657184
C13   C     C_R   0.384004 0.888539 0.070717 0.660080
C14   C     C_R   0.497770 0.113854 0.929492 0.657150
C15   C     C_R   0.617002 0.111365 0.570758 0.660178
C16   C     C_R   0.501166 0.886091 0.429531 0.657096
O21   O     O_2   0.871052 0.647060 0.434872 -0.461891
O22   O     O_2   0.010046 0.350495 0.565149 -0.462231
O23   O     O_2   0.127700 0.352865 0.934887 -0.461865
O24   O     O_2   0.991253 0.649473 0.065167 -0.462231
O25   O     O_2   0.371089 0.852938 0.065128 -0.461879
O26   O     O_2   0.510014 0.149505 0.934852 -0.462225
O27   O     O_2   0.630725 0.146951 0.565150 -0.461910
O28   O     O_2   0.488088 0.850449 0.434878 -0.462223
N1    N     N_R   0.912806 0.599923 0.397985 -0.562724
N2    N     N_R   0.025467 0.398658 0.601515 -0.563168
N3    N     N_R   0.087180 0.400044 0.898003 -0.562784
N4    N     N_R   0.974560 0.601317 0.101528 -0.563111
N5    N     N_R   0.412788 0.900077 0.102016 -0.562730
N6    N     N_R   0.525492 0.101342 0.898485 -0.563163
N7    N     N_R   0.587249 0.099873 0.602043 -0.562643
N8    N     N_R   0.474452 0.898622 0.398504 -0.563243
C17   C     C_R   0.942241 0.564297 0.391375 0.593151
C18   C     C_R   0.030227 0.434764 0.607848 0.596695
C19   C     C_R   0.058401 0.435688 0.891390 0.593190
C20   C     C_R   0.969120 0.565211 0.107852 0.596662
C21   C     C_R   0.442194 0.935704 0.108626 0.593165
C22   C     C_R   0.530285 0.065236 0.892154 0.596680
C23   C     C_R   0.556901 0.064273 0.608648 0.593108
C24   C     C_R   0.470645 0.934728 0.392161 0.596729
C25   C     C_R   0.068560 0.629502 0.351320 -0.097268
C26   C     C_R   0.209152 0.372692 0.646877 -0.096830
C27   C     C_R   0.931540 0.370518 0.851302 -0.097326
C28   C     C_R   0.790743 0.627331 0.146853 -0.096768
C29   C     C_R   0.568542 0.870501 0.148682 -0.097266
C30   C     C_R   0.709174 0.127309 0.853126 -0.096828
C31   C     C_R   0.431326 0.129527 0.648657 -0.097183
C32   C     C_R   0.290968 0.872724 0.353092 -0.096918
C33   C     C_R   0.068712 0.654048 0.325410 0.225646
C34   C     C_R   0.229413 0.348359 0.672757 0.230679
C35   C     C_R   0.931381 0.345973 0.825391 0.225678
C36   C     C_R   0.770487 0.651664 0.172734 0.230663
C37   C     C_R   0.568698 0.845955 0.174593 0.225657
C38   C     C_R   0.729428 0.151643 0.827245 0.230674
C39   C     C_R   0.431176 0.154074 0.674567 0.225612
C40   C     C_R   0.270710 0.848390 0.327211 0.230704
C41   C     C_R   0.755154 0.672277 0.340382 -0.187053
C42   C     C_R   0.922335 0.324331 0.660576 -0.180693
C43   C     C_R   0.244786 0.327686 0.840409 -0.187042
C44   C     C_R   0.077744 0.675633 0.160604 -0.180667
C45   C     C_R   0.255143 0.827724 0.159617 -0.186989
C46   C     C_R   0.422349 0.175668 0.839423 -0.180740
C47   C     C_R   0.744952 0.172221 0.659655 -0.186980
C48   C     C_R   0.577527 0.824280 0.339463 -0.180792
C49   C     C_R   0.755469 0.647237 0.365739 -0.056731
C50   C     C_R   0.903079 0.348989 0.635185 -0.049543
C51   C     C_R   0.244451 0.352714 0.865775 -0.056768
C52   C     C_R   0.097021 0.650967 0.135220 -0.049461
C53   C     C_R   0.255455 0.852763 0.134260 -0.056720
C54   C     C_R   0.403097 0.151011 0.864814 -0.049541
C55   C     C_R   0.744671 0.147164 0.634312 -0.056666
C56   C     C_R   0.596747 0.848925 0.364864 -0.049660
C57   C     C_R   0.912507 0.625766 0.371598 0.303122
C58   C     C_R   0.046424 0.373269 0.627974 0.302603
C59   C     C_R   0.087497 0.374214 0.871608 0.303220
C60   C     C_R   0.953580 0.626716 0.127980 0.302481
C61   C     C_R   0.412489 0.874236 0.128403 0.303123
C62   C     C_R   0.546447 0.126732 0.872027 0.302597
C63   C     C_R   0.587518 0.125734 0.628419 0.302982
C64   C     C_R   0.453534 0.873247 0.372037 0.302774
C65   C     C_R   0.913152 0.549928 0.448907 -0.097878
C66   C     C_R   0.972723 0.447658 0.550663 -0.098450
C67   C     C_R   0.086816 0.450016 0.948942 -0.097888
C68   C     C_R   0.027329 0.552293 0.050694 -0.098451
C69   C     C_R   0.413147 0.950071 0.051092 -0.097879
C70   C     C_R   0.472742 0.052341 0.949337 -0.098449
C71   C     C_R   0.586911 0.049847 0.551143 -0.097862
C72   C     C_R   0.527172 0.947587 0.449382 -0.098445
C73   C     C_R   0.874773 0.586525 0.455511 -0.146379
C74   C     C_R   0.962614 0.410299 0.544349 -0.148318
C75   C     C_R   0.124450 0.413391 0.955554 -0.146443
C76   C     C_R   0.038200 0.589647 0.044394 -0.148320
C77   C     C_R   0.374802 0.913473 0.044488 -0.146384
C78   C     C_R   0.462598 0.089700 0.955649 -0.148327
C79   C     C_R   0.626331 0.086404 0.544551 -0.146294
C80   C     C_R   0.536210 0.910220 0.455713 -0.148328
C81   C     C_R   0.824234 0.596459 0.487719 0.264869
C82   C     C_R   0.912281 0.398719 0.512575 0.262154
C83   C     C_R   0.174197 0.403411 0.987789 0.264854
C84   C     C_R   0.089344 0.601201 0.012652 0.262157
C85   C     C_R   0.324306 0.903536 0.012277 0.264869
C86   C     C_R   0.412224 0.101279 0.987422 0.262152
C87   C     C_R   0.677967 0.096272 0.512380 0.264892
C88   C     C_R   0.585410 0.898605 0.487532 0.262146
C89   C     C_R   0.946939 0.538884 0.416626 -0.009926
C90   C     C_R   0.007226 0.459825 0.582605 -0.011022
C91   C     C_R   0.053760 0.461095 0.916647 -0.009983
C92   C     C_R   0.992071 0.540142 0.082615 -0.010956
C93   C     C_R   0.446894 0.961117 0.083374 -0.009938
C94   C     C_R   0.507285 0.040175 0.917396 -0.011010
C95   C     C_R   0.552115 0.038852 0.583404 -0.009856
C96   C     C_R   0.493715 0.959775 0.417411 -0.011108
C97   C     C_R   0.911011 0.676319 0.319833 -0.110533
C98   C     C_R   0.084997 0.323354 0.679825 -0.114867
C99   C     C_R   0.089005 0.323676 0.819835 -0.110505
C100  C     C_R   0.914991 0.676642 0.179826 -0.114896
C101  C     C_R   0.411001 0.823682 0.180168 -0.110538
C102  C     C_R   0.585009 0.176646 0.820176 -0.114856
C103  C     C_R   0.588982 0.176310 0.680171 -0.110581
C104  C     C_R   0.415002 0.823349 0.320177 -0.114809
H1    H     H_    0.632217 0.688769 0.337043 0.168160
H2    H     H_    0.808803 0.305759 0.664974 0.163802
H3    H     H_    0.367665 0.311173 0.837084 0.168004
H4    H     H_    0.191348 0.694184 0.165019 0.163966
H5    H     H_    0.132207 0.811230 0.162955 0.168158
H6    H     H_    0.308814 0.194240 0.835025 0.163803
H7    H     H_    0.867970 0.188687 0.663012 0.168387
H8    H     H_    0.690958 0.805677 0.335089 0.163562
H9    H     H_    0.632915 0.644564 0.380920 0.150310
H10   H     H_    0.775778 0.349201 0.621033 0.151079
H11   H     H_    0.366921 0.355356 0.880982 0.150207
H12   H     H_    0.224415 0.650726 0.121095 0.151203
H13   H     H_    0.132902 0.855435 0.119078 0.150302
H14   H     H_    0.275797 0.150797 0.878965 0.151093
H15   H     H_    0.867348 0.144450 0.619168 0.150452
H16   H     H_    0.723910 0.849097 0.379055 0.150918
C105  C     C_R   0.943567 0.510446 0.532251 0.085744
C106  C     C_R   0.942814 0.487120 0.467266 0.085496
C107  C     C_R   0.055647 0.489491 0.032281 0.085799
C108  C     C_R   0.057984 0.512837 0.967304 0.085465
C109  C     C_R   0.443619 0.989553 0.967749 0.085749
C110  C     C_R   0.442780 0.012880 0.032733 0.085492
C111  C     C_R   0.557509 0.010354 0.467795 0.085668
C112  C     C_R   0.556072 0.987057 0.532787 0.085536
C113  C     C_R   0.929790 0.461165 0.492748 -0.047701
C114  C     C_R   0.900334 0.535491 0.507057 -0.047339
C115  C     C_R   0.071042 0.538774 0.992800 -0.047729
C116  C     C_R   0.098857 0.464423 0.007103 -0.047306
C117  C     C_R   0.429762 0.038834 0.007250 -0.047701
C118  C     C_R   0.400380 0.964506 0.992942 -0.047337
C119  C     C_R   0.569034 0.961078 0.507325 -0.047661
C120  C     C_R   0.600789 0.035368 0.493010 -0.047385
C121  C     C_R   0.948521 0.473071 0.525171 0.008617
C122  C     C_R   0.918437 0.524184 0.474458 0.008743
C123  C     C_R   0.051514 0.526871 0.025209 0.008606
C124  C     C_R   0.081548 0.475754 0.974498 0.008761
C125  C     C_R   0.448536 0.026928 0.974829 0.008617
C126  C     C_R   0.418440 0.975815 0.025541 0.008745
C127  C     C_R   0.551406 0.972987 0.474884 0.008633
C128  C     C_R   0.581589 0.024095 0.525599 0.008718
C129  C     C_R   0.989881 0.521626 0.563994 -0.138939
C130  C     C_R   0.987276 0.477416 0.435046 -0.136735
C131  C     C_R   0.008570 0.478334 0.063997 -0.138933
C132  C     C_R   0.014259 0.522584 0.935063 -0.136724
C133  C     C_R   0.489974 0.978373 0.936008 -0.138941
C134  C     C_R   0.487201 0.022586 0.064955 -0.136733
C135  C     C_R   0.512253 0.021567 0.436015 -0.138951
C136  C     C_R   0.510594 0.977414 0.564981 -0.136748
C137  C     C_R   0.019296 0.496802 0.588743 -0.139881
C138  C     C_R   0.987123 0.502726 0.410170 -0.137793
C139  C     C_R   0.979213 0.503171 0.088737 -0.139906
C140  C     C_R   0.014347 0.497283 0.910180 -0.137761
C141  C     C_R   0.519391 0.003198 0.911259 -0.139893
C142  C     C_R   0.487044 0.997277 0.089832 -0.137777
C143  C     C_R   0.482749 0.996762 0.411254 -0.139854
C144  C     C_R   0.510853 0.002735 0.589847 -0.137824
O29   O     O_2   0.055378 0.446456 0.638606 -0.499863
O30   O     O_2   0.965913 0.553378 0.360348 -0.501454
O31   O     O_2   0.943339 0.553526 0.138596 -0.499937
O32   O     O_2   0.035321 0.446629 0.860356 -0.501391
O33   O     O_2   0.555467 0.053544 0.861396 -0.499885
O34   O     O_2   0.465836 0.946624 0.139653 -0.501432
O35   O     O_2   0.446373 0.946430 0.361384 -0.499779
O36   O     O_2   0.532409 0.053385 0.639664 -0.501526
C145  C     C_R   0.834573 0.570927 0.513222 0.201089
C146  C     C_R   0.893470 0.424083 0.487086 0.197300
C147  C     C_R   0.163835 0.428939 0.013295 0.201005
C148  C     C_R   0.108165 0.575832 0.987169 0.197349
C149  C     C_R   0.334655 0.929069 0.986774 0.201088
C150  C     C_R   0.393406 0.075915 0.012910 0.197294
C151  C     C_R   0.667646 0.070735 0.486880 0.201214
C152  C     C_R   0.604225 0.923961 0.513028 0.197225
H17   H     H_    0.320373 0.391482 0.641526 0.162899
H18   H     H_    0.190288 0.612917 0.355552 0.162648
H19   H     H_    0.679434 0.608567 0.141482 0.162965
H20   H     H_    0.809892 0.387130 0.855516 0.162582
H21   H     H_    0.820398 0.108521 0.858477 0.162904
H22   H     H_    0.690266 0.887087 0.144452 0.162645
H23   H     H_    0.179870 0.891550 0.358414 0.162810
H24   H     H_    0.309489 0.112980 0.644401 0.162740
H25   H     H_    0.052603 0.506812 0.612789 0.179180
H26   H     H_    0.020558 0.493795 0.385784 0.179113
H27   H     H_    0.945306 0.493178 0.112763 0.179140
H28   H     H_    0.981486 0.506245 0.885780 0.179141
H29   H     H_    0.552730 0.993189 0.887215 0.179171
H30   H     H_    0.520448 0.006210 0.114219 0.179123
H31   H     H_    0.450274 0.006794 0.387180 0.179230
H32   H     H_    0.476625 0.993849 0.614213 0.179080
H33   H     H_    0.011729 0.549619 0.569893 0.164674
H34   H     H_    0.030732 0.450486 0.428775 0.163446
H35   H     H_    0.986074 0.450356 0.069878 0.164612
H36   H     H_    0.971427 0.549547 0.928778 0.163490
H37   H     H_    0.511854 0.950381 0.930110 0.164668
H38   H     H_    0.530629 0.049517 0.071227 0.163452
H39   H     H_    0.491311 0.049579 0.430090 0.164758
H40   H     H_    0.466267 0.950531 0.571232 0.163386
Br1   Br    Br    0.717234 0.643101 0.497634 -0.396589
Br2   Br    Br    0.844792 0.349231 0.503327 -0.393295
Br3   Br    Br    0.280105 0.356689 0.997757 -0.396410
Br4   Br    Br    0.158001 0.650642 0.003463 -0.393315
Br5   Br    Br    0.217358 0.856891 0.002358 -0.396602
Br6   Br    Br    0.344681 0.150765 0.996665 -0.393208
Br7   Br    Br    0.786490 0.142802 0.502537 -0.396867
Br8   Br    Br    0.651246 0.849052 0.496860 -0.393151
Br9   Br    Br    0.453847 0.352721 0.697992 -0.460063
Br10  Br    Br    0.284726 0.653477 0.297778 -0.461111
Br11  Br    Br    0.545931 0.647331 0.197937 -0.460419
Br12  Br    Br    0.715467 0.346571 0.797734 -0.460831
Br13  Br    Br    0.953858 0.147281 0.802011 -0.460179
Br14  Br    Br    0.784714 0.846526 0.202226 -0.460983
Br15  Br    Br    0.046460 0.852795 0.301932 -0.459660
Br16  Br    Br    0.215014 0.153544 0.702164 -0.461391
N9    N     N_2   0.757139 0.579458 0.544223 -0.523428
H41   H     H_    0.781161 0.605161 0.552592 0.303490
C153  C     C_3   0.567697 0.567181 0.548991 -0.459727
H42   H     H_    0.523404 0.573017 0.574313 0.205571
H43   H     H_    0.557986 0.537672 0.545020 0.197388
H44   H     H_    0.472027 0.581228 0.531951 0.215451
N10   N     N_2   0.815605 0.413003 0.456787 -0.525845
H45   H     H_    0.859370 0.388431 0.448082 0.302036
C154  C     C_3   0.617046 0.418923 0.453750 -0.452176
H46   H     H_    0.571219 0.411631 0.428822 0.205536
H47   H     H_    0.582910 0.447711 0.457939 0.194443
H48   H     H_    0.540111 0.402029 0.471547 0.220655
N11   N     N_2   0.240492 0.420340 0.044339 -0.523478
H49   H     H_    0.215796 0.394653 0.052686 0.303460
C155  C     C_3   0.430075 0.432477 0.049225 -0.459656
H50   H     H_    0.473751 0.426601 0.074573 0.205623
H51   H     H_    0.440444 0.461981 0.045268 0.197351
H52   H     H_    0.525799 0.418366 0.032240 0.215535
N12   N     N_2   0.186823 0.586864 0.956919 -0.525782
H53   H     H_    0.143719 0.611472 0.948197 0.302088
C156  C     C_3   0.385318 0.580797 0.953998 -0.452350
H54   H     H_    0.431768 0.588065 0.929101 0.205518
H55   H     H_    0.418797 0.551982 0.958198 0.194486
H56   H     H_    0.462245 0.597625 0.971848 0.220556
N13   N     N_2   0.257266 0.920534 0.955770 -0.523432
H57   H     H_    0.281321 0.894832 0.947402 0.303486
C157  C     C_3   0.067818 0.932804 0.950993 -0.459732
H58   H     H_    0.023560 0.926966 0.925668 0.205569
H59   H     H_    0.058075 0.962313 0.954962 0.197388
H60   H     H_    0.972141 0.918755 0.968028 0.215456
N14   N     N_2   0.315499 0.086993 0.043206 -0.525842
H61   H     H_    0.359232 0.111566 0.051912 0.302042
C158  C     C_3   0.116941 0.081066 0.046233 -0.452171
H62   H     H_    0.071081 0.088357 0.071159 0.205541
H63   H     H_    0.082835 0.052278 0.042044 0.194442
H64   H     H_    0.040012 0.097957 0.028433 0.220651
N15   N     N_2   0.746149 0.079171 0.455939 -0.523355
H65   H     H_    0.723067 0.104894 0.447540 0.303529
C159  C     C_3   0.935384 0.066699 0.451329 -0.459822
H66   H     H_    0.980525 0.072478 0.426041 0.205493
H67   H     H_    0.944177 0.037182 0.455318 0.197440
H68   H     H_    0.030986 0.080655 0.468442 0.215332
N16   N     N_2   0.680990 0.912815 0.543393 -0.525933
H69   H     H_    0.636300 0.888295 0.552075 0.301964
C160  C     C_3   0.879636 0.918527 0.546587 -0.451912
H70   H     H_    0.924599 0.911202 0.571555 0.205561
H71   H     H_    0.914694 0.947276 0.542412 0.194380
H72   H     H_    0.956564 0.901541 0.528861 0.220795

loop_
_geom_bond_atom_site_label_1
_geom_bond_atom_site_label_2
_ccdc_geom_bond_type
C69   C126  A    
C112  C119  A    
C129  H33   S    
C140  H28   S    
C86   Br6   S    
C10   O22   S    
C133  H37   S    
C20   C92   A    
C21   C93   A    
O15   V4    S    
C160  H70   S    
O16   V3    S    
C19   C91   A    
C114  C122  A    
C15   O27   S    
C27   H20   S    
C155  H50   S    
N10   C154  S    
C143  H31   S    
C85   C149  A    
C17   O30   S    
N14   C158  S    
C11   C75   A    
C84   Br4   S    
C66   C121  A    
C21   O34   S    
C135  H39   S    
C70   C78   A    
O13   V3    S    
C75   C83   A    
C69   C93   A    
C53   C61   A    
C72   C80   A    
C108  C132  A    
C6    C99   S    
O10   V2    S    
C145  N9    S    
O12   C4    A    
C80   C88   A    
O13   C5    A    
C107  C116  A    
O6    V2    S    
C23   O36   S    
C56   C64   A    
C11   N3    A    
C12   O24   S    
C13   O25   S    
C35   Br12  S    
C43   C51   A    
C119  C127  A    
C160  H72   S    
C133  C141  A    
C66   C90   A    
O1    C4    A    
O2    C3    A    
C153  H43   S    
C29   C61   A    
O7    C6    A    
C111  C135  A    
C112  C136  A    
C139  H27   S    
C118  C149  A    
C119  C152  A    
C137  H25   S    
C42   C98   A    
C138  H26   S    
C151  N15   S    
C106  C113  A    
C33   C97   A    
O10   C2    A    
C136  C144  A    
C37   C101  A    
N1    C57   S    
C13   C77   A    
C54   C62   A    
C155  H52   S    
C49   C57   A    
C147  N11   S    
C144  H32   S    
N9    C153  S    
O17   V3    S    
C24   C96   A    
O18   V4    S    
O12   V1    S    
O19   V1    S    
C29   C37   A    
C110  C126  A    
C90   C137  A    
C87   C151  A    
C118  C126  A    
C31   C39   A    
C159  H67   S    
C81   Br1   S    
C1    C104  S    
C55   H15   S    
O8    V1    S    
C65   C73   A    
C2    C103  S    
C26   H17   S    
C46   H6    S    
C136  H40   S    
C26   C34   A    
O1    V3    S    
C30   H21   S    
N1    C17   A    
O2    V4    S    
N9    H41   S    
N4    C20   A    
N5    C21   A    
C19   O32   S    
C39   C103  A    
C70   C125  A    
C40   C104  A    
N7    C23   A    
N8    C24   A    
C11   O23   S    
C12   N4    A    
C13   N5    A    
C152  N16   S    
C156  H54   S    
C157  H60   S    
C115  C123  A    
C72   C96   A    
C113  C121  A    
C55   C63   A    
C24   O35   S    
N2    C58   S    
C45   C101  A    
N13   C157  S    
C109  C118  A    
N4    C60   S    
C68   C123  A    
C28   C60   A    
N15   H65   S    
C67   C75   A    
C158  H62   S    
C120  C151  A    
C154  H47   S    
C88   C152  A    
C107  C123  A    
O14   C6    A    
C70   C94   A    
C27   C35   A    
C12   C76   A    
C34   Br9   S    
C148  N12   S    
C146  N10   S    
C31   C63   A    
C106  C122  A    
C31   H24   S    
C38   Br13  S    
C4    C101  S    
C130  C138  A    
C141  H29   S    
C8    C97   S    
C28   C36   A    
C9    C73   A    
C26   C58   A    
C32   C40   A    
C35   C99   A    
C115  C148  A    
C15   C79   A    
C113  C146  A    
C68   C92   A    
C73   C81   A    
C156  H56   S    
C157  H58   S    
C44   C52   A    
C51   C59   A    
C77   C85   A    
C130  H34   S    
C79   C87   A    
C94   C141  A    
C48   C56   A    
C7    C98   S    
C85   Br5   S    
N12   H53   S    
C134  H38   S    
C116  C147  A    
C43   C99   A    
C89   C138  A    
C69   C77   A    
N10   H45   S    
C149  N13   S    
C41   C97   A    
C34   C98   A    
O11   C3    A    
C38   C102  A    
C157  H59   S    
C9    N1    A    
C158  H64   S    
C105  C129  A    
C86   C150  A    
C15   N7    A    
O11   V2    S    
N5    C61   S    
C16   N8    A    
C92   C139  A    
C109  C133  A    
C39   Br16  S    
C50   H10   S    
C108  C124  A    
C27   C59   A    
C41   C49   A    
C116  C124  A    
C44   H4    S    
C117  C125  A    
C54   H14   S    
O7    V2    S    
N11   H49   S    
C84   C148  A    
C83   Br3   S    
C42   H2    S    
C72   C127  A    
C160  H71   S    
N2    C18   A    
C28   H19   S    
N8    C64   S    
C95   C144  A    
N11   C155  S    
C120  C128  A    
C32   C64   A    
C32   H23   S    
N16   H69   S    
N14   H61   S    
C14   N6    A    
O4    C1    A    
C16   C80   A    
C3    C102  S    
C87   Br7   S    
C159  H66   S    
C134  C142  A    
C110  C117  A    
C76   C84   A    
N6    C62   S    
O14   V4    S    
C30   C62   A    
N6    C22   A    
C42   C50   A    
C9    O21   S    
C68   C76   A    
C117  C150  A    
C71   C95   A    
C18   C90   A    
O3    V4    S    
O4    V3    S    
C14   C78   A    
C5    C100  S    
C36   Br11  S    
C93   C142  A    
C40   Br15  S    
C67   C124  A    
C30   C38   A    
C91   C140  A    
C65   C122  A    
C153  H44   S    
C82   Br2   S    
C114  C145  A    
C66   C74   A    
C17   C89   A    
N12   C156  S    
C135  C143  A    
C25   H18   S    
N7    C63   S    
C25   C33   A    
O3    C2    A    
C107  C131  A    
C29   H22   S    
C16   O28   S    
C96   C143  A    
C46   C54   A    
C111  C127  A    
C18   O29   S    
C112  C128  A    
C83   C147  A    
C81   C145  A    
C154  H46   S    
C22   O33   S    
C132  H36   S    
O9    V1    S    
O15   C7    A    
O16   C8    A    
C47   H7    S    
C48   H8    S    
C45   C53   A    
C159  H68   S    
O5    V1    S    
C36   C100  A    
N3    C59   S    
C10   N2    A    
C14   O26   S    
C88   Br8   S    
C46   C102  A    
C67   C91   A    
C106  C130  A    
C65   C89   A    
N13   H57   S    
C47   C55   A    
C110  C134  A    
C23   C95   A    
C51   H11   S    
C20   O31   S    
C49   H9    S    
C82   C146  A    
O8    C5    A    
C52   H12   S    
C53   H13   S    
N16   C160  S    
C44   C100  A    
C43   H3    S    
C105  C114  A    
C71   C79   A    
O9    C1    A    
C56   H16   S    
C41   H1    S    
C156  H55   S    
N3    C19   A    
C153  H42   S    
C52   C60   A    
C33   Br10  S    
C155  H51   S    
C131  C139  A    
C37   Br14  S    
C129  C137  A    
C142  H30   S    
C10   C74   A    
C150  N14   S    
C109  C125  A    
C22   C94   A    
O20   V2    S    
C25   C57   A    
N15   C159  S    
O5    C8    A    
O6    C7    A    
C71   C128  A    
C158  H63   S    
C48   C104  A    
C154  H48   S    
C45   H5    S    
C74   C82   A    
C132  C140  A    
C108  C115  A    
C78   C86   A    
C47   C103  A    
C105  C121  A    
C50   C58   A    
C131  H35   S    
C111  C120  A    
