data_mof_unit_16519.cif
_audit_creation_date              2012-12-10T17:05:45-0500
_audit_creation_method            fapswitch 2.2
_symmetry_space_group_name_H-M    P1
_symmetry_Int_Tables_number       1
_space_group_crystal_system       triclinic
_cell_length_a                    15.881751
_cell_length_b                    11.047301
_cell_length_c                    9.923362
_cell_angle_alpha                 111.384896
_cell_angle_beta                  98.387028
_cell_angle_gamma                 91.832788
_cell_volume                      1596.98291058

loop_
_atom_site_label
_atom_site_type_symbol
_atom_type_description
_atom_site_fract_x
_atom_site_fract_y
_atom_site_fract_z
_atom_type_partial_charge
C1    C     C_R   0.493221 0.253978 0.440194 0.732904
C2    C     C_3   0.963756 0.535243 0.658391 0.268307
C3    C     C_3   0.916513 0.501282 0.497215 -0.130347
C4    C     C_3   0.949764 0.606796 0.439557 0.283320
C5    C     C_3   0.049570 0.613151 0.452887 0.145150
C6    C     C_1   0.824249 0.500312 0.496923 0.109269
C7    C     C_1   0.175825 0.501279 0.502855 0.114177
C8    C     C_1   0.251220 0.501026 0.502395 -0.209553
C9    C     C_2   0.488069 0.113357 0.405178 0.328574
C10   C     C_2   0.506890 0.068813 0.513946 -0.249802
C11   C     C_2   0.512061 0.885797 0.593132 -0.363519
C12   C     C_R   0.340533 0.500415 0.500797 0.776065
C13   C     C_2   0.505381 0.929682 0.483779 -0.144993
C14   C     C_2   0.503844 0.513091 0.078673 -0.006696
C15   C     C_2   0.498647 0.477835 0.913969 0.557555
C16   C     C_R   0.506961 0.745906 0.559666 0.854040
C17   C     C_R   0.659495 0.499981 0.499266 0.812515
C18   C     C_3   0.062509 0.536090 0.661451 0.178975
C19   C     C_3   0.034834 0.368601 0.385022 0.291998
C20   C     C_3   0.939927 0.360407 0.404947 0.129323
C21   C     C_1   0.748854 0.499908 0.497729 -0.176094
C22   C     C_3   0.083546 0.501040 0.501518 -0.122545
Cu1   Cu    Cu3+1 0.514650 0.521810 0.644910 0.963165
Cu2   Cu    Cu3+1 0.485350 0.478190 0.355090 0.986910
H1    H     H_    0.942133 0.456071 0.694420 0.101525
H2    H     H_    0.923480 0.577090 0.321144 0.097703
H3    H     H_    0.033800 0.378314 0.277982 0.184127
N1    N     N_2   0.463320 0.445430 0.137380 0.018541
N2    N     N_2   0.536720 0.554500 0.862620 -0.336315
O1    O     O_R   0.507820 0.332330 0.577400 -0.557443
O2    O     O_R   0.483070 0.295500 0.332660 -0.528003
O3    O     O_R   0.391820 0.518430 0.622420 -0.585487
O4    O     O_R   0.367070 0.481600 0.377680 -0.591016
O5    O     O_R   0.516930 0.704500 0.667340 -0.568323
O6    O     O_R   0.492180 0.667670 0.422600 -0.599664
O7    O     O_R   0.632930 0.518400 0.622320 -0.561357
O8    O     O_R   0.608180 0.481570 0.377580 -0.572597
H4    H     H_    0.090334 0.638922 0.727460 0.132230
O9    O     O_3   0.943400 0.659297 0.751156 -0.516624
C23   C     C_3   0.934318 0.659404 0.890560 -0.287904
H5    H     H_    0.991695 0.627123 0.941899 0.158986
H6    H     H_    0.876136 0.596655 0.882327 0.156376
H7    H     H_    0.926610 0.760455 0.963468 0.195045
H8    H     H_    0.497152 0.862045 0.370256 0.216632
H9    H     H_    0.522764 0.135851 0.627714 0.197873
H10   H     H_    0.520475 0.952943 0.706941 0.180055
O10   O     O_3   0.468873 0.028738 0.259570 -0.557773
C24   C     C_3   0.379399 0.999875 0.221657 -0.320893
H11   H     H_    0.345553 0.089706 0.240270 0.138821
H12   H     H_    0.355563 0.943626 0.283563 0.155833
H13   H     H_    0.363417 0.938289 0.103042 0.190051
O11   O     O_3   0.462278 0.355191 0.817700 -0.522264
C25   C     C_3   0.372892 0.354316 0.777973 -0.143117
H14   H     H_    0.346059 0.448085 0.834231 0.101545
H15   H     H_    0.339700 0.275563 0.799125 0.145815
H16   H     H_    0.356220 0.323935 0.657401 0.149289
H17   H     H_    0.540828 0.603396 0.151812 0.053416
H18   H     H_    0.565039 0.643231 0.938081 0.147544
O12   O     O_3   0.095118 0.448653 0.726844 -0.602822
C26   C     C_3   0.162618 0.510378 0.845011 -0.367559
H19   H     H_    0.139316 0.586562 0.936753 0.172589
H20   H     H_    0.215277 0.553749 0.809593 0.159564
H21   H     H_    0.188779 0.436213 0.886413 0.184881
O13   O     O_3   0.433156 0.322394 0.047981 -0.449719
C27   C     C_3   0.350547 0.298969 0.074625 -0.074288
H22   H     H_    0.310850 0.381302 0.079366 0.111107
H23   H     H_    0.352486 0.276235 0.174138 0.179528
H24   H     H_    0.318000 0.210339 0.983512 0.098554
O14   O     O_3   0.074664 0.250109 0.360322 -0.571691
C28   C     C_3   0.098161 0.218387 0.484945 -0.197316
H25   H     H_    0.047048 0.227357 0.551833 0.178952
H26   H     H_    0.159082 0.274470 0.550731 0.190078
H27   H     H_    0.111038 0.114176 0.446483 0.145379
H28   H     H_    0.935651 0.303191 0.475233 0.139455
O15   O     O_3   0.882580 0.282610 0.274220 -0.538401
C29   C     C_3   0.861336 0.341400 0.170695 -0.258437
H29   H     H_    0.917798 0.379274 0.139639 0.140139
H30   H     H_    0.816510 0.416946 0.207495 0.147245
H31   H     H_    0.826421 0.265216 0.068348 0.196038
H32   H     H_    0.078171 0.707903 0.541241 0.141857
O16   O     O_3   0.073498 0.600343 0.315811 -0.594293
C30   C     C_3   0.093350 0.723794 0.310632 -0.331371
H33   H     H_    0.153288 0.772643 0.387777 0.164459
H34   H     H_    0.040130 0.786985 0.335177 0.175197
H35   H     H_    0.103977 0.709938 0.198165 0.175909
O17   O     O_3   0.926738 0.732423 0.522903 -0.521807
C31   C     C_3   0.863813 0.775326 0.438868 -0.279836
H36   H     H_    0.805342 0.705686 0.395760 0.146939
H37   H     H_    0.889157 0.790347 0.346928 0.139764
H38   H     H_    0.845419 0.870460 0.510434 0.198582

loop_
_geom_bond_atom_site_label_1
_geom_bond_atom_site_label_2
_ccdc_geom_bond_type
C31   H36   S    
C2    C18   S    
C19   C20   S    
C29   H31   S    
C3    C6    S    
O16   C30   S    
C7    C8    T    
C25   H14   S    
C26   H21   S    
Cu1   N2    S    
C29   H30   S    
C16   O6    A    
C4    O17   S    
Cu1   O7    S    
C1    O2    A    
C26   H20   S    
C16   O5    A    
C2    O9    S    
C24   H13   S    
C5    C22   S    
C27   H23   S    
Cu1   Cu2   S    
C28   H25   S    
C17   O7    A    
C19   H3    S    
C9    C10   D    
C27   H24   S    
C24   H12   S    
O12   C26   S    
C12   O3    A    
C10   H9    S    
C15   N2    D    
C25   H15   S    
Cu2   O6    S    
Cu1   O1    S    
C19   C22   S    
C1    C9    S    
C29   H29   S    
O9    C23   S    
O17   C31   S    
C6    C21   T    
C30   H33   S    
C17   C21   S    
C20   O15   S    
C26   H19   S    
O15   C29   S    
C5    O16   S    
C11   C16   S    
O10   C24   S    
C8    C12   S    
Cu1   O5    S    
C23   H7    S    
C28   H27   S    
Cu2   O8    S    
C20   H28   S    
C3    C20   S    
C17   O8    A    
C15   O11   S    
C5    H32   S    
N1    O13   S    
C23   H5    S    
C9    O10   S    
C30   H34   S    
C31   H37   S    
C19   O14   S    
C3    C4    S    
C30   H35   S    
O11   C25   S    
C25   H16   S    
C14   H17   S    
C24   H11   S    
C18   C22   S    
Cu2   N1    S    
C4    C5    S    
C10   C13   S    
C4    H2    S    
C7    C22   S    
Cu2   O4    S    
O13   C27   S    
C2    C3    S    
C18   H4    S    
Cu2   O2    S    
Cu1   O3    S    
C11   C13   D    
C23   H6    S    
C1    O1    A    
C2    H1    S    
O14   C28   S    
C18   O12   S    
N2    H18   S    
C27   H22   S    
C31   H38   S    
C14   C15   S    
C11   H10   S    
C28   H26   S    
C14   N1    D    
C12   O4    A    
C13   H8    S    
