data_mof_unit_32286.cif
_audit_creation_date              2012-12-10T19:00:43-0500
_audit_creation_method            fapswitch 2.2
_symmetry_space_group_name_H-M    P1
_symmetry_Int_Tables_number       1
_space_group_crystal_system       triclinic
_cell_length_a                    15.056983
_cell_length_b                    10.822766
_cell_length_c                    9.543717
_cell_angle_alpha                 89.800365
_cell_angle_beta                  89.817811
_cell_angle_gamma                 90.356551
_cell_volume                      1555.17945469

loop_
_atom_site_label
_atom_site_type_symbol
_atom_type_description
_atom_site_fract_x
_atom_site_fract_y
_atom_site_fract_z
_atom_type_partial_charge
C1    C     C_R   0.501191 0.262299 0.500137 0.795569
C2    C     C_R   0.905884 0.585208 0.404270 0.005392
C3    C     C_R   0.953776 0.369046 0.698884 -0.175375
C4    C     C_R   0.046258 0.371237 0.698902 -0.181752
C5    C     C_R   0.092848 0.443185 0.600434 0.104629
C6    C     C_R   0.046518 0.514445 0.500840 0.082746
C7    C     C_R   0.093197 0.587746 0.401281 0.039913
C8    C     C_R   0.044484 0.661705 0.307345 -0.193187
C9    C     C_R   0.952134 0.659969 0.308632 -0.154372
C10   C     C_R   0.185106 0.444069 0.599927 -0.235333
C11   C     C_R   0.232193 0.513137 0.500132 -0.150328
C12   C     C_R   0.328887 0.504171 0.500083 0.858587
C13   C     C_R   0.187066 0.586719 0.400453 -0.059843
C14   C     C_R   0.510066 0.062957 0.625625 0.086223
C15   C     C_R   0.509380 0.129208 0.499953 -0.065375
C16   C     C_R   0.521316 0.064926 0.373391 -0.201801
C17   C     C_R   0.521693 0.936060 0.373099 -0.174511
C18   C     C_R   0.509818 0.870582 0.499311 -0.051362
C19   C     C_R   0.509543 0.935917 0.625173 0.030063
C20   C     C_3   0.450197 0.928479 0.751491 -0.254530
C21   C     C_3   0.450558 0.069489 0.751206 -0.426839
C22   C     C_R   0.542734 0.591567 0.072818 0.210370
C23   C     C_R   0.501677 0.737567 0.499733 0.839176
C24   C     C_R   0.449353 0.418486 0.075244 -0.138857
C25   C     C_R   0.448892 0.418868 0.926353 0.674483
C26   C     C_R   0.542773 0.591465 0.925536 0.184218
C27   C     C_3   0.638990 0.623350 0.918140 -0.519679
C28   C     C_3   0.639190 0.622941 0.077088 -0.394695
C29   C     C_R   0.671153 0.501700 0.499996 0.858251
C30   C     C_R   0.813154 0.582245 0.404998 0.526388
C31   C     C_R   0.767649 0.506303 0.500655 -0.168194
C32   C     C_R   0.814229 0.436698 0.599639 -0.340152
C33   C     C_R   0.906811 0.439191 0.600755 0.113885
C34   C     C_R   0.953091 0.512794 0.501724 -0.005374
Cu1   Cu    Cu3+1 0.500000 0.499980 0.640670 1.017057
Cu2   Cu    Cu3+1 0.500000 0.500020 0.359330 0.984993
H1    H     H_    0.527061 0.888389 0.273841 0.157293
H2    H     H_    0.484931 0.888152 0.843484 0.148622
H3    H     H_    0.385546 0.112828 0.727032 0.247774
H4    H     H_    0.485404 0.109304 0.843265 0.204810
H5    H     H_    0.409712 0.351044 0.131783 0.168547
H6    H     H_    0.679957 0.548315 0.872707 0.222449
H7    H     H_    0.650611 0.716503 0.871952 0.204047
H8    H     H_    0.679880 0.547088 0.121520 0.246827
H9    H     H_    0.778255 0.379477 0.674483 0.167132
H10   H     H_    0.651303 0.715925 0.122502 0.232926
H11   H     H_    0.918981 0.312461 0.775497 0.146102
H12   H     H_    0.081422 0.316242 0.775654 0.159621
H13   H     H_    0.220726 0.388089 0.675469 0.192130
H14   H     H_    0.076799 0.722142 0.232301 0.181191
H15   H     H_    0.917051 0.717327 0.234076 0.199853
H16   H     H_    0.526384 0.113468 0.274220 0.161921
N1    N     N_R   0.500570 0.500930 0.147930 -0.222101
N2    N     N_R   0.500570 0.500890 0.852020 -0.230867
O1    O     O_R   0.500000 0.319640 0.618810 -0.538974
O2    O     O_R   0.500010 0.319680 0.381230 -0.603481
O3    O     O_R   0.370250 0.499950 0.618800 -0.526158
O4    O     O_R   0.370260 0.499990 0.381220 -0.574363
O5    O     O_R   0.499990 0.680320 0.618770 -0.584201
O6    O     O_R   0.500000 0.680360 0.381190 -0.571865
O7    O     O_R   0.629740 0.500010 0.618780 -0.607230
O8    O     O_R   0.629750 0.500050 0.381200 -0.553715
F1    F     F_    0.767180 0.656931 0.317010 -0.709634
C35   C     C_2   0.360409 0.870488 0.724295 0.920677
O9    O     O_2   0.313866 0.907262 0.628069 -0.565185
O10   O     O_R   0.331353 0.772954 0.809476 -0.739176
H17   H     H_    0.271065 0.739730 0.780475 0.344900
F2    F     F_    0.397198 0.336212 0.857812 -0.681977
C36   C     C_2   0.238337 0.664714 0.299943 0.858571
O11   O     O_2   0.229117 0.650323 0.173788 -0.583089
O12   O     O_R   0.298661 0.752442 0.350394 -0.733313
H18   H     H_    0.330529 0.798706 0.272337 0.339551

loop_
_geom_bond_atom_site_label_1
_geom_bond_atom_site_label_2
_ccdc_geom_bond_type
C32   H9    S    
Cu1   Cu2   S    
C9    H15   S    
C7    C8    A    
C23   O5    A    
C28   H10   S    
C26   C27   S    
C14   C21   S    
C1    O2    A    
Cu2   O4    S    
C5    C6    A    
C3    C33   A    
C15   C16   A    
Cu1   O5    S    
C18   C19   A    
C36   O12   S    
Cu2   N1    S    
C19   C20   S    
C16   C17   A    
C1    C15   S    
C12   O4    A    
C2    C34   A    
O10   H17   S    
C22   C28   S    
C30   F1    S    
Cu1   N2    S    
C24   H5    S    
C10   H13   S    
C25   F2    S    
Cu2   O8    S    
C26   N2    A    
C33   C34   A    
C22   N1    A    
C23   O6    A    
C29   O7    A    
Cu1   O1    S    
C18   C23   S    
C25   N2    A    
C8    C9    A    
C24   N1    A    
C28   H8    S    
C6    C34   A    
C35   O10   S    
C20   C35   S    
Cu2   O2    S    
C20   H2    S    
C31   C32   A    
C21   H3    S    
C17   C18   A    
Cu1   O7    S    
C17   H1    S    
C24   C25   A    
C12   O3    A    
C3    C4    A    
C8    H14   S    
C4    H12   S    
C29   O8    A    
C14   C19   A    
C16   H16   S    
C4    C5    A    
Cu2   O6    S    
C11   C12   S    
C6    C7    A    
Cu1   O3    S    
C2    C30   A    
C35   O9    D    
C1    O1    A    
C5    C10   A    
C29   C31   S    
C32   C33   A    
C11   C13   A    
C27   H6    S    
C30   C31   A    
C21   H4    S    
C13   C36   S    
C3    H11   S    
C36   O11   D    
C10   C11   A    
C27   H7    S    
C7    C13   A    
O12   H18   S    
C20   C21   S    
C22   C26   A    
C27   C28   S    
C14   C15   A    
C2    C9    A    
