data_mof_unit_10027.cif
_audit_creation_date              2012-12-11T15:21:54-0500
_audit_creation_method            fapswitch 2.2
_symmetry_space_group_name_H-M    P1
_symmetry_Int_Tables_number       1
_space_group_crystal_system       triclinic
_cell_length_a                    8.378515
_cell_length_b                    12.778414
_cell_length_c                    19.042854
_cell_angle_alpha                 95.19227
_cell_angle_beta                  94.527945
_cell_angle_gamma                 97.564367
_cell_volume                      2004.22852167

loop_
_atom_site_label
_atom_site_type_symbol
_atom_type_description
_atom_site_fract_x
_atom_site_fract_y
_atom_site_fract_z
_atom_type_partial_charge
Ba1   Ba    Ba6+2 0.160910 0.552960 0.466220 1.684892
Ba2   Ba    Ba6+2 0.649260 0.447030 0.533730 1.699982
C1    C     C_3   0.341915 0.812338 0.201934 -0.276742
C2    C     C_R   0.731066 0.819475 0.481351 -0.267355
C3    C     C_R   0.702845 0.997381 0.452542 -0.085601
C4    C     C_3   0.892832 0.830767 0.282963 0.856185
C5    C     C_R   0.639252 0.889755 0.451419 0.023830
C6    C     C_R   0.885343 0.853127 0.515079 0.026558
C7    C     C_R   0.950020 0.964456 0.519739 -0.061848
C8    C     C_R   0.856753 0.038090 0.487669 -0.062863
C9    C     C_R   0.921796 0.149253 0.491171 0.020511
C10   C     C_R   0.169488 0.111763 0.554963 0.100875
C11   C     C_R   0.106265 0.003938 0.552799 -0.053051
C12   C     C_3   0.380512 0.782467 0.276267 0.277815
C13   C     C_R   0.608478 0.534963 0.295064 -0.416303
C14   C     C_R   0.458763 0.475466 0.271475 -0.022525
C15   C     C_R   0.412308 0.456473 0.196704 0.342327
C16   C     C_3   0.003657 0.890628 0.344900 -0.301775
C17   C     C_R   0.504934 0.515894 0.150185 -0.116096
C18   C     C_R   0.655337 0.575765 0.176019 0.309300
C19   C     C_R   0.711415 0.577082 0.247706 -0.021133
C20   C     C_R   0.302860 0.549020 0.052539 -0.023188
C21   C     C_R   0.246187 0.540799 0.980811 -0.021794
C22   C     C_R   0.335576 0.497468 0.928704 0.088124
C23   C     C_3   0.362824 0.768457 0.701199 0.220694
C24   C     C_R   0.481676 0.461912 0.949846 -0.061381
C25   C     C_R   0.537119 0.469273 0.021403 0.033746
C26   C     C_R   0.449130 0.513429 0.073602 0.157293
C27   C     C_R   0.115354 0.459573 0.828333 -0.033078
C28   C     C_3   0.760915 0.316927 0.320494 0.260347
C29   C     C_R   0.063491 0.456303 0.756269 0.087020
C30   C     C_R   0.335737 0.524571 0.732338 0.024138
C31   C     C_R   0.389934 0.521568 0.803245 -0.038874
C32   C     C_R   0.279414 0.491990 0.852417 0.052684
C33   C     C_R   0.172498 0.493165 0.709334 -0.196015
C34   C     C_3   0.386343 0.852186 0.765039 0.366698
C35   C     C_3   0.819920 0.312330 0.246557 0.259441
C36   C     C_3   0.900571 0.713401 0.677794 0.223986
C37   C     C_3   0.903683 0.754941 0.755134 -0.294924
C38   C     C_3   0.259242 0.235834 0.388976 0.302168
C39   C     C_3   0.250984 0.117055 0.373803 -0.307051
C40   C     C_3   0.756154 0.972070 0.255128 0.266778
C41   C     C_3   0.863266 0.600813 0.104002 0.258783
C42   C     C_3   0.815616 0.169350 0.699510 0.384710
C43   C     C_3   0.785099 0.060881 0.730440 0.374911
C44   C     C_3   0.417928 0.202227 0.728851 0.601596
C45   C     C_3   0.488480 0.176561 0.800807 -0.275350
C46   C     C_R   0.074432 0.183049 0.527251 -0.231413
H1    H     H_    0.278467 0.724013 0.287909 0.108879
H2    H     H_    0.345994 0.262543 0.436269 0.058330
H3    H     H_    0.313787 0.739505 0.164463 0.060235
H4    H     H_    0.170309 0.091098 0.324550 0.145824
H5    H     H_    0.203833 0.075786 0.417866 0.044095
H6    H     H_    0.373270 0.096162 0.365830 0.153239
H7    H     H_    0.493317 0.745434 0.277539 -0.009233
H8    H     H_    0.446591 0.862515 0.184755 0.131754
H9    H     H_    0.329926 0.808556 0.654019 0.038437
H10   H     H_    0.258824 0.708917 0.709060 -0.005009
H11   H     H_    0.491666 0.911021 0.759984 0.053634
H12   H     H_    0.822856 0.391079 0.226725 -0.013571
H13   H     H_    0.277697 0.892559 0.765830 -0.003089
H14   H     H_    0.236135 0.856321 0.200270 0.178314
H15   H     H_    0.954681 0.961475 0.366638 -0.000593
H16   H     H_    0.707584 0.183208 0.667185 -0.021028
H17   H     H_    0.905538 0.165733 0.660513 0.085933
H18   H     H_    0.654086 0.036127 0.726265 -0.050035
H19   H     H_    0.831459 0.999065 0.695996 -0.016810
H20   H     H_    0.474959 0.282493 0.719583 0.039116
H21   H     H_    0.453694 0.229672 0.844697 0.137648
H22   H     H_    0.620178 0.192030 0.804954 0.128847
H23   H     H_    0.945055 0.292465 0.249742 0.123577
H24   H     H_    0.778007 0.794866 0.302633 -0.198861
H25   H     H_    0.448315 0.092803 0.809489 0.161864
H26   H     H_    0.630567 0.048011 0.425619 0.108922
H27   H     H_    0.181192 0.952033 0.576902 0.099075
H28   H     H_    0.124689 0.265938 0.530167 0.069768
H29   H     H_    0.680104 0.736733 0.479010 0.066638
H30   H     H_    0.516095 0.547713 0.820625 0.109793
H31   H     H_    0.133568 0.569552 0.966004 0.073360
H32   H     H_    0.231371 0.581478 0.091724 0.069906
H33   H     H_    0.551910 0.426699 0.911025 0.066390
H34   H     H_    0.918902 0.628669 0.674734 0.051810
H35   H     H_    0.647159 0.437991 0.035779 0.054795
H36   H     H_    0.030821 0.430111 0.864565 0.088029
H37   H     H_    0.131333 0.493077 0.653976 0.057474
H38   H     H_    0.649846 0.543736 0.350861 0.093493
H39   H     H_    0.019526 0.839113 0.387695 0.110883
H40   H     H_    0.122705 0.915220 0.326307 0.148001
H41   H     H_    0.628969 0.318121 0.317275 0.041578
H42   H     H_    0.822261 0.392777 0.349138 -0.008502
H43   H     H_    0.688393 0.273722 0.078980 0.351067
H44   H     H_    0.443951 0.867992 0.957594 0.375312
H45   H     H_    0.781608 0.723631 0.651347 0.076066
H46   H     H_    0.781964 0.961789 0.905299 0.396911
H47   H     H_    0.199041 0.029715 0.721284 0.335969
H48   H     H_    0.005334 0.355790 0.116031 0.358390
H49   H     H_    0.672320 0.983542 0.209671 0.167221
H50   H     H_    0.830077 0.049361 0.274223 0.107412
H51   H     H_    0.681413 0.946014 0.297611 -0.026756
H52   H     H_    0.852519 0.606612 0.046089 0.041703
H53   H     H_    0.867585 0.516245 0.112379 0.028433
H54   H     H_    0.979498 0.648502 0.125946 0.104561
H55   H     H_    0.026743 0.759739 0.781915 0.160315
H56   H     H_    0.819048 0.700909 0.781930 0.128241
H57   H     H_    0.865246 0.834681 0.759119 0.181021
H58   H     H_    0.137802 0.255936 0.398213 -0.028054
O1    O     O_2   0.160820 0.763040 0.533820 -0.453021
O2    O     O_2   0.722247 0.420868 0.747493 -0.537085
O3    O     O_3   0.861856 0.253170 0.753288 -0.523719
O4    O     O_3   0.890970 0.628600 0.535400 -0.495905
O5    O     O_3   0.427530 0.446070 0.416950 -0.508734
O6    O     O_2   0.637430 0.550200 0.669460 -0.482632
O7    O     O_3   0.507400 0.727117 0.689496 -0.649152
O8    O     O_2   0.498451 0.114563 0.541564 -0.509418
O9    O     O_3   0.440635 0.124491 0.674200 -0.672024
O10   O     O_3   0.385950 0.698560 0.408070 -0.494818
O11   O     O_2   0.306950 0.886626 0.452635 -0.490535
O12   O     O_3   0.309546 0.279191 0.328658 -0.556231
O13   O     O_3   0.025515 0.769774 0.646663 -0.662028
O14   O     O_3   0.398774 0.873734 0.324914 -0.623090
O15   O     O_2   0.172860 0.449730 0.330520 -0.452197
O16   O     O_3   0.962080 0.644700 0.373110 -0.504133
O17   O     O_2   0.042114 0.563188 0.249883 -0.463442
O18   O     O_2   0.557374 0.160725 0.216503 -0.254476
O19   O     O_2   0.795952 0.141036 0.151837 -0.278934
O20   O     O_3   0.618936 0.283520 0.118123 -0.481937
O21   O     O_2   0.266575 0.721453 0.857532 -0.367302
O22   O     O_2   0.561944 0.748586 0.853451 -0.310689
O23   O     O_3   0.977557 0.754258 0.250925 -0.600127
O24   O     O_3   0.426130 0.900829 0.912975 -0.432425
O25   O     O_2   0.020983 0.013239 0.825792 -0.229047
O26   O     O_2   0.879325 0.159568 0.866378 -0.208982
O27   O     O_3   0.729301 0.969345 0.857948 -0.486556
O28   O     O_2   0.170063 0.235977 0.806235 -0.245016
O29   O     O_2   0.159004 0.274239 0.681580 -0.420277
O30   O     O_3   0.121117 0.076692 0.706565 -0.553526
O31   O     O_2   0.287730 0.313043 0.085621 -0.226068
O32   O     O_2   0.226235 0.262799 0.200437 -0.209544
O33   O     O_3   0.079331 0.408053 0.149154 -0.567933
O34   O     O_2   0.649470 0.236890 0.466160 -0.470840
O35   O     O_3   0.858645 0.899630 0.231388 -0.618113
O36   O     O_3   0.734307 0.644617 0.133557 -0.623028
O37   O     O_3   0.919320 0.371390 0.464540 -0.495016
O38   O     O_3   0.424350 0.301430 0.591880 -0.466946
O39   O     O_3   0.796892 0.227133 0.352729 -0.648394
O40   O     O_3   0.382770 0.553920 0.582990 -0.463416
O41   O     O_3   0.848220 0.355290 0.626830 -0.485308
P1    P     P_3+3 0.986780 0.745970 0.554690 0.963066
P2    P     P_3+3 0.341450 0.417130 0.341310 1.069851
P3    P     P_3+3 0.920897 0.631354 0.281179 0.949530
P4    P     P_3+3 0.823520 0.254020 0.445250 0.970783
P5    P     P_3+3 0.870969 0.376675 0.719662 1.039045
P6    P     P_3+3 0.433605 0.836947 0.410659 0.938757
P7    P     P_3+3 0.465865 0.588899 0.670883 0.985564
P8    P     P_3+3 0.382074 0.162646 0.590088 0.999832
S1    S     S_3+6 0.694826 0.218999 0.183136 -0.054173
S2    S     S_3+6 0.410995 0.800179 0.848457 -0.058836
S3    S     S_3+6 0.861121 0.054502 0.822047 0.011838
S4    S     S_3+6 0.210265 0.200844 0.733111 -0.110090
S5    S     S_3+6 0.251646 0.355521 0.158013 -0.010851

loop_
_geom_bond_atom_site_label_1
_geom_bond_atom_site_label_2
_ccdc_geom_bond_type
C38   O12   S    
O1    P1    D    
H43   O20   S    
O25   S3    D    
Ba2   O38   S    
C46   H28   S    
C17   C18   A    
O7    P7    S    
C28   H42   S    
C34   H11   S    
H48   O33   S    
C42   H17   S    
C37   H56   S    
C42   H16   S    
C4    H24   S    
Ba2   O6    S    
C24   C25   A    
C44   O9    S    
O24   S2    S    
O16   P3    S    
C22   C24   A    
Ba1   Ba2   S    
C40   H50   S    
C36   C37   S    
C31   H30   S    
C12   H1    S    
C13   C14   A    
H46   O27   S    
O27   S3    S    
C3    H26   S    
C15   S5    S    
C7    C11   A    
Ba1   O16   S    
C45   H21   S    
O2    P5    D    
O30   S4    S    
C11   H27   S    
O23   P3    S    
C6    C7    A    
O40   P7    S    
C43   H19   S    
C21   C22   A    
Ba1   P2    S    
C14   P2    S    
Ba1   O10   S    
O14   P6    S    
C4    O23   S    
C7    C8    A    
O21   S2    D    
C39   H4    S    
O19   S1    D    
C2    C6    A    
C42   O3    S    
O37   P4    S    
O28   S4    D    
O17   P3    D    
O6    P7    D    
C36   H34   S    
Ba2   O37   S    
C35   S1    S    
C9    C46   A    
C6    P1    S    
C23   H9    S    
C28   H41   S    
O4    P1    S    
O5    P2    S    
O22   S2    D    
Ba1   O15   S    
C4    C16   S    
Ba2   O5    S    
O29   S4    D    
C30   C33   A    
C18   O36   S    
O3    P5    S    
C41   H52   S    
C45   H25   S    
C27   H36   S    
C40   H49   S    
C3    C5    A    
C1    H3    S    
C14   C15   A    
C2    C5    A    
O13   P1    S    
C27   C32   A    
O26   S3    D    
C28   C35   S    
O12   P2    S    
H44   O24   S    
C41   H53   S    
C45   H22   S    
C44   H20   S    
Ba1   O37   S    
C23   O7    S    
Ba1   O4    S    
C1    H8    S    
C5    P6    S    
C13   C19   A    
C40   O35   S    
C31   C32   A    
C19   P3    S    
C18   C19   A    
C4    O35   S    
C17   C26   S    
O34   P4    D    
C39   H5    S    
O10   P6    S    
O39   P4    S    
C1    C12   S    
C34   S2    S    
Ba1   O1    S    
C13   H38   S    
C30   P7    S    
C36   O13   S    
C9    P4    S    
C38   C39   S    
O33   S5    S    
C24   H33   S    
C12   O14   S    
C35   H23   S    
O11   P6    D    
C29   C33   A    
C23   H10   S    
C10   P8    S    
C34   H13   S    
O8    P8    D    
C25   C26   A    
C42   C43   S    
C28   O39   S    
C38   H58   S    
C1    H14   S    
Ba2   P4    S    
C37   H57   S    
C44   C45   S    
Ba2   O4    S    
O31   S5    D    
O9    P8    S    
C43   S3    S    
C41   O36   S    
C37   H55   S    
Ba2   O40   S    
C16   H39   S    
Ba2   O34   S    
C30   C31   A    
O38   P8    S    
O18   S1    D    
O41   P5    S    
Ba2   O41   S    
C41   H54   S    
C20   H32   S    
C2    H29   S    
C27   C29   A    
C40   H51   S    
Ba1   O5    S    
C29   P5    S    
C33   H37   S    
C38   H2    S    
C44   S4    S    
C36   H45   S    
C25   H35   S    
H47   O30   S    
C15   C17   A    
C10   C46   A    
O15   P2    D    
C12   H7    S    
C16   H15   S    
C22   C32   S    
C39   H6    S    
C35   H12   S    
C16   H40   S    
C8    C9    A    
C23   C34   S    
O32   S5    D    
C3    C8    A    
Ba1   O40   S    
C10   C11   A    
C43   H18   S    
C20   C21   A    
Ba1   P1    S    
C20   C26   A    
C21   H31   S    
O20   S1    S    
