data_mof_unit_29339.cif
_audit_creation_date              2012-12-11T14:50:28-0500
_audit_creation_method            fapswitch 2.2
_symmetry_space_group_name_H-M    P1
_symmetry_Int_Tables_number       1
_space_group_crystal_system       triclinic
_cell_length_a                    10.911748
_cell_length_b                    10.932063
_cell_length_c                    18.822594
_cell_angle_alpha                 90.34576
_cell_angle_beta                  89.755976
_cell_angle_gamma                 60.269359
_cell_volume                      1949.64661131

loop_
_atom_site_label
_atom_site_type_symbol
_atom_type_description
_atom_site_fract_x
_atom_site_fract_y
_atom_site_fract_z
_atom_type_partial_charge
C1    C     C_R   0.241822 0.644218 0.611029 0.546318
C2    C     C_R   0.550927 0.213754 0.794967 -0.124699
C3    C     C_R   0.538740 0.221889 0.722494 -0.134102
C4    C     C_R   0.652732 0.621367 0.601225 0.566643
C5    C     C_R   0.653789 0.197560 0.679698 0.054593
C6    C     C_R   0.207338 0.545271 0.723002 -0.162397
C7    C     C_R   0.197496 0.548102 0.797009 -0.025732
C8    C     C_R   0.185703 0.665794 0.835176 0.058975
C9    C     C_R   0.200869 0.769033 0.798644 -0.118969
C10   C     C_R   0.207954 0.766465 0.725534 -0.128250
C11   C     C_R   0.209174 0.655957 0.686863 0.024660
C12   C     C_3   0.682550 0.542294 0.798887 -0.136563
C13   C     C_R   0.729359 0.526100 0.271555 -0.124293
C14   C     C_R   0.727762 0.538825 0.198778 -0.127973
C15   C     C_R   0.650616 0.671421 0.167739 0.031715
C16   C     C_R   0.625374 0.233648 0.604669 0.569041
C17   C     C_R   0.562322 0.789137 0.210371 -0.128832
C18   C     C_R   0.559700 0.775063 0.283980 -0.131989
C19   C     C_R   0.647627 0.643997 0.315034 0.034843
C20   C     C_R   0.543176 0.159164 0.287592 -0.136536
C21   C     C_R   0.542927 0.154494 0.214792 -0.138268
C22   C     C_R   0.651105 0.157825 0.176332 0.040614
C23   C     C_3   0.699749 0.673249 0.812122 0.017399
C24   C     C_R   0.756405 0.172137 0.211510 -0.145044
C25   C     C_R   0.755591 0.178691 0.284830 -0.147498
C26   C     C_R   0.646783 0.175948 0.323003 0.038752
C27   C     C_R   0.088329 0.802998 0.305126 -0.133765
C28   C     C_R   0.219369 0.649446 0.402404 0.555763
C29   C     C_R   0.068994 0.815357 0.233052 -0.122374
C30   C     C_R   0.107187 0.695263 0.190594 0.039096
C31   C     C_R   0.152703 0.564342 0.221600 -0.137583
C32   C     C_R   0.174201 0.551401 0.294264 -0.128461
C33   C     C_R   0.149696 0.669859 0.335210 0.033502
C34   C     C_3   0.669325 0.647309 0.676178 0.045236
C35   C     C_R   0.700314 0.106294 0.897354 0.569426
C36   C     C_R   0.723501 0.687796 0.888344 0.556091
C37   C     C_R   0.120635 0.704660 0.906178 0.572161
C38   C     C_R   0.674417 0.107769 0.103929 0.548451
C39   C     C_R   0.694002 0.689972 0.097093 0.549765
C40   C     C_R   0.640211 0.619793 0.390650 0.554419
C41   C     C_R   0.082397 0.715477 0.115458 0.553291
C42   C     C_R   0.617883 0.227902 0.395154 0.557693
C43   C     C_3   0.567362 0.807886 0.783349 -0.239910
C44   C     C_3   0.556441 0.796581 0.702503 -0.236883
C45   C     C_3   0.820854 0.621279 0.689764 -0.093274
C46   C     C_3   0.833206 0.651268 0.769304 -0.118686
C47   C     C_1   0.192086 0.433012 0.831404 0.179294
C48   C     C_1   0.859155 0.769848 0.779977 0.242956
C49   C     C_2   0.869847 0.693246 0.636827 0.221949
C50   C     C_1   0.576260 0.538087 0.846008 0.181261
C51   C     C_3   0.647381 0.538404 0.719961 -0.245912
C52   C     C_R   0.782215 0.166774 0.711714 -0.117883
C53   C     C_R   0.795543 0.154727 0.785777 -0.115710
C54   C     C_R   0.681034 0.170762 0.827307 0.046805
Cr1   Cr    Cr6+3 0.392930 0.397900 0.502230 1.011657
Cr2   Cr    Cr6+3 0.398240 0.708600 0.501260 1.022674
Cr3   Cr    Cr6+3 0.708800 0.393470 0.496460 1.012257
Cr4   Cr    Cr6+3 0.937620 0.938540 0.007640 1.029017
Cr5   Cr    Cr6+3 0.625150 0.937450 0.994520 1.035532
Cr6   Cr    Cr6+3 0.937990 0.625080 0.001190 1.052984
H1    H     H_    0.573059 0.904705 0.795469 0.161526
H2    H     H_    0.195481 0.859135 0.825927 0.134964
H3    H     H_    0.469969 0.820809 0.809558 0.131892
H4    H     H_    0.213136 0.851787 0.699453 0.128504
H5    H     H_    0.794796 0.422709 0.293658 0.131619
H6    H     H_    0.795626 0.446049 0.167180 0.128209
H7    H     H_    0.502123 0.892792 0.187465 0.127296
H8    H     H_    0.492226 0.866343 0.316528 0.120513
H9    H     H_    0.457605 0.156783 0.315792 0.127012
H10   H     H_    0.461427 0.141550 0.189045 0.125864
H11   H     H_    0.842116 0.172791 0.182574 0.116663
H12   H     H_    0.717515 0.430441 0.699228 0.130152
H13   H     H_    0.836840 0.190745 0.311387 0.115739
H14   H     H_    0.065975 0.895631 0.336268 0.128130
H15   H     H_    0.448462 0.817077 0.690117 0.126283
H16   H     H_    0.026589 0.919279 0.210514 0.138520
H17   H     H_    0.176890 0.472226 0.189617 0.123212
H18   H     H_    0.220586 0.447246 0.317103 0.135190
H19   H     H_    0.569300 0.879596 0.675567 0.185328
H20   H     H_    0.784624 0.445698 0.810356 0.119870
H21   H     H_    0.536892 0.559957 0.713398 0.134948
H22   H     H_    0.966522 0.630344 0.606733 0.109883
H23   H     H_    0.927201 0.556888 0.790047 0.114176
H24   H     H_    0.894728 0.506435 0.681208 0.077796
H25   H     H_    0.871245 0.152267 0.679718 0.123973
H26   H     H_    0.897398 0.121476 0.809534 0.132735
H27   H     H_    0.460607 0.228243 0.825362 0.162616
H28   H     H_    0.437197 0.249006 0.700290 0.132846
H29   H     H_    0.212588 0.457253 0.693591 0.110062
N1    N     N_1   0.186821 0.341229 0.858850 -0.319505
N2    N     N_1   0.880498 0.862175 0.787899 -0.284571
N3    N     N_1   0.494458 0.533678 0.883611 -0.313680
O1    O     O_R   0.507430 0.255570 0.581420 -0.521857
O2    O     O_R   0.837200 0.593290 0.915250 -0.515915
O3    O     O_R   0.065330 0.635370 0.931590 -0.489083
O4    O     O_R   0.280190 0.527390 0.578910 -0.519626
O5    O     O_R   0.068300 0.828790 0.091860 -0.528624
O6    O     O_R   0.798730 0.057480 0.079370 -0.514687
O7    O     O_R   0.584680 0.080480 0.076790 -0.524682
O8    O     O_R   0.626790 0.809640 0.067050 -0.504543
O9    O     O_R   0.816010 0.596460 0.076500 -0.520418
O10   O     O_R   0.045680 0.638310 0.081070 -0.502742
O11   O     O_3   0.833590 0.833690 0.001120 -0.259064
O12   O     O_R   0.524460 0.695920 0.424060 -0.497799
O13   O     O_R   0.260310 0.739740 0.584580 -0.523957
O14   O     O_R   0.532250 0.695150 0.573830 -0.506716
O15   O     O_R   0.744930 0.503430 0.576380 -0.538100
O16   O     O_R   0.699250 0.276390 0.571950 -0.511717
O17   O     O_R   0.499020 0.256400 0.419850 -0.525126
O18   O     O_R   0.272400 0.528160 0.429140 -0.509174
O19   O     O_R   0.251910 0.740570 0.423020 -0.517627
O20   O     O_2   0.803571 0.820353 0.627705 -0.510869
O21   O     O_R   0.736530 0.504260 0.414810 -0.526013
O22   O     O_R   0.691460 0.277160 0.422180 -0.507038
O23   O     O_3   0.499990 0.499990 0.499980 -0.256057
O24   O     O_R   0.089490 0.825610 0.930610 -0.517483
O25   O     O_R   0.818370 0.054540 0.929880 -0.496142
O26   O     O_R   0.605870 0.077310 0.915530 -0.521394
O27   O     O_R   0.646440 0.806700 0.917570 -0.504561

loop_
_geom_bond_atom_site_label_1
_geom_bond_atom_site_label_2
_ccdc_geom_bond_type
C27   C29   A    
Cr5   O7    S    
Cr4   O6    S    
C38   O6    A    
C43   H3    S    
C7    C8    A    
Cr3   O23   S    
C37   O24   A    
C13   H5    S    
C53   C54   A    
C27   C33   A    
C12   C23   S    
C26   C42   S    
C34   C51   S    
Cr1   O23   S    
C52   H25   S    
C42   O17   A    
C30   C31   A    
C18   H8    S    
C22   C38   S    
C23   C43   S    
C41   O10   A    
C37   O3    A    
C18   C19   A    
C36   O27   A    
C5    C16   S    
C42   O22   A    
C31   C32   A    
C8    C9    A    
C48   N2    T    
C1    C11   S    
C30   C41   S    
C39   O9    A    
C53   H26   S    
C27   H14   S    
C9    C10   A    
C51   H21   S    
Cr2   O19   S    
C25   H13   S    
Cr1   O1    S    
C23   C46   S    
C21   C22   A    
Cr1   O17   S    
C35   C54   S    
Cr4   O24   S    
Cr5   O8    S    
Cr4   O5    S    
Cr6   O10   S    
C31   H17   S    
C46   C48   S    
C28   O19   A    
C4    O15   A    
C4    C34   S    
C17   H7    S    
C13   C19   A    
C9    H2    S    
C34   C44   S    
C24   C25   A    
Cr2   O12   S    
C2    C54   A    
C6    C11   A    
C29   H16   S    
Cr1   O4    S    
Cr3   O21   S    
C28   O18   A    
C25   C26   A    
C45   C46   S    
C4    O14   A    
Cr4   O25   S    
C7    C47   S    
C49   H22   S    
C44   H15   S    
C43   C44   S    
C29   C30   A    
C40   O12   A    
C40   O21   A    
C45   C49   S    
Cr2   O14   S    
C17   C18   A    
C14   H6    S    
C2    H27   S    
C5    C52   A    
C34   C45   S    
C15   C39   S    
C6    C7    A    
C49   O20   D    
C50   N3    T    
Cr3   O15   S    
C28   C33   S    
Cr5   O26   S    
C10   C11   A    
Cr1   O18   S    
C47   N1    T    
C41   O5    A    
C20   H9    S    
C35   O25   A    
C45   H24   S    
C8    C37   S    
Cr6   O9    S    
Cr6   O11   S    
C12   C51   S    
C52   C53   A    
C43   H1    S    
C15   C17   A    
Cr5   O27   S    
C3    H28   S    
C44   H19   S    
C10   H4    S    
C38   O7    A    
C3    C5    A    
C12   C50   S    
Cr3   O22   S    
C6    H29   S    
C21   H10   S    
C16   O1    A    
C32   C33   A    
C2    C3    A    
Cr5   O11   S    
C39   O8    A    
C20   C26   A    
C1    O4    A    
C12   H20   S    
Cr2   O23   S    
C22   C24   A    
Cr2   O13   S    
C19   C40   S    
C16   O16   A    
C32   H18   S    
C46   H23   S    
Cr6   O3    S    
C36   O2    A    
Cr3   O16   S    
C20   C21   A    
C23   C36   S    
C51   H12   S    
C14   C15   A    
C35   O26   A    
Cr4   O11   S    
C13   C14   A    
C24   H11   S    
C1    O13   A    
Cr6   O2    S    
