data_mof_unit_55579.cif
_audit_creation_date              2013-03-05T16:09:45-0500
_audit_creation_method            fapswitch 2.2
_symmetry_space_group_name_H-M    P1
_symmetry_Int_Tables_number       1
_space_group_crystal_system       triclinic
_cell_length_a                    12.82248
_cell_length_b                    10.705939
_cell_length_c                    9.839603
_cell_angle_alpha                 90.041166
_cell_angle_beta                  97.793671
_cell_angle_gamma                 90.215226
_cell_volume                      1338.26055281

loop_
_atom_site_label
_atom_site_type_symbol
_atom_site_description
_atom_site_fract_x
_atom_site_fract_y
_atom_site_fract_z
_atom_type_partial_charge
O1    O     O_R   0.499990 0.316750 0.614620 -0.619302
O2    O     O_R   0.500010 0.683250 0.385380 -0.619301
O3    O     O_R   0.499990 0.316780 0.385290 -0.630012
O4    O     O_R   0.500010 0.683220 0.614710 -0.630012
C1    C     C_R   0.500004 0.259896 0.499924 0.884817
C2    C     C_R   0.499996 0.740104 0.500076 0.884817
O5    O     O_R   0.346360 0.499970 0.595710 -0.621644
O6    O     O_R   0.653640 0.500030 0.404290 -0.621644
O7    O     O_R   0.346360 0.499990 0.366380 -0.585195
O8    O     O_R   0.653640 0.500010 0.633620 -0.585196
C3    C     C_R   0.298176 0.504139 0.472248 0.939833
C4    C     C_R   0.701824 0.495861 0.527752 0.939832
Zn1   Zn    Zn3+2 0.500000 0.499980 0.653120 0.994569
Zn2   Zn    Zn3+2 0.500000 0.500020 0.346880 0.994569
C5    C     C_R   0.814171 0.487186 0.546036 -0.186860
C6    C     C_R   0.185829 0.512814 0.453964 -0.186861
C7    C     C_R   0.023066 0.610292 0.358139 0.268194
C8    C     C_R   0.976934 0.389708 0.641861 0.268194
C9    C     C_R   0.131490 0.596495 0.359914 0.233384
C10   C     C_R   0.868510 0.403505 0.640086 0.233384
C11   C     C_R   0.134566 0.443060 0.543594 -0.229539
C12   C     C_R   0.865434 0.556940 0.456406 -0.229539
C13   C     C_R   0.028103 0.457659 0.546798 0.015593
C14   C     C_R   0.971897 0.542340 0.453202 0.015592
H1    H     H_    0.819865 0.621014 0.387236 0.203429
H2    H     H_    0.180135 0.378986 0.612764 0.203429
C15   C     C_R   0.472253 0.063755 0.376341 -0.166176
C16   C     C_R   0.527747 0.936245 0.623659 -0.166176
H3    H     H_    0.449806 0.112478 0.280382 0.164409
H4    H     H_    0.550193 0.887522 0.719618 0.164409
C17   C     C_R   0.472147 0.935774 0.376420 -0.140137
C18   C     C_R   0.527853 0.064225 0.623580 -0.140137
H5    H     H_    0.449632 0.886678 0.280505 0.181885
H6    H     H_    0.550368 0.113322 0.719495 0.181885
C19   C     C_R   0.499918 0.872530 0.500075 -0.024655
C20   C     C_R   0.500081 0.127470 0.499925 -0.024655
C21   C     C_R   0.566590 0.576527 0.083709 -0.035452
C22   C     C_R   0.433410 0.423473 0.916291 -0.035452
H7    H     H_    0.619825 0.637723 0.147640 0.145576
H8    H     H_    0.380175 0.362277 0.852360 0.145576
C23   C     C_R   0.566583 0.576456 0.939802 -0.030275
C24   C     C_R   0.433417 0.423544 0.060198 -0.030275
H9    H     H_    0.619801 0.637559 0.894636 0.142737
H10   H     H_    0.380199 0.362441 0.105364 0.142737
N1    N     N_R   0.499970 0.499970 0.857200 -0.089434
N2    N     N_R   0.500030 0.500030 0.142800 -0.089434
Br1   Br    Br    0.794689 0.300438 0.757671 -0.403408
Br2   Br    Br    0.205311 0.699562 0.242329 -0.403408
Br3   Br    Br    0.947356 0.723537 0.226864 -0.412338
Br4   Br    Br    0.052644 0.276463 0.773135 -0.412338

loop_
_geom_bond_atom_site_label_1
_geom_bond_atom_site_label_2
_geom_bond_distance
_ccdc_geom_bond_type
C22   H8    1.081893 S    
O7    Zn2   2.005096 S    
C17   H5    1.083774 S    
C6    C11   1.386369 A    
C15   C20   1.396652 A    
C15   H3    1.083779 S    
C23   H9    1.081843 S    
C3    C6    1.430725 S    
C4    C5    1.430725 S    
O6    C4    1.286946 A    
C13   C14   1.419698 A    
C16   H4    1.083779 S    
C24   H10   1.081843 S    
C5    C12   1.386367 A    
C21   H7    1.081893 S    
O5    C3    1.286945 A    
O7    C3    1.281998 A    
C8    Br4   1.936956 S    
O2    C2    1.281880 A    
O3    Zn2   1.998100 S    
O8    C4    1.281997 A    
C6    C9    1.405517 A    
O1    C1    1.281879 A    
C18   C20   1.396836 A    
C12   C14   1.379221 A    
C7    C9    1.396388 A    
C11   H2    1.082140 S    
C22   C24   1.415978 A    
C8    C10   1.396387 A    
C11   C13   1.379222 A    
C21   C23   1.415978 A    
C5    C10   1.405517 A    
O2    Zn2   1.997622 S    
C17   C19   1.396835 A    
C7    C14   1.413685 A    
O1    Zn1   1.997622 S    
C15   C17   1.370148 A    
C8    C13   1.413685 A    
C10   Br1   1.934736 S    
C1    C20   1.417750 S    
O5    Zn1   1.974428 S    
C2    C19   1.417750 S    
Zn1   N1    2.008119 S    
O4    C2    1.282215 A    
C24   N2    1.366091 A    
C7    Br3   1.936957 S    
O4    Zn1   1.998099 S    
C23   N1    1.366091 A    
C9    Br2   1.934735 S    
C22   N1    1.366455 A    
O6    Zn2   1.974426 S    
Zn2   N2    2.008118 S    
C21   N2    1.366455 A    
C12   H1    1.082140 S    
C16   C18   1.370147 A    
C16   C19   1.396652 A    
O3    C1    1.282215 A    
O8    Zn1   2.005095 S    
C18   H6    1.083775 S    
