data_mof_unit_57374.cif
_audit_creation_date              2013-03-05T16:21:52-0500
_audit_creation_method            fapswitch 2.2
_symmetry_space_group_name_H-M    P1
_symmetry_Int_Tables_number       1
_space_group_crystal_system       triclinic
_cell_length_a                    15.117475
_cell_length_b                    13.922096
_cell_length_c                    10.7727
_cell_angle_alpha                 90.291153
_cell_angle_beta                  91.483793
_cell_angle_gamma                 90.021009
_cell_volume                      2266.50739175

loop_
_atom_site_label
_atom_site_type_symbol
_atom_site_description
_atom_site_fract_x
_atom_site_fract_y
_atom_site_fract_z
_atom_type_partial_charge
O1    O     O_R   0.371460 0.581430 0.500010 -0.597818
O2    O     O_R   0.628540 0.581430 0.499990 -0.584467
O3    O     O_R   0.371470 0.418560 0.500010 -0.593890
O4    O     O_R   0.628530 0.418560 0.499990 -0.579486
C1    C     C_R   0.329998 0.500019 0.499791 0.741442
C2    C     C_R   0.670046 0.500055 0.499018 0.887456
O5    O     O_R   0.500000 0.581450 0.319650 -0.577561
O6    O     O_R   0.500000 0.581450 0.680350 -0.557909
O7    O     O_R   0.500010 0.418580 0.319650 -0.559359
O8    O     O_R   0.499990 0.418580 0.680350 -0.591001
C3    C     C_R   0.500100 0.499680 0.262782 0.865116
C4    C     C_R   0.500112 0.500317 0.737288 0.883743
Cu1   Cu    Cu3+1 0.500000 0.596430 0.500000 0.986826
Cu2   Cu    Cu3+1 0.500000 0.403570 0.500000 0.992035
C5    C     C_R   0.337573 0.531678 0.123930 -0.133829
C6    C     C_R   0.338162 0.535098 0.865135 -0.123020
H1    H     H_    0.334260 0.530326 0.224104 0.115487
H2    H     H_    0.335282 0.536726 0.764801 0.119301
C7    C     C_R   0.259269 0.548545 0.056364 -0.116263
C8    C     C_R   0.259567 0.550268 0.927252 -0.106318
H3    H     H_    0.198129 0.560102 0.104410 0.148415
H4    H     H_    0.198654 0.563185 0.874941 0.152157
C9    C     C_R   0.418433 0.517968 0.931877 0.053178
C10   C     C_R   0.418102 0.516311 0.062691 0.052924
C11   C     C_R   0.498085 0.498499 0.128966 -0.262593
C12   C     C_R   0.498745 0.501427 0.871119 -0.258999
C13   C     C_R   0.577560 0.481606 0.067700 0.257217
C14   C     C_R   0.578099 0.483426 0.938115 0.243657
C15   C     C_R   0.094763 0.580842 0.454745 -0.145459
C16   C     C_R   0.905610 0.583169 0.535056 -0.136854
H5    H     H_    0.059696 0.642851 0.418356 0.149492
H6    H     H_    0.940791 0.646963 0.566408 0.147641
C17   C     C_R   0.186712 0.580696 0.455835 -0.178812
C18   C     C_R   0.813665 0.583018 0.534788 -0.099428
H7    H     H_    0.221119 0.642810 0.420825 0.163014
H8    H     H_    0.779483 0.646970 0.565240 0.172389
C19   C     C_R   0.233532 0.500317 0.499671 -0.037516
C20   C     C_R   0.766627 0.500448 0.497739 -0.018140
C21   C     C_R   0.187574 0.420493 0.543589 -0.187033
C22   C     C_R   0.812542 0.418529 0.459272 -0.111309
H9    H     H_    0.222642 0.358507 0.579995 0.160869
H10   H     H_    0.777532 0.354755 0.427710 0.179393
C23   C     C_R   0.095639 0.420830 0.543125 -0.146837
C24   C     C_R   0.904458 0.418824 0.458979 -0.133787
H11   H     H_    0.061286 0.359093 0.579209 0.147332
H12   H     H_    0.938693 0.355268 0.427376 0.147052
C25   C     C_R   0.048638 0.500887 0.498347 0.098244
C26   C     C_R   0.951594 0.500996 0.497389 0.083015
C27   C     C_R   0.564228 0.104896 0.565457 -0.156757
C28   C     C_R   0.435507 0.104540 0.434143 -0.161087
H13   H     H_    0.615262 0.065607 0.616278 0.155182
H14   H     H_    0.384439 0.064959 0.383199 0.151801
C29   C     C_R   0.563944 0.206673 0.566557 0.294888
C30   C     C_R   0.435986 0.206341 0.433220 0.334041
N1    N     N_R   0.500000 0.258690 0.500000 -0.169130
C31   C     C_R   0.499810 0.052828 0.499796 0.165581
C32   C     C_R   0.433962 0.891962 0.562636 0.216053
C33   C     C_R   0.565724 0.891588 0.437023 0.209543
C34   C     C_R   0.435929 0.790387 0.560232 -0.002995
C35   C     C_R   0.563980 0.790036 0.439679 0.005334
H15   H     H_    0.386571 0.750171 0.609068 0.176590
H16   H     H_    0.613434 0.749541 0.390965 0.183841
N2    N     N_R   0.500000 0.741330 0.500000 -0.225626
C36   C     C_R   0.499784 0.944456 0.499746 -0.128486
N3    N     N_R   0.658687 0.467055 0.137415 0.138986
O9    O     O_R   0.667919 0.392760 0.209305 -0.340892
O10   O     O_R   0.725431 0.524606 0.122949 -0.298109
N4    N     N_R   0.659239 0.466451 0.874664 0.131681
O11   O     O_R   0.686420 0.527311 0.792728 -0.375899
O12   O     O_R   0.708734 0.393076 0.903750 -0.299887
N5    N     N_R   0.365806 0.939588 0.630800 0.131057
O13   O     O_R   0.382200 0.019344 0.690561 -0.338002
O14   O     O_R   0.289786 0.897720 0.645157 -0.352771
N6    N     N_R   0.633811 0.938811 0.368814 0.133730
O15   O     O_R   0.617231 0.017891 0.308712 -0.322524
O16   O     O_R   0.709982 0.897144 0.354812 -0.337698
C37   C     C_3   0.638992 0.252777 0.639724 -0.662873
H17   H     H_    0.618668 0.316614 0.691704 0.273064
H18   H     H_    0.666644 0.203044 0.711139 0.205571
H19   H     H_    0.693672 0.269738 0.577072 0.218544
C38   C     C_3   0.361109 0.252165 0.359899 -0.737509
H20   H     H_    0.381799 0.315118 0.306948 0.253328
H21   H     H_    0.332834 0.201641 0.289206 0.197443
H22   H     H_    0.306627 0.270398 0.422610 0.224279

loop_
_geom_bond_atom_site_label_1
_geom_bond_atom_site_label_2
_geom_bond_distance
_ccdc_geom_bond_type
C16   H6    1.083070 S    
O6    Cu1   1.955070 S    
C1    C19   1.458308 S    
C7    C8    1.391333 A    
C38   H20   1.097946 S    
C21   H9    1.082862 S    
C37   H17   1.096306 S    
C5    C7    1.394112 A    
C28   C30   1.417397 A    
N6    O16   1.301476 A    
C15   C25   1.402721 A    
C35   N2    1.361661 A    
O1    C1    1.294944 A    
C16   C26   1.402549 A    
C7    H3    1.082648 S    
C32   C34   1.414579 A    
C3    C11   1.441094 S    
C33   C35   1.414492 A    
C15   C17   1.389788 A    
C35   H16   1.081573 S    
C9    C12   1.412565 A    
O2    Cu1   1.954468 S    
N4    O11   1.300768 A    
N3    O10   1.301213 A    
C28   H14   1.084221 S    
C9    C10   1.409659 A    
C31   C36   1.508758 S    
O6    C4    1.288055 A    
C37   H18   1.111297 S    
Cu2   N1    2.017032 S    
Cu1   Cu2   2.685017 S    
O2    C2    1.295390 A    
C38   H21   1.111272 S    
C24   H12   1.083094 S    
O5    C3    1.290057 A    
C29   N1    1.393875 A    
C33   C36   1.422107 A    
C19   C21   1.401200 A    
C34   H15   1.081675 S    
N6    O15   1.301225 A    
C16   C18   1.389904 A    
C10   C11   1.410870 A    
O4    C2    1.296627 A    
O8    Cu2   1.953009 S    
N5    O14   1.301550 A    
C21   C23   1.389720 A    
C27   H13   1.084260 S    
C28   C31   1.390532 A    
C4    C12   1.442406 S    
C29   C37   1.506138 S    
O7    Cu2   1.955123 S    
C13   N3    1.436389 S    
C23   H11   1.083093 S    
C25   C26   1.466838 S    
Cu1   N2    2.017312 S    
C22   C24   1.389640 A    
C6    C8    1.394294 A    
C2    C20   1.460496 S    
C32   N5    1.440559 S    
O7    C3    1.287328 A    
O3    Cu2   1.954305 S    
O8    C4    1.289968 A    
C6    H2    1.080973 S    
C5    C10   1.415413 A    
C8    H4    1.082659 S    
C6    C9    1.415334 A    
O1    Cu1   1.954316 S    
C38   H22   1.107439 S    
C33   N6    1.440562 S    
C32   C36   1.422214 A    
C37   H19   1.106774 S    
C5    H1    1.081853 S    
C30   N1    1.394023 A    
C14   N4    1.438638 S    
C18   C20   1.402311 A    
C34   N2    1.361681 A    
O3    C1    1.296019 A    
C11   C13   1.405045 A    
C27   C31   1.390238 A    
C12   C14   1.407142 A    
N5    O13   1.301179 A    
C15   H5    1.083051 S    
C20   C22   1.401743 A    
C27   C29   1.416950 A    
C22   H10   1.082262 S    
C17   H7    1.083390 S    
C18   H8    1.083284 S    
O4    Cu2   1.954151 S    
C17   C19   1.401736 A    
O5    Cu1   1.952965 S    
N4    O12   1.301253 A    
N3    O9    1.300688 A    
C13   C14   1.396566 A    
C23   C25   1.402879 A    
C30   C38   1.507154 S    
C24   C26   1.402511 A    
