data_mof_unit_33997.cif
_audit_creation_date              2013-03-05T15:42:05-0500
_audit_creation_method            fapswitch 2.2
_symmetry_space_group_name_H-M    P1
_symmetry_Int_Tables_number       1
_space_group_crystal_system       triclinic
_cell_length_a                    7.768
_cell_length_b                    8.603802
_cell_length_c                    15.733023
_cell_angle_alpha                 90.346669
_cell_angle_beta                  87.747998
_cell_angle_gamma                 93.672541
_cell_volume                      1048.52974101

loop_
_atom_site_label
_atom_site_type_symbol
_atom_site_description
_atom_site_fract_x
_atom_site_fract_y
_atom_site_fract_z
_atom_type_partial_charge
O1    O     O_R   0.389250 0.738570 0.505570 -0.607383
O2    O     O_R   0.610750 0.261430 0.494430 -0.614023
O3    O     O_R   0.678390 0.711630 0.491020 -0.625249
O4    O     O_R   0.321610 0.288370 0.508980 -0.633041
C1    C     C_R   0.545749 0.794655 0.497750 0.975057
C2    C     C_R   0.454250 0.205353 0.502214 0.960870
O5    O     O_R   0.355460 0.513480 0.630490 -0.620079
O6    O     O_R   0.644540 0.486520 0.369510 -0.616055
O7    O     O_R   0.644600 0.486540 0.615950 -0.623697
O8    O     O_R   0.355400 0.513460 0.384050 -0.608419
C3    C     C_R   0.504849 0.498194 0.661710 0.900575
C4    C     C_R   0.494795 0.499871 0.338322 0.893084
Zn1   Zn    Zn3+2 0.306940 0.517990 0.509710 0.962245
Zn2   Zn    Zn3+2 0.693060 0.482010 0.490290 0.959812
C5    C     C_2   0.569640 0.958211 0.496399 -0.357128
C6    C     C_2   0.430361 0.041812 0.503463 -0.350405
C7    C     C_3   0.431890 0.597375 0.025451 0.172533
C8    C     C_3   0.561849 0.331436 0.973970 0.075356
C9    C     C_3   0.600992 0.584492 0.973900 0.171472
C10   C     C_3   0.391732 0.345029 0.027306 0.109803
C11   C     C_1   0.515207 0.485246 0.749756 -0.142076
C12   C     C_1   0.480818 0.491450 0.250256 -0.135992
C13   C     C_3   0.340371 0.474805 0.968168 0.326096
C14   C     C_3   0.652813 0.453467 0.032736 0.320822
C15   C     C_3   0.511204 0.463517 0.915224 -0.243919
C16   C     C_3   0.481781 0.468756 0.084880 -0.226763
N1    N     N_2   0.950320 0.457950 0.477300 -0.174567
N2    N     N_2   0.049680 0.542050 0.522700 -0.177876
H1    H     H_    0.701155 0.009337 0.489616 0.181194
H2    H     H_    0.298845 0.990693 0.510228 0.183454
C17   C     C_1   0.518983 0.473269 0.824501 0.150934
C18   C     C_1   0.474926 0.481042 0.175452 0.171528
H3    H     H_    0.012585 0.383268 0.437008 0.200001
H4    H     H_    0.987435 0.616851 0.562929 0.198892
N3    N     N_R   0.717394 0.716809 0.947866 0.283665
O9    O     O_R   0.807437 0.792901 0.004342 -0.251110
O10   O     O_R   0.733762 0.758496 0.868518 -0.348923
N4    N     N_R   0.282681 0.211095 0.057292 0.234118
O11   O     O_R   0.196118 0.125165 0.003557 -0.330183
O12   O     O_R   0.286720 0.166728 0.135981 -0.389838
N5    N     N_R   0.359637 0.744178 0.048816 0.289492
O13   O     O_R   0.313470 0.834964 0.989289 -0.207136
O14   O     O_R   0.335072 0.782745 0.128188 -0.327077
N6    N     N_R   0.621568 0.182374 0.944749 0.238908
O15   O     O_R   0.619114 0.066371 0.997383 -0.284546
O16   O     O_R   0.653099 0.157990 0.864201 -0.372330
O17   O     O_3   0.815673 0.466505 0.070413 -0.579102
C19   C     C_3   0.875343 0.320649 0.091582 0.193193
H5    H     H_    0.011149 0.343641 0.109317 0.207096
H6    H     H_    0.878027 0.240792 0.036367 0.183942
C20   C     C_3   0.776851 0.244093 0.168498 -0.452775
H7    H     H_    0.777897 0.327101 0.222777 0.237033
H8    H     H_    0.641599 0.211684 0.152433 0.272873
C21   C     C_3   0.858418 0.096529 0.195653 -0.703288
H9    H     H_    0.868152 0.014047 0.141351 0.324533
H10   H     H_    0.777325 0.038899 0.247534 0.245676
H11   H     H_    0.988819 0.125811 0.219834 0.276550
O18   O     O_3   0.174219 0.497423 0.938562 -0.572224
C22   C     C_3   0.121593 0.380227 0.879852 0.163628
H12   H     H_    0.016602 0.304214 0.910198 0.189556
H13   H     H_    0.225200 0.303425 0.858424 0.158982
C23   C     C_3   0.049399 0.456491 0.802543 -0.337455
H14   H     H_    0.930277 0.514156 0.822420 0.263864
H15   H     H_    0.145258 0.546886 0.776434 0.250033
C24   C     C_3   0.006892 0.337014 0.733137 -0.851661
H16   H     H_    0.125524 0.281689 0.710097 0.264791
H17   H     H_    0.951733 0.395657 0.678839 0.270881
H18   H     H_    0.910865 0.245485 0.757647 0.301781

loop_
_geom_bond_atom_site_label_1
_geom_bond_atom_site_label_2
_geom_bond_distance
_ccdc_geom_bond_type
C15   C17   1.429002 S    
C13   O18   1.414634 S    
N4    O12   1.299878 A    
O7    Zn2   1.998564 S    
Zn1   N2    2.024498 S    
C16   C18   1.427403 S    
C23   H14   1.111032 S    
C20   H7    1.109870 S    
C8    N6    1.457278 S    
Zn2   N1    2.024497 S    
C11   C17   1.182766 T    
N5    O13   1.298839 A    
C12   C18   1.182213 T    
C23   H15   1.110732 S    
N3    O9    1.300183 A    
C24   H17   1.108881 S    
C10   C13   1.539601 S    
O6    C4    1.292170 A    
C20   C21   1.525389 S    
C21   H11   1.109375 S    
C24   H18   1.109540 S    
C19   H6    1.104688 S    
C9    C14   1.545890 S    
C20   H8    1.108127 S    
N2    H4    1.029297 S    
C22   H12   1.107091 S    
C9    N3    1.458102 S    
N1    H3    1.029294 S    
O5    C3    1.292423 A    
N5    O14   1.300111 A    
C7    C13   1.540303 S    
C8    C15   1.548864 S    
C10   C16   1.544585 S    
O3    Zn2   1.986101 S    
C8    C14   1.549525 S    
C7    C16   1.531330 S    
O8    C4    1.287529 A    
C19   H5    1.107080 S    
C7    C9    1.526244 S    
N6    O16   1.299584 A    
C5    H1    1.087655 S    
C8    C10   1.547771 S    
O7    C3    1.287837 A    
N4    O11   1.298799 A    
O2    Zn2   1.964069 S    
O1    C1    1.280506 A    
C1    C5    1.407727 S    
C7    N5    1.454118 S    
O1    Zn1   1.964071 S    
C9    C15   1.538828 S    
C2    C6    1.407584 S    
C5    C6    1.337744 D    
O17   C19   1.411486 S    
C4    C12   1.395119 S    
O5    Zn1   1.952820 S    
C13   C15   1.546916 S    
C10   N4    1.455394 S    
N6    O15   1.299452 A    
O4    C2    1.291455 A    
C24   H16   1.111332 S    
C22   H13   1.114521 S    
N1    N2    1.262936 D    
C21   H9    1.110706 S    
C22   C23   1.528029 S    
O6    Zn2   1.952820 S    
C23   C24   1.526231 S    
N3    O10   1.300146 A    
O18   C22   1.415146 S    
C14   O17   1.415757 S    
C6    H2    1.087624 S    
C3    C11   1.396244 S    
C19   C20   1.534898 S    
O2    C2    1.280451 A    
O4    Zn1   1.986100 S    
C14   C16   1.546255 S    
C21   H10   1.110588 S    
O3    C1    1.291477 A    
O8    Zn1   1.998564 S    
