data_mof_unit_60481.cif
_audit_creation_date              2012-12-11T15:26:39-0500
_audit_creation_method            fapswitch 2.2
_symmetry_space_group_name_H-M    P1
_symmetry_Int_Tables_number       1
_space_group_crystal_system       triclinic
_cell_length_a                    7.448845
_cell_length_b                    11.662096
_cell_length_c                    29.693836
_cell_angle_alpha                 89.967967
_cell_angle_beta                  89.847133
_cell_angle_gamma                 89.872944
_cell_volume                      2579.46224152

loop_
_atom_site_label
_atom_site_type_symbol
_atom_type_description
_atom_site_fract_x
_atom_site_fract_y
_atom_site_fract_z
_atom_type_partial_charge
O1    O     O_R   0.647170 0.849180 0.201220 -0.543008
O2    O     O_R   0.352830 0.150820 0.798780 -0.541042
O3    O     O_R   0.352830 0.150820 0.701220 -0.542981
O4    O     O_R   0.647170 0.849180 0.298780 -0.542131
O5    O     O_R   0.147170 0.650820 0.298780 -0.531349
O6    O     O_R   0.852830 0.349180 0.701220 -0.552990
O7    O     O_R   0.852830 0.349180 0.798780 -0.531159
O8    O     O_R   0.147170 0.650820 0.201220 -0.554033
O9    O     O_R   0.317430 0.862210 0.298450 -0.541894
O10   O     O_R   0.682570 0.137790 0.701550 -0.540294
O11   O     O_R   0.682570 0.137790 0.798450 -0.543390
O12   O     O_R   0.317430 0.862210 0.201550 -0.540300
O13   O     O_R   0.817430 0.637790 0.201550 -0.534126
O14   O     O_R   0.182570 0.362210 0.798450 -0.548056
O15   O     O_R   0.182570 0.362210 0.701550 -0.533607
O16   O     O_R   0.817430 0.637790 0.298450 -0.549258
C1    C     C_R   0.484602 0.884521 0.313729 0.686759
C2    C     C_R   0.514868 0.115342 0.686224 0.675136
C3    C     C_R   0.514931 0.115421 0.813714 0.691981
C4    C     C_R   0.485485 0.884821 0.186312 0.673924
C5    C     C_R   0.985007 0.616518 0.185497 0.732089
C6    C     C_R   0.014713 0.382615 0.814742 0.718129
C7    C     C_R   0.015272 0.383870 0.685612 0.729788
C8    C     C_R   0.985020 0.617452 0.314795 0.723137
O17   O     O_3   0.480630 0.680630 0.250000 -0.389541
O18   O     O_3   0.519370 0.319370 0.750000 -0.388708
O19   O     O_3   0.980630 0.819370 0.250000 -0.392500
O20   O     O_3   0.019370 0.180630 0.750000 -0.393271
V1    V     V_3+5 0.205800 0.762860 0.250000 1.379060
V2    V     V_3+5 0.794200 0.237140 0.750000 1.376292
V3    V     V_3+5 0.705800 0.737140 0.250000 1.383491
V4    V     V_3+5 0.294200 0.262860 0.750000 1.385790
C9    C     C_R   0.992464 0.540878 0.354669 -0.283832
C10   C     C_R   0.008693 0.462120 0.646302 -0.269562
C11   C     C_R   0.006954 0.458827 0.854650 -0.284450
C12   C     C_R   0.992163 0.538821 0.145998 -0.271210
C13   C     C_R   0.494157 0.955637 0.145619 -0.311301
C14   C     C_R   0.506731 0.040722 0.853247 -0.315088
C15   C     C_R   0.507007 0.043988 0.645615 -0.313924
C16   C     C_R   0.490435 0.958460 0.353464 -0.319442
C17   C     C_R   0.974502 0.348668 0.386094 0.479305
C18   C     C_R   0.969476 0.654545 0.616348 0.405338
C19   C     C_R   0.030779 0.649966 0.886531 0.419805
C20   C     C_R   0.028559 0.346423 0.115950 0.403627
C21   C     C_R   0.531020 0.146689 0.114672 0.427814
C22   C     C_R   0.492509 0.844715 0.880469 0.419342
C23   C     C_R   0.468902 0.852388 0.615268 0.426986
C24   C     C_R   0.490407 0.153396 0.381977 0.485665
C25   C     C_R   0.950276 0.423804 0.349638 0.201896
C26   C     C_R   0.957080 0.577277 0.652532 0.189496
C27   C     C_R   0.055312 0.575099 0.850040 0.237794
C28   C     C_R   0.042545 0.423468 0.152088 0.189375
C29   C     C_R   0.530690 0.073233 0.151737 0.225634
C30   C     C_R   0.512600 0.921981 0.844968 0.196210
C31   C     C_R   0.469750 0.926530 0.652099 0.224969
C32   C     C_R   0.475782 0.077458 0.345923 0.196382
C33   C     C_R   0.045676 0.585224 0.397342 0.355479
C34   C     C_R   0.060571 0.421349 0.603060 0.355780
C35   C     C_R   0.951269 0.414551 0.897246 0.354937
C36   C     C_R   0.940625 0.580091 0.102816 0.355411
C37   C     C_R   0.476757 0.908425 0.100938 0.390356
C38   C     C_R   0.490787 0.084743 0.898327 0.392007
C39   C     C_R   0.525460 0.090307 0.600710 0.391596
C40   C     C_R   0.506878 0.913306 0.398388 0.394568
C41   C     C_R   0.063183 0.509857 0.435852 -0.125841
C42   C     C_R   0.066834 0.498257 0.564792 -0.112034
C43   C     C_R   0.933171 0.490046 0.935675 -0.097138
C44   C     C_R   0.931808 0.503300 0.064538 -0.112806
C45   C     C_R   0.452274 0.987446 0.063550 -0.058755
C46   C     C_R   0.454887 0.004633 0.934652 -0.079941
C47   C     C_R   0.549419 0.010370 0.563596 -0.054481
C48   C     C_R   0.541908 0.992664 0.434901 -0.088906
C49   C     C_R   0.039806 0.389867 0.427997 -0.114589
C50   C     C_R   0.028069 0.616682 0.573147 -0.079387
C51   C     C_R   0.956174 0.609623 0.927562 -0.172466
C52   C     C_R   0.969130 0.384581 0.072907 -0.077190
C53   C     C_R   0.469117 0.107466 0.072551 -0.158373
C54   C     C_R   0.453189 0.884830 0.924478 -0.124082
C55   C     C_R   0.530852 0.890622 0.572917 -0.157192
C56   C     C_R   0.539452 0.112639 0.425125 -0.111059
C57   C     C_R   0.090376 0.546374 0.482466 -0.040307
C58   C     C_R   0.097127 0.463709 0.518052 -0.031504
C59   C     C_R   0.905072 0.454474 0.982371 -0.044437
C60   C     C_R   0.899617 0.537797 0.017797 -0.055461
C61   C     C_R   0.425410 0.953527 0.016615 -0.058325
C62   C     C_R   0.430559 0.038083 0.981530 -0.084744
C63   C     C_R   0.576653 0.043400 0.516578 -0.059598
C64   C     C_R   0.568569 0.958739 0.481637 -0.091787
C65   C     C_R   0.140098 0.351417 0.504705 0.298696
C66   C     C_R   0.115511 0.660765 0.495771 0.290672
C67   C     C_R   0.855686 0.650251 0.004211 0.371719
C68   C     C_R   0.879262 0.340337 0.995864 0.287638
C69   C     C_R   0.393172 0.151704 0.994771 0.406715
C70   C     C_R   0.382944 0.840604 0.003111 0.331411
C71   C     C_R   0.603881 0.844818 0.494948 0.404362
C72   C     C_R   0.622227 0.155635 0.502807 0.296911
C73   C     C_R   0.086157 0.311094 0.462203 0.313790
C74   C     C_R   0.055981 0.697591 0.538384 0.325241
C75   C     C_R   0.899071 0.688561 0.960774 0.300725
C76   C     C_R   0.938929 0.303570 0.038379 0.329295
C77   C     C_R   0.424902 0.187909 0.038822 0.333827
C78   C     C_R   0.405835 0.805192 0.958156 0.393656
C79   C     C_R   0.573008 0.809448 0.539232 0.334968
C80   C     C_R   0.593908 0.191815 0.458098 0.380290
O21   O     O_3   0.091288 0.194994 0.452872 -0.613506
H1    H     H_    0.059194 0.152436 0.480666 0.274841
O22   O     O_3   0.038950 0.813593 0.547136 -0.611462
H2    H     H_    0.006817 0.853657 0.518801 0.266508
O23   O     O_3   0.871699 0.803135 0.951120 -0.644411
H3    H     H_    0.816707 0.808420 0.920906 0.326574
O24   O     O_3   0.954448 0.187544 0.047275 -0.609515
H4    H     H_    0.987291 0.147266 0.019012 0.272065
O25   O     O_3   0.411343 0.304023 0.047462 -0.629375
H5    H     H_    0.348105 0.313922 0.076484 0.328249
O26   O     O_3   0.381746 0.691456 0.946572 -0.602594
H6    H     H_    0.273181 0.661884 0.961668 0.288040
O27   O     O_3   0.585179 0.693406 0.548168 -0.630066
H7    H     H_    0.649354 0.683630 0.576991 0.328081
O28   O     O_3   0.620090 0.304974 0.445655 -0.603966
H8    H     H_    0.722107 0.337788 0.462218 0.279799
O29   O     O_3   0.902662 0.619998 0.694001 -0.631290
H9    H     H_    0.892703 0.558799 0.716807 0.298351
O30   O     O_3   0.893219 0.377447 0.309105 -0.623984
H10   H     H_    0.901970 0.433343 0.284260 0.305011
O31   O     O_3   0.096416 0.380243 0.193464 -0.629588
H11   H     H_    0.111937 0.441707 0.215923 0.300775
O32   O     O_3   0.120908 0.620532 0.810087 -0.623355
H12   H     H_    0.103710 0.567153 0.784703 0.301335
O33   O     O_3   0.532620 0.877291 0.801984 -0.624871
H13   H     H_    0.600373 0.930953 0.782627 0.308688
O34   O     O_3   0.564263 0.121000 0.193639 -0.624978
H14   H     H_    0.604549 0.062075 0.215270 0.311114
O35   O     O_3   0.452047 0.124231 0.303376 -0.624447
H15   H     H_    0.400404 0.067557 0.282439 0.310615
O36   O     O_3   0.435862 0.879520 0.694178 -0.624456
H16   H     H_    0.393892 0.938701 0.715525 0.314469
O37   O     O_3   0.933887 0.233129 0.381756 -0.600291
H17   H     H_    0.879627 0.216168 0.352157 0.346292
O38   O     O_3   0.923832 0.768994 0.622344 -0.609485
H18   H     H_    0.874085 0.783261 0.652732 0.345605
O39   O     O_3   0.084000 0.763642 0.883629 -0.626392
H19   H     H_    0.126481 0.782762 0.852968 0.350988
O40   O     O_3   0.073096 0.231769 0.121877 -0.609266
H20   H     H_    0.126009 0.217622 0.151875 0.345644
O41   O     O_3   0.596245 0.257602 0.118417 -0.621869
H21   H     H_    0.655245 0.269389 0.147865 0.347457
O42   O     O_3   0.513197 0.727973 0.872930 -0.600107
H22   H     H_    0.566991 0.712812 0.843017 0.340934
O43   O     O_3   0.402680 0.741787 0.619467 -0.622132
H23   H     H_    0.343165 0.730842 0.648986 0.347125
O44   O     O_3   0.456520 0.269380 0.375791 -0.594127
H24   H     H_    0.395770 0.283442 0.346700 0.339920
O45   O     O_3   0.131879 0.311479 0.601330 -0.526095
C81   C     C_3   0.998073 0.227100 0.596070 0.124638
H25   H     H_    0.005107 0.192551 0.561473 0.185362
H26   H     H_    0.862720 0.259998 0.601992 0.131000
C82   C     C_3   0.030492 0.126113 0.627369 -0.630798
H27   H     H_    0.159247 0.083930 0.618845 0.226359
H28   H     H_    0.032459 0.154623 0.662833 0.233438
H29   H     H_    0.921427 0.062234 0.623260 0.191092
O46   O     O_3   0.112411 0.696248 0.397933 -0.521400
C83   C     C_3   0.975766 0.779543 0.402235 0.128923
H30   H     H_    0.978309 0.815812 0.436572 0.176824
H31   H     H_    0.842951 0.744781 0.396032 0.121344
C84   C     C_3   0.006621 0.879687 0.370485 -0.625504
H32   H     H_    0.002904 0.850455 0.335154 0.234700
H33   H     H_    0.899323 0.944793 0.375361 0.178988
H34   H     H_    0.137187 0.920631 0.377754 0.234371
O47   O     O_3   0.871637 0.690484 0.101307 -0.528199
C85   C     C_3   0.007215 0.773768 0.096081 0.118106
H35   H     H_    0.005115 0.806492 0.061141 0.200148
H36   H     H_    0.141242 0.740436 0.103152 0.130716
C86   C     C_3   0.972361 0.876216 0.126483 -0.626099
H37   H     H_    0.844598 0.918278 0.117059 0.228156
H38   H     H_    0.966751 0.849065 0.162134 0.232553
H39   H     H_    0.082169 0.939673 0.122468 0.190584
O48   O     O_3   0.883513 0.303771 0.897823 -0.522903
C87   C     C_3   0.019407 0.220093 0.902345 0.136243
H40   H     H_    0.014449 0.183352 0.936607 0.178638
H41   H     H_    0.152743 0.254697 0.896593 0.120218
C88   C     C_3   0.990455 0.120419 0.870339 -0.637370
H42   H     H_    0.996506 0.150118 0.835074 0.236743
H43   H     H_    0.097401 0.055216 0.875388 0.178982
H44   H     H_    0.859466 0.079376 0.877190 0.228337
O49   O     O_3   0.545037 0.196603 0.909898 -0.500018
C89   C     C_3   0.503343 0.286870 0.879284 0.250315
H45   H     H_    0.380990 0.272407 0.860050 0.068209
H46   H     H_    0.614145 0.297915 0.855021 0.164421
C90   C     C_3   0.477448 0.401661 0.903390 -0.549264
H47   H     H_    0.487941 0.472629 0.878565 0.184017
H48   H     H_    0.342829 0.407520 0.919105 0.177406
H49   H     H_    0.579544 0.415138 0.929677 0.280892
O50   O     O_3   0.518720 0.793414 0.090588 -0.513398
C91   C     C_3   0.486499 0.707691 0.123694 0.224474
H50   H     H_    0.602268 0.702210 0.146310 0.186591
H51   H     H_    0.364735 0.723063 0.143499 0.083413
C92   C     C_3   0.464807 0.588468 0.102989 -0.629679
H52   H     H_    0.565483 0.572176 0.076360 0.284737
H53   H     H_    0.481797 0.522326 0.129590 0.187370
H54   H     H_    0.328704 0.577320 0.088751 0.165685
O51   O     O_3   0.452875 0.801264 0.409753 -0.498793
C93   C     C_3   0.493251 0.711487 0.378843 0.248951
H55   H     H_    0.615692 0.725608 0.359440 0.068890
H56   H     H_    0.382141 0.701486 0.354781 0.165541
C94   C     C_3   0.517827 0.596314 0.402749 -0.548707
H57   H     H_    0.503724 0.525532 0.378003 0.183394
H58   H     H_    0.653424 0.589144 0.417691 0.174967
H59   H     H_    0.417337 0.584000 0.429677 0.282344
O52   O     O_3   0.486167 0.205520 0.589871 -0.514761
C95   C     C_3   0.517017 0.291217 0.622998 0.219583
H60   H     H_    0.400670 0.296546 0.645644 0.186654
H61   H     H_    0.638599 0.275814 0.642763 0.084122
C96   C     C_3   0.538975 0.410597 0.602347 -0.628194
H62   H     H_    0.437035 0.427835 0.576254 0.288652
H63   H     H_    0.524068 0.476415 0.629142 0.187441
H64   H     H_    0.674390 0.421472 0.587508 0.162848
O53   O     O_3   0.269555 0.292907 0.528262 -0.593286
H65   H     H_    0.291214 0.216888 0.514772 0.312034
O54   O     O_3   0.235737 0.726957 0.472228 -0.580734
H66   H     H_    0.255780 0.800944 0.487575 0.313408
O55   O     O_3   0.733500 0.711689 0.029085 -0.593922
H67   H     H_    0.731998 0.792876 0.019442 0.335320
O56   O     O_3   0.759289 0.274159 0.972425 -0.581958
H68   H     H_    0.739600 0.200008 0.987718 0.315309
O57   O     O_3   0.307841 0.223981 0.965305 -0.652492
H69   H     H_    0.259731 0.292441 0.980921 0.296048
O58   O     O_3   0.299102 0.768521 0.032720 -0.659918
H70   H     H_    0.343765 0.689790 0.027648 0.314946
O59   O     O_3   0.686167 0.771263 0.465323 -0.651389
H71   H     H_    0.732662 0.702274 0.480851 0.297504
O60   O     O_3   0.711205 0.225959 0.531934 -0.666849
H72   H     H_    0.665274 0.304774 0.528070 0.314409

loop_
_geom_bond_atom_site_label_1
_geom_bond_atom_site_label_2
_ccdc_geom_bond_type
O17   V3    S    
C91   H51   S    
C63   C64   A    
C43   C59   A    
C84   H32   S    
O12   V1    S    
C46   C54   A    
C77   O25   S    
O47   C85   S    
C53   C77   A    
O24   H4    S    
C23   C55   A    
C40   O51   S    
C19   C27   A    
C47   C55   A    
O41   H21   S    
O30   H10   S    
C50   C74   A    
C5    C12   S    
C96   H62   S    
O16   V3    S    
C49   C73   A    
C6    C11   S    
O11   C3    A    
C82   H27   S    
C58   C65   A    
C93   H56   S    
O12   C4    A    
C56   C80   A    
C59   C60   A    
C21   O41   S    
O8    V1    S    
C94   H59   S    
C28   O31   S    
C11   C35   A    
C34   O45   S    
C83   H30   S    
C61   C62   A    
C87   H40   S    
C96   H64   S    
C91   C92   S    
C54   C78   A    
C85   H35   S    
C9    C25   A    
O26   H6    S    
C25   O30   S    
O1    V3    S    
C41   C49   A    
O19   V1    S    
C38   C46   A    
O3    C2    A    
O2    V4    S    
O51   C93   S    
C72   O60   S    
C75   O23   S    
C92   H53   S    
O56   H68   S    
C78   O26   S    
C35   C43   A    
C45   C53   A    
C34   C42   A    
C15   C31   A    
O42   H22   S    
O11   V2    S    
O15   V4    S    
C16   C32   A    
C93   C94   S    
O44   H24   S    
C29   O34   S    
C60   C67   A    
C67   O55   S    
C17   O37   S    
C12   C28   A    
O9    V1    S    
O4    V3    S    
C80   O28   S    
C13   C29   A    
C20   C28   A    
O15   C7    A    
C91   H50   S    
C18   O38   S    
C64   C71   A    
C21   C29   A    
O16   C8    A    
O7    V2    S    
C86   H37   S    
O50   C91   S    
C55   C79   A    
C84   H33   S    
C79   O27   S    
C26   O29   S    
C39   O52   S    
C17   C25   A    
C48   C64   A    
O59   H71   S    
C71   C79   A    
C32   O35   S    
O5    V1    S    
C86   H38   S    
C19   C51   A    
C18   C50   A    
C10   C26   A    
C93   H55   S    
C90   H49   S    
C44   C60   A    
C23   O43   S    
C52   C76   A    
O36   H16   S    
C81   C82   S    
O52   C95   S    
C88   H43   S    
C69   C77   A    
O54   H66   S    
C22   C54   A    
O18   V4    S    
O53   H65   S    
C88   H42   S    
C17   C49   A    
C57   C58   A    
C74   O22   S    
C65   C73   A    
C1    C16   S    
C92   H54   S    
C2    C15   S    
C22   O42   S    
O55   H67   S    
C59   C68   A    
C62   C69   A    
C42   C58   A    
C83   C84   S    
C61   C70   A    
O10   V2    S    
C41   C57   A    
O58   H70   S    
C14   C30   A    
C35   O48   S    
O28   H8    S    
C7    C10   S    
C63   C72   A    
C22   C30   A    
C51   C75   A    
O57   H69   S    
C81   H25   S    
O13   C5    A    
O3    V4    S    
C20   C52   A    
C70   C78   A    
C66   O54   S    
C70   O58   S    
C18   C26   A    
C38   O49   S    
C47   C63   A    
O4    C1    A    
O9    C1    A    
O6    V2    S    
C39   C47   A    
C95   H60   S    
C84   H34   S    
C95   H61   S    
C72   C80   A    
C11   C27   A    
O31   H11   S    
C19   O39   S    
C43   C51   A    
C57   C66   A    
O22   H2    S    
C89   H46   S    
O32   H12   S    
C46   C62   A    
C37   O50   S    
C45   C61   A    
C13   C37   A    
C68   C76   A    
C23   C31   A    
O25   H5    S    
O37   H17   S    
C88   H44   S    
C37   C45   A    
C90   H47   S    
C24   C32   A    
C30   O33   S    
C94   H57   S    
O1    C4    A    
C9    C33   A    
O2    C3    A    
C81   H26   S    
O13   V3    S    
C68   O56   S    
C71   O59   S    
C33   C41   A    
C12   C36   A    
O34   H14   S    
O8    C5    A    
C95   C96   S    
C87   H41   S    
O38   H18   S    
O29   H9    S    
C82   H29   S    
C44   C52   A    
O7    C6    A    
C15   C39   A    
O21   H1    S    
O27   H7    S    
C8    C9    S    
C16   C40   A    
C27   O32   S    
C24   C56   A    
C89   C90   S    
O20   V2    S    
O33   H13   S    
C96   H63   S    
C73   O21   S    
C48   C56   A    
C83   H31   S    
O46   C83   S    
O39   H19   S    
C4    C13   S    
O14   C6    A    
O49   C89   S    
O35   H15   S    
O5    C8    A    
C85   H36   S    
O10   C2    A    
C20   O40   S    
C31   O36   S    
O6    C7    A    
C86   H39   S    
C33   O46   S    
C40   C48   A    
C92   H52   S    
C89   H45   S    
C87   C88   S    
C65   O53   S    
C69   O57   S    
C3    C14   S    
O14   V4    S    
C36   C44   A    
C76   O24   S    
C82   H28   S    
O48   C87   S    
C24   O44   S    
O23   H3    S    
O60   H72   S    
C10   C34   A    
C36   O47   S    
C21   C53   A    
C67   C75   A    
O45   C81   S    
O43   H23   S    
C94   H58   S    
C66   C74   A    
O40   H20   S    
C90   H48   S    
C14   C38   A    
C85   C86   S    
C42   C50   A    
