data_mof_unit_11437.cif
_audit_creation_date              2013-03-05T15:50:15-0500
_audit_creation_method            fapswitch 2.2
_symmetry_space_group_name_H-M    P1
_symmetry_Int_Tables_number       1
_space_group_crystal_system       triclinic
_cell_length_a                    8.290527
_cell_length_b                    14.275309
_cell_length_c                    17.307215
_cell_angle_alpha                 92.107685
_cell_angle_beta                  95.486055
_cell_angle_gamma                 91.425399
_cell_volume                      2036.71429657

loop_
_atom_site_label
_atom_site_type_symbol
_atom_site_description
_atom_site_fract_x
_atom_site_fract_y
_atom_site_fract_z
_atom_type_partial_charge
P1    P     P_3+3 0.940740 0.713140 0.550990 0.467161
O1    O     O_2   0.110000 0.727700 0.527600 -0.382366
O2    O     O_3   0.867340 0.611500 0.534090 -0.399477
O3    O     O_3   0.340010 0.670810 0.392610 -0.406411
O4    O     O_2   0.228763 0.836828 0.434676 -0.391872
O5    O     O_3   0.965210 0.738010 0.651209 -0.538585
O6    O     O_3   0.303462 0.822955 0.291797 -0.491779
H1    H     H_    0.300825 0.691588 0.236821 0.125075
C1    C     C_3   0.375517 0.799571 0.161461 -0.099986
H2    H     H_    0.431036 0.871532 0.167779 0.162733
P2    P     P_3+3 0.347910 0.426910 0.329700 0.614176
P3    P     P_3+3 0.888011 0.626341 0.255512 0.593116
O7    O     O_2   0.172060 0.454990 0.316770 -0.336692
O8    O     O_3   0.924740 0.623930 0.356360 -0.386479
O9    O     O_2   0.017635 0.565379 0.221196 -0.305003
O10   O     O_3   0.333371 0.304223 0.317024 -0.457735
O11   O     O_3   0.933254 0.740272 0.228634 -0.449230
C2    C     C_3   0.881792 0.803761 0.284598 0.403170
H3    H     H_    0.965505 0.803648 0.338623 0.143276
H4    H     H_    0.756959 0.786543 0.298454 -0.008490
C3    C     C_3   0.882329 0.901866 0.253605 -0.726984
H5    H     H_    0.006905 0.923356 0.241774 0.317246
C4    C     C_3   0.818011 0.256466 0.284630 0.999039
C5    C     C_3   0.749678 0.162282 0.247248 -0.874773
H6    H     H_    0.660695 0.130385 0.282841 0.208070
H7    H     H_    0.690851 0.171306 0.187679 0.273479
H8    H     H_    0.848672 0.112096 0.242579 0.280320
Ba1   Ba    Ba6+2 0.148060 0.545480 0.461240 1.656372
C6    C     C_3   0.021219 0.659613 0.690335 0.368094
H9    H     H_    0.138589 0.639103 0.670561 0.076947
H10   H     H_    0.932337 0.599972 0.680693 0.121202
C7    C     C_3   0.043890 0.685973 0.776739 -0.798545
H11   H     H_    0.140138 0.741596 0.788463 0.287275
H12   H     H_    0.078829 0.624320 0.810610 0.188246
H13   H     H_    0.928703 0.712135 0.796152 0.282849
C8    C     C_3   0.313904 0.262719 0.388063 0.289954
H14   H     H_    0.189366 0.272465 0.403120 0.069308
H15   H     H_    0.399315 0.292799 0.436258 0.091348
C9    C     C_3   0.349132 0.158456 0.381287 -0.100832
H16   H     H_    0.345036 0.126223 0.438312 0.068711
H17   H     H_    0.473422 0.150943 0.364440 0.093152
P4    P     P_3+3 0.869550 0.286850 0.448950 0.534608
O12   O     O_2   0.700300 0.272240 0.472380 -0.395528
O13   O     O_3   0.942950 0.388490 0.465850 -0.348280
O14   O     O_3   0.470280 0.329180 0.607330 -0.330545
O15   O     O_3   0.901870 0.235985 0.356521 -0.645896
P5    P     P_3+3 0.913380 0.378212 0.745695 0.552022
O16   O     O_3   0.377250 0.547380 0.588690 -0.416988
O17   O     O_3   0.885550 0.376060 0.643580 -0.347787
O18   O     O_2   0.784050 0.443034 0.774824 -0.315559
O19   O     O_3   0.851887 0.266900 0.773134 -0.436794
Ba2   Ba    Ba6+2 0.662110 0.454510 0.538700 1.659202
P6    P     P_3+3 0.359077 0.792791 0.387670 0.460900
C10   C     C_3   0.372354 0.758816 0.241659 0.275600
H18   H     H_    0.499484 0.744478 0.262708 -0.042501
O20   O     O_3   0.433040 0.452610 0.411250 -0.398084
C11   C     C_3   0.509499 0.739280 0.626421 0.368943
H19   H     H_    0.628100 0.714156 0.611079 0.093514
H20   H     H_    0.414236 0.720796 0.578375 0.123586
C12   C     C_3   0.519556 0.845422 0.636697 -0.797696
H21   H     H_    0.544374 0.877713 0.581806 0.187600
H22   H     H_    0.402145 0.871280 0.653297 0.274759
P7    P     P_3+3 0.459106 0.578756 0.683306 0.461252
O21   O     O_2   0.638240 0.544950 0.683210 -0.346158
O22   O     O_3   0.471423 0.700961 0.696163 -0.543949
H23   H     H_    0.839525 0.951892 0.297285 0.202683
C13   C     C_3   0.965177 0.234650 0.830943 0.123483
H24   H     H_    0.086822 0.230980 0.809737 0.068431
H25   H     H_    0.969622 0.281702 0.883562 0.096726
C14   C     C_3   0.911266 0.136648 0.854105 0.341957
H26   H     H_    0.794208 0.144435 0.879276 0.053849
P8    P     P_3+3 0.447475 0.207260 0.613895 0.530767
C15   C     C_3   0.404231 0.181845 0.759946 0.551620
O23   O     O_2   0.564727 0.163085 0.559733 -0.391709
O24   O     O_3   0.521835 0.170719 0.706326 -0.476725
H27   H     H_    0.331288 0.113228 0.861994 0.156185
C16   C     C_3   0.416058 0.101519 0.817037 -0.062712
H28   H     H_    0.539538 0.101224 0.847453 0.136254
C17   C     C_R   0.008122 0.940166 0.541973 -0.054591
C18   C     C_R   0.820944 0.804187 0.497920 0.243764
C19   C     C_R   0.672957 0.773594 0.458373 -0.541181
C20   C     C_R   0.563040 0.836931 0.425933 0.259336
C21   C     C_R   0.605562 0.932404 0.426806 -0.312905
C22   C     C_R   0.755376 0.966159 0.464093 0.050979
C23   C     C_R   0.863189 0.902642 0.501936 -0.023672
H29   H     H_    0.638411 0.699905 0.456876 0.172541
C24   C     C_R   0.938223 0.101365 0.507306 0.046070
C25   C     C_R   0.047175 0.037322 0.543583 0.106958
C26   C     C_R   0.979650 0.200507 0.512162 0.316758
C27   C     C_R   0.128054 0.230542 0.551453 -0.476509
C28   C     C_R   0.240041 0.165935 0.580262 0.140685
C29   C     C_R   0.198943 0.070431 0.577884 -0.187799
C30   C     C_R   0.795070 0.063190 0.465712 -0.076469
H30   H     H_    0.519814 0.980397 0.400206 0.162025
H31   H     H_    0.288156 0.021722 0.600356 0.156884
H32   H     H_    0.093080 0.894463 0.571881 0.167731
H33   H     H_    0.509575 0.572543 0.854290 0.163254
C31   C     C_R   0.580583 0.552525 0.277272 -0.420765
C32   C     C_R   0.441513 0.496322 0.255794 0.376484
C33   C     C_R   0.384464 0.485278 0.177077 -0.190975
C34   C     C_R   0.472100 0.524375 0.120020 -0.126439
C35   C     C_R   0.623702 0.570746 0.141636 0.228163
C36   C     C_R   0.679444 0.582801 0.221223 0.107388
C37   C     C_R   0.399977 0.531890 0.835116 -0.156996
C38   C     C_R   0.352762 0.518005 0.755659 0.300981
C39   C     C_R   0.113322 0.429556 0.783910 0.138062
C40   C     C_R   0.156826 0.446844 0.863926 -0.177338
C41   C     C_R   0.303652 0.494758 0.889589 0.096804
C42   C     C_1   0.357212 0.505537 0.971433 0.097787
C43   C     C_1   0.407515 0.514045 0.039318 0.170762
C44   C     C_R   0.214031 0.463568 0.730517 -0.412576
H34   H     H_    0.076975 0.424804 0.906054 0.151865
H35   H     H_    0.274427 0.443986 0.160217 0.203355
H36   H     H_    0.621829 0.563614 0.338230 0.187818
H37   H     H_    0.178023 0.453541 0.668941 0.143482
N1    N     N_R   0.212524 0.801686 0.121730 0.298707
O25   O     O_R   0.148544 0.881385 0.104252 -0.261742
O26   O     O_R   0.137319 0.723792 0.096594 -0.301145
N2    N     N_R   0.233780 0.108882 0.324375 0.298148
O27   O     O_R   0.278641 0.082338 0.257162 -0.292617
O28   O     O_R   0.099953 0.074105 0.346344 -0.418128
H38   H     H_    0.452024 0.755969 0.125901 0.091182
H39   H     H_    0.618804 0.866842 0.681994 0.310195
N3    N     N_R   0.887098 0.069791 0.787004 0.273009
O29   O     O_R   0.927758 0.091367 0.718883 -0.351615
O30   O     O_R   0.819916 0.987872 0.795098 -0.299540
N4    N     N_R   0.027910 0.101438 0.914547 0.214968
O31   O     O_R   0.057980 0.148670 0.980335 -0.335667
O32   O     O_R   0.089662 0.019038 0.906797 -0.274751
H40   H     H_    0.278006 0.180132 0.731861 -0.030742
N5    N     N_R   0.434570 0.271189 0.803702 0.197709
O33   O     O_R   0.519419 0.337472 0.776167 -0.307297
O34   O     O_R   0.378799 0.285221 0.870848 -0.459630
N6    N     N_R   0.376213 0.010185 0.778741 0.260200
O35   O     O_R   0.231317 0.992832 0.744711 -0.365238
O36   O     O_R   0.469379 0.940362 0.795449 -0.313263
H41   H     H_    0.163620 0.304072 0.552697 0.151635
H42   H     H_    0.711868 0.108164 0.434431 0.134097
N7    N     N_R   0.720409 0.604040 0.083306 0.254079
O37   O     O_R   0.764320 0.692142 0.083601 -0.318204
O38   O     O_R   0.753865 0.548165 0.026272 -0.352179
H43   H     H_    0.800102 0.903703 0.199146 0.250961
N8    N     N_R   0.688230 0.321474 0.290873 0.183183
O39   O     O_R   0.579203 0.323079 0.231683 -0.416381
O40   O     O_R   0.720790 0.398315 0.332312 -0.417823
N9    N     N_R   0.934743 0.294679 0.234308 0.228609
O41   O     O_R   0.907997 0.372480 0.198896 -0.345301
O42   O     O_R   0.058796 0.246080 0.218301 -0.299247

loop_
_geom_bond_atom_site_label_1
_geom_bond_atom_site_label_2
_geom_bond_distance
_ccdc_geom_bond_type
C14   N4    1.466806 S    
C24   C25   1.421545 A    
C15   N5    1.462876 S    
C34   C35   1.417158 A    
C3    H23   1.109795 S    
C2    C3    1.518057 S    
N7    O38   1.301138 A    
C40   H34   1.080586 S    
C5    H8    1.109522 S    
C37   C41   1.402572 A    
P7    O22   1.749714 S    
C19   C20   1.394138 A    
Ba1   O20   2.924126 S    
P5    O17   1.759348 S    
C16   H28   1.105652 S    
N1    O25   1.300742 A    
C18   C23   1.437549 A    
C21   C22   1.409035 A    
O4    P6    1.545473 D    
O2    Ba1   2.911547 S    
C5    H7    1.110919 S    
C3    H43   1.110688 S    
P1    O1    1.508807 D    
C6    C7    1.521362 S    
O3    P6    1.750526 S    
O12   Ba2   2.842308 S    
C11   H20   1.110305 S    
C39   C40   1.408459 A    
N8    O39   1.301036 A    
C41   C42   1.444863 S    
P2    C32   1.861433 S    
C2    H3    1.109960 S    
P4    O15   1.778835 S    
C37   C38   1.398846 A    
C30   H42   1.075777 S    
C15   H40   1.110207 S    
C25   C29   1.402114 A    
P3    O11   1.749554 S    
P1    Ba1   3.396632 S    
C40   C41   1.407011 A    
O7    Ba1   2.798298 S    
C14   H26   1.107528 S    
P7    C38   1.830420 S    
C1    H2    1.112512 S    
C19   H29   1.082063 S    
C35   N7    1.434905 S    
P5    C39   1.848417 S    
C38   C44   1.396809 A    
C4    O15   1.410105 S    
C3    H5    1.109961 S    
O14   P8    1.755014 S    
C15   O24   1.416652 S    
C4    N8    1.447443 S    
P4    O13   1.565859 S    
P8    O24   1.760704 S    
C17   C25   1.415023 A    
O3    Ba1   2.742328 S    
C1    H38   1.111135 S    
P5    O18   1.542231 D    
N9    O42   1.300628 A    
C39   C44   1.395403 A    
N2    O28   1.299680 A    
C4    N9    1.470559 S    
C13   H24   1.107471 S    
C7    H13   1.110939 S    
C5    H6    1.105369 S    
P3    C36   1.857846 S    
P8    O23   1.543556 D    
Ba2   O21   2.798423 S    
H1    C10   1.111743 S    
C28   C29   1.395212 A    
P8    C28   1.837719 S    
O16   P7    1.749605 S    
P5    O19   1.752681 S    
O14   Ba2   2.741725 S    
C34   C43   1.448170 S    
C21   H30   1.082389 S    
Ba1   O13   2.787455 S    
C29   H31   1.082707 S    
P1    O5    1.749165 S    
P6    C20   1.843125 S    
P1    O2    1.565860 S    
C7    H12   1.104670 S    
C12   H39   1.109788 S    
N4    O32   1.302002 A    
C6    H9    1.104616 S    
C44   H37   1.082208 S    
P2    O10   1.756769 S    
C32   C33   1.400665 A    
P3    O9    1.547739 D    
O16   Ba2   2.923283 S    
N7    O37   1.300275 A    
O17   Ba2   2.755063 S    
O11   C2    1.405448 S    
O19   C13   1.403869 S    
C22   C23   1.422008 A    
N2    O27   1.300938 A    
P3    O8    1.744604 S    
C20   C21   1.398428 A    
C24   C26   1.445544 A    
P4    O12   1.509068 D    
O6    P6    1.751400 S    
N5    O33   1.296699 A    
C17   C23   1.411501 A    
C27   H41   1.082098 S    
N3    O30   1.300754 A    
N9    O41   1.301784 A    
C13   H25   1.108707 S    
N8    O40   1.296482 A    
C10   H18   1.108275 S    
Ba1   O16   2.769177 S    
C1    N1    1.457955 S    
C8    C9    1.526323 S    
C33   H35   1.083757 S    
C11   O22   1.403081 S    
C18   C19   1.398303 A    
N5    O34   1.301782 A    
N6    O36   1.300190 A    
O2    Ba2   2.788043 S    
N6    O35   1.300174 A    
Ba1   Ba2   4.540400 S    
C13   C14   1.536906 S    
C7    H11   1.110883 S    
P4    C26   1.874445 S    
C8    H15   1.107768 S    
C26   C27   1.397259 A    
C17   H32   1.080592 S    
C6    H10   1.109285 S    
C42   C43   1.209281 T    
O10   C8    1.405515 S    
C12   H22   1.108992 S    
H27   C16   1.108196 S    
P2    O7    1.519700 D    
O13   Ba2   2.912392 S    
C27   C28   1.396103 A    
Ba2   O20   2.768571 S    
P2    Ba1   3.371996 S    
C9    N2    1.456203 S    
C24   C30   1.413980 A    
C33   C34   1.404311 A    
N1    O26   1.300968 A    
C2    H4    1.108211 S    
C22   C30   1.414363 A    
C35   C36   1.413283 A    
H33   C37   1.083716 S    
C31   H36   1.082165 S    
C4    C5    1.541179 S    
P7    O21   1.573070 D    
C9    H16   1.107227 S    
C14   N3    1.471122 S    
C11   C12   1.518383 S    
O5    C6    1.395759 S    
C9    H17   1.104063 S    
C8    H14   1.099648 S    
C31   C32   1.400474 A    
C16   N6    1.456544 S    
N4    O31   1.301568 A    
P1    C18   1.869998 S    
C15   C16   1.539871 S    
C12   H21   1.105539 S    
O1    Ba1   2.841740 S    
C1    C10   1.526875 S    
O6    C10   1.407086 S    
O8    Ba1   2.754446 S    
C11   H19   1.107435 S    
P2    O20   1.543807 S    
C31   C36   1.401721 A    
P4    Ba2   3.397196 S    
N3    O29   1.302323 A    
