data_mof_unit_49213.cif
_audit_creation_date              2013-03-05T15:45:59-0500
_audit_creation_method            fapswitch 2.2
_symmetry_space_group_name_H-M    P1
_symmetry_Int_Tables_number       1
_space_group_crystal_system       triclinic
_cell_length_a                    18.765685
_cell_length_b                    11.090648
_cell_length_c                    18.833824
_cell_angle_alpha                 89.955427
_cell_angle_beta                  89.594516
_cell_angle_gamma                 90.266579
_cell_volume                      3919.62150797

loop_
_atom_site_label
_atom_site_type_symbol
_atom_site_description
_atom_site_fract_x
_atom_site_fract_y
_atom_site_fract_z
_atom_type_partial_charge
O1    O     O_R   0.787510 0.042610 0.670410 -0.534052
O2    O     O_R   0.212490 0.042610 0.329590 -0.509593
O3    O     O_R   0.287510 0.542610 0.670410 -0.525828
O4    O     O_R   0.712490 0.542610 0.329590 -0.522284
O5    O     O_R   0.765670 0.292090 0.675090 -0.544790
O6    O     O_R   0.234330 0.292090 0.324910 -0.498263
O7    O     O_R   0.265670 0.792090 0.675090 -0.543181
O8    O     O_R   0.734330 0.792090 0.324910 -0.529445
C1    C     C_R   0.732914 0.384306 0.649634 0.563942
C2    C     C_R   0.267604 0.382001 0.351170 0.536833
C3    C     C_R   0.232649 0.884399 0.649538 0.561699
C4    C     C_R   0.767177 0.883964 0.350392 0.532408
O9    O     O_R   0.670220 0.409020 0.668560 -0.488561
O10   O     O_R   0.329780 0.409020 0.331440 -0.484231
O11   O     O_R   0.170220 0.909020 0.668560 -0.486789
O12   O     O_R   0.829780 0.909020 0.331440 -0.484505
O13   O     O_R   0.556580 0.251590 0.674980 -0.505580
O14   O     O_R   0.443420 0.251590 0.325020 -0.504031
O15   O     O_R   0.056580 0.751590 0.674980 -0.506062
O16   O     O_R   0.943420 0.751590 0.325020 -0.508619
C5    C     C_R   0.532722 0.155049 0.646009 0.537754
C6    C     C_R   0.467714 0.155518 0.353621 0.530838
C7    C     C_R   0.033227 0.655002 0.645685 0.533604
C8    C     C_R   0.968153 0.655496 0.353367 0.529618
O17   O     O_R   0.545890 0.049670 0.670030 -0.474386
O18   O     O_R   0.454110 0.049670 0.329970 -0.477504
O19   O     O_R   0.045890 0.549670 0.670030 -0.479595
O20   O     O_R   0.954110 0.549670 0.329970 -0.471147
O21   O     O_R   0.681340 0.957860 0.676500 -0.395677
O22   O     O_R   0.318660 0.957860 0.323500 -0.441532
O23   O     O_R   0.181340 0.457860 0.676500 -0.392166
O24   O     O_R   0.818660 0.457860 0.323500 -0.437439
C9    C     C_R   0.727669 0.016801 0.638890 0.551332
C10   C     C_R   0.269562 0.006638 0.361234 0.548219
C11   C     C_R   0.227483 0.517015 0.639095 0.551040
C12   C     C_R   0.772087 0.515937 0.361051 0.543046
O25   O     O_R   0.787380 0.044010 0.830940 -0.518913
O26   O     O_R   0.212620 0.044010 0.169060 -0.513203
O27   O     O_R   0.287380 0.544010 0.830940 -0.495384
O28   O     O_R   0.712620 0.544010 0.169060 -0.516553
O29   O     O_R   0.765540 0.293390 0.823910 -0.462595
O30   O     O_R   0.234460 0.293390 0.176090 -0.470645
O31   O     O_R   0.265540 0.793390 0.823910 -0.490836
O32   O     O_R   0.734460 0.793390 0.176090 -0.460854
C13   C     C_R   0.728192 0.375241 0.854576 0.563634
C14   C     C_R   0.268494 0.383800 0.149449 0.541314
C15   C     C_R   0.231407 0.883245 0.850465 0.552508
C16   C     C_R   0.771889 0.874854 0.145192 0.551467
O33   O     O_R   0.670090 0.410410 0.829090 -0.533766
O34   O     O_R   0.329910 0.410410 0.170910 -0.526999
O35   O     O_R   0.170090 0.910410 0.829090 -0.517500
O36   O     O_R   0.829910 0.910410 0.170910 -0.539832
O37   O     O_R   0.556450 0.252890 0.823790 -0.501344
O38   O     O_R   0.443550 0.252890 0.176210 -0.501212
O39   O     O_R   0.056450 0.752890 0.823790 -0.502391
O40   O     O_R   0.943550 0.752890 0.176210 -0.500349
C17   C     C_R   0.533843 0.156566 0.854089 0.548690
C18   C     C_R   0.466848 0.157796 0.146334 0.539951
C19   C     C_R   0.033017 0.657430 0.853589 0.535083
C20   C     C_R   0.966531 0.656968 0.146104 0.541932
O41   O     O_R   0.545750 0.051070 0.830560 -0.456197
O42   O     O_R   0.454250 0.051070 0.169440 -0.466406
O43   O     O_R   0.045750 0.551070 0.830560 -0.474623
O44   O     O_R   0.954250 0.551070 0.169440 -0.451884
O45   O     O_R   0.681210 0.959150 0.825320 -0.500638
O46   O     O_R   0.318790 0.959150 0.174680 -0.521358
O47   O     O_R   0.181210 0.459150 0.825320 -0.511209
O48   O     O_R   0.818790 0.459150 0.174680 -0.504715
C21   C     C_R   0.742280 0.966004 0.852373 0.538338
C22   C     C_R   0.260881 0.976405 0.142905 0.526998
C23   C     C_R   0.226393 0.520366 0.861856 0.538968
C24   C     C_R   0.757818 0.466569 0.147429 0.528119
Cr1   Cr    Cr6+3 0.771950 0.169480 0.750100 1.054026
Cr2   Cr    Cr6+3 0.228050 0.169480 0.249900 1.085456
Cr3   Cr    Cr6+3 0.271950 0.669480 0.750100 1.049013
Cr4   Cr    Cr6+3 0.728050 0.669480 0.249900 1.059429
Cr5   Cr    Cr6+3 0.614930 0.323340 0.749170 1.055505
Cr6   Cr    Cr6+3 0.385070 0.323340 0.250830 1.070919
Cr7   Cr    Cr6+3 0.114930 0.823340 0.749170 1.054779
Cr8   Cr    Cr6+3 0.885070 0.823340 0.250830 1.057751
Cr9   Cr    Cr6+3 0.616590 0.010620 0.750610 1.132703
Cr10  Cr    Cr6+3 0.383410 0.010620 0.249390 1.099942
Cr11  Cr    Cr6+3 0.116590 0.510620 0.750610 1.116071
Cr12  Cr    Cr6+3 0.883410 0.510620 0.249390 1.116789
O49   O     O_3   0.667820 0.167810 0.749960 -0.304529
O50   O     O_3   0.332180 0.167810 0.250040 -0.293218
O51   O     O_3   0.167820 0.667810 0.749960 -0.319342
O52   O     O_3   0.832180 0.667810 0.250040 -0.297756
C25   C     C_R   0.500865 0.164683 0.423330 0.013397
C26   C     C_R   0.507915 0.162447 0.572910 0.010936
C27   C     C_R   0.002807 0.664205 0.422429 0.013348
C28   C     C_R   0.010176 0.662329 0.571992 0.021931
C29   C     C_R   0.501858 0.272508 0.462351 0.024720
C30   C     C_R   0.509905 0.271754 0.535944 0.018676
C31   C     C_R   0.006377 0.772081 0.461182 -0.038791
C32   C     C_R   0.014378 0.771132 0.534680 -0.008193
C33   C     C_R   0.506163 0.055787 0.533592 -0.166330
C34   C     C_R   0.512639 0.057507 0.460191 -0.168184
C35   C     C_R   0.008027 0.555472 0.532822 -0.165155
C36   C     C_R   0.014265 0.556842 0.459348 -0.165185
C37   C     C_3   0.448635 0.371614 0.465144 -0.174699
C38   C     C_3   0.458864 0.373279 0.544785 -0.226232
C39   C     C_3   0.956890 0.876535 0.463623 -0.190228
C40   C     C_3   0.966647 0.877057 0.543382 -0.225132
H1    H     H_    0.467918 0.454312 0.437959 0.261718
H2    H     H_    0.410038 0.347492 0.575150 0.148936
H3    H     H_    0.979721 0.957225 0.436965 0.234538
H4    H     H_    0.916945 0.855464 0.573449 0.159329
C41   C     C_R   0.676631 0.920037 0.524129 0.000693
C42   C     C_R   0.323262 0.921437 0.476325 -0.040440
C43   C     C_R   0.178845 0.410705 0.526869 -0.000668
C44   C     C_R   0.825689 0.429331 0.477155 -0.039064
C45   C     C_R   0.684027 0.902581 0.451085 -0.198361
C46   C     C_R   0.317103 0.912459 0.550054 -0.200723
C47   C     C_R   0.189834 0.383096 0.455567 -0.188394
C48   C     C_R   0.818680 0.413691 0.550578 -0.200808
H5    H     H_    0.645185 0.850951 0.421930 0.108803
H6    H     H_    0.359342 0.873174 0.581267 0.120718
H7    H     H_    0.157797 0.314318 0.430129 0.185264
H8    H     H_    0.859566 0.368491 0.580632 0.117594
C49   C     C_R   0.741682 0.946931 0.414024 -0.040137
C50   C     C_R   0.255690 0.947247 0.584581 0.015025
C51   C     C_R   0.242290 0.439364 0.415999 -0.043394
C52   C     C_R   0.758249 0.449742 0.586241 0.017246
C53   C     C_R   0.784141 0.035919 0.444680 0.003428
C54   C     C_R   0.205292 0.017091 0.548241 0.002349
C55   C     C_R   0.280559 0.535315 0.444798 -0.000446
C56   C     C_R   0.712209 0.531101 0.553589 0.016230
C57   C     C_R   0.784048 0.050183 0.518562 -0.042367
C58   C     C_R   0.202179 0.007530 0.474639 -0.054765
C59   C     C_R   0.281840 0.550269 0.518455 -0.046722
C60   C     C_R   0.711199 0.538709 0.479585 -0.044757
C61   C     C_R   0.729911 0.991635 0.560794 -0.015835
C62   C     C_R   0.263899 0.969098 0.436718 -0.033242
C63   C     C_R   0.229635 0.489563 0.561708 -0.020600
C64   C     C_R   0.769218 0.489916 0.438962 -0.018967
C65   C     C_R   0.563879 0.108933 0.976323 -0.059642
C66   C     C_R   0.550339 0.112331 0.048659 -0.073887
C67   C     C_R   0.946645 0.623783 0.951029 -0.067583
C68   C     C_R   0.932640 0.621479 0.023400 -0.053737
H9    H     H_    0.610999 0.063053 0.957189 0.137203
H10   H     H_    0.585931 0.067852 0.085001 0.165595
H11   H     H_    0.907933 0.588118 0.914245 0.156831
H12   H     H_    0.882403 0.584628 0.042213 0.124555
C69   C     C_R   0.490011 0.171656 0.073460 0.049527
C70   C     C_R   0.516966 0.164338 0.928736 0.064184
C71   C     C_R   0.983385 0.665420 0.071468 0.075358
C72   C     C_R   0.011320 0.670565 0.926879 0.062950
C73   C     C_R   0.445349 0.233758 0.026197 -0.070219
C74   C     C_R   0.459059 0.230568 0.953600 -0.079318
C75   C     C_R   0.046456 0.718418 0.047284 -0.085780
C76   C     C_R   0.060552 0.720586 0.974744 -0.075564
C77   C     C_R   0.815875 0.939414 0.955048 -0.128980
C78   C     C_R   0.200039 0.992504 0.030604 -0.129897
C79   C     C_R   0.282902 0.547044 0.976300 -0.126128
C80   C     C_R   0.684404 0.438908 0.044697 -0.130309
C81   C     C_R   0.819042 0.944882 0.027873 -0.039112
C82   C     C_R   0.200191 0.000581 0.957668 -0.022982
C83   C     C_R   0.292105 0.524884 0.047800 -0.025225
C84   C     C_R   0.680897 0.444391 0.971885 -0.039977
C85   C     C_R   0.759986 0.901641 0.069490 -0.034529
C86   C     C_R   0.252741 0.937250 0.918531 -0.019284
C87   C     C_R   0.244216 0.445892 0.084112 -0.023630
C88   C     C_R   0.740205 0.403588 0.930031 -0.032933
C89   C     C_R   0.698339 0.855063 0.034553 -0.032196
C90   C     C_R   0.315379 0.898561 0.952659 -0.024097
C91   C     C_R   0.180330 0.410247 0.050299 -0.021726
C92   C     C_R   0.802609 0.360681 0.964576 -0.031944
C93   C     C_R   0.696148 0.855126 0.959638 -0.058544
C94   C     C_R   0.318798 0.903249 0.027638 -0.062718
C95   C     C_R   0.172709 0.430475 0.976467 -0.059325
C96   C     C_R   0.804903 0.359655 0.039466 -0.055928
C97   C     C_R   0.753286 0.908194 0.921162 -0.053352
C98   C     C_R   0.258172 0.945507 0.066953 -0.059941
C99   C     C_R   0.227443 0.494341 0.938712 -0.051752
C100  C     C_R   0.747245 0.409586 0.078332 -0.055972
H13   H     H_    0.500413 0.970422 0.560160 0.161944
H14   H     H_    0.517160 0.972692 0.432370 0.157423
H15   H     H_    0.001549 0.470330 0.559489 0.154757
H16   H     H_    0.017983 0.471808 0.431639 0.164311
H17   H     H_    0.860537 0.974356 0.924258 0.188953
H18   H     H_    0.156153 0.033407 0.059355 0.194363
H19   H     H_    0.320603 0.605874 0.949254 0.164447
H20   H     H_    0.639609 0.471904 0.075737 0.188870
C101  C     C_2   0.885147 0.001232 0.056611 0.262645
H21   H     H_    0.883001 0.059710 0.102478 0.134746
O53   O     O_2   0.942970 0.984503 0.028134 -0.465634
C102  C     C_2   0.145148 0.077406 0.923826 0.241656
H22   H     H_    0.155119 0.116544 0.871841 0.134149
O54   O     O_2   0.088408 0.097925 0.953530 -0.480806
C103  C     C_2   0.353901 0.584372 0.081945 0.230903
H23   H     H_    0.349697 0.616272 0.136260 0.120538
O55   O     O_2   0.410306 0.597082 0.049937 -0.467958
C104  C     C_2   0.614206 0.498406 0.943478 0.262472
H24   H     H_    0.615518 0.556315 0.897282 0.141080
O56   O     O_2   0.556781 0.480792 0.972762 -0.467219
C105  C     C_2   0.636648 0.803281 0.074693 0.329665
H25   H     H_    0.613232 0.718198 0.058259 0.162215
O57   O     O_2   0.610412 0.856510 0.125136 -0.482741
C106  C     C_2   0.377180 0.854252 0.910130 0.314301
H26   H     H_    0.409681 0.780750 0.929500 0.182993
O58   O     O_2   0.393239 0.901869 0.853714 -0.471030
C107  C     C_2   0.122067 0.349982 0.091212 0.320484
H27   H     H_    0.093176 0.274366 0.068666 0.180677
O59   O     O_2   0.104432 0.387298 0.149712 -0.471100
C108  C     C_2   0.865153 0.314742 0.923769 0.328724
H28   H     H_    0.890902 0.231672 0.939680 0.163864
O60   O     O_2   0.889334 0.370665 0.873125 -0.480741
C109  C     C_2   0.634621 0.801972 0.920649 0.222810
H29   H     H_    0.643933 0.757701 0.870094 0.123864
O61   O     O_2   0.573422 0.811650 0.942273 -0.458613
C110  C     C_2   0.386238 0.868162 0.063423 0.285272
H30   H     H_    0.385096 0.817156 0.112345 0.145300
O62   O     O_2   0.444235 0.897644 0.039182 -0.444311
C111  C     C_2   0.108032 0.383404 0.940461 0.271947
H31   H     H_    0.112446 0.327335 0.893681 0.157058
O63   O     O_2   0.048667 0.404881 0.963899 -0.441121
C112  C     C_2   0.866929 0.308111 0.077966 0.231486
H32   H     H_    0.858022 0.261410 0.127902 0.111551
O64   O     O_2   0.928038 0.321957 0.056764 -0.447187
H33   H     H_    0.901717 0.852112 0.448019 0.174916
H34   H     H_    0.996461 0.956922 0.563066 0.185236
H35   H     H_    0.394366 0.341115 0.450010 0.153824
H36   H     H_    0.486338 0.455610 0.564382 0.210608
C113  C     C_2   0.613087 0.852802 0.552650 0.211890
H37   H     H_    0.578055 0.807080 0.515541 0.102485
O65   O     O_2   0.596515 0.843703 0.614844 -0.444920
C114  C     C_2   0.391409 0.869131 0.449042 0.270406
H38   H     H_    0.432217 0.844676 0.486786 0.126441
O66   O     O_2   0.403615 0.844646 0.387358 -0.424975
C115  C     C_2   0.113174 0.349313 0.555180 0.236905
H39   H     H_    0.076686 0.308266 0.517665 0.126601
O67   O     O_2   0.096300 0.340406 0.617324 -0.433285
C116  C     C_2   0.892075 0.371294 0.449268 0.261510
H40   H     H_    0.932147 0.342386 0.486750 0.132180
O68   O     O_2   0.903800 0.347329 0.387455 -0.423898
C117  C     C_2   0.823152 0.120687 0.397542 0.317181
H41   H     H_    0.794041 0.191578 0.370832 0.111890
O69   O     O_2   0.886666 0.107811 0.385509 -0.410439
C118  C     C_2   0.154285 0.093237 0.588328 0.301544
H42   H     H_    0.099513 0.102959 0.571932 0.154680
O70   O     O_2   0.173649 0.143765 0.642574 -0.444017
C119  C     C_2   0.316178 0.622870 0.396831 0.311432
H43   H     H_    0.285630 0.696300 0.374468 0.098633
O71   O     O_2   0.378858 0.611112 0.380599 -0.407499
C120  C     C_2   0.665204 0.607804 0.597986 0.292788
H44   H     H_    0.609510 0.618710 0.585176 0.168272
O72   O     O_2   0.688541 0.655783 0.651444 -0.460861
C121  C     C_2   0.842410 0.123919 0.549673 0.218569
H45   H     H_    0.833002 0.180887 0.594157 0.156647
O73   O     O_2   0.903095 0.119900 0.526334 -0.507819
C122  C     C_2   0.131853 0.019433 0.439243 0.220589
H46   H     H_    0.113781 0.947829 0.404391 0.133898
O74   O     O_2   0.095593 0.109791 0.445419 -0.544828
C123  C     C_2   0.340234 0.625545 0.548176 0.215405
H47   H     H_    0.331690 0.681920 0.593118 0.156936
O75   O     O_2   0.400256 0.623109 0.523047 -0.507017
C124  C     C_2   0.646729 0.592240 0.447038 0.211027
H48   H     H_    0.650969 0.662003 0.407663 0.155803
O76   O     O_2   0.587478 0.555113 0.462995 -0.538994
H49   H     H_    0.398145 0.279925 0.045220 0.140341
H50   H     H_    0.423860 0.276278 0.917133 0.135207
H51   H     H_    0.085117 0.754397 0.084194 0.113220
H52   H     H_    0.111135 0.756503 0.956071 0.117219

loop_
_geom_bond_atom_site_label_1
_geom_bond_atom_site_label_2
_geom_bond_distance
_ccdc_geom_bond_type
C18   O42   1.281190 A    
Cr11  O51   1.986910 S    
C107  H27   1.084942 S    
O4    C12   1.304448 A    
O47   Cr11  1.950782 S    
C29   C30   1.395323 A    
C92   C108  1.490370 S    
O39   C19   1.272972 A    
O20   Cr12  2.067647 S    
C90   C106  1.490250 S    
C43   C115  1.499648 S    
C82   C102  1.488557 S    
C124  O76   1.219414 D    
C31   C32   1.393452 A    
C40   H4    1.112736 S    
C54   C118  1.482450 S    
O29   Cr1   1.958979 S    
C114  O66   1.213735 D    
C33   C34   1.386997 A    
C80   H20   1.085612 S    
C18   C69   1.444610 S    
C38   H36   1.111137 S    
O27   Cr3   2.084472 S    
O7    C3    1.293451 A    
C107  O59   1.221289 D    
C121  H45   1.063979 S    
C37   C38   1.513635 S    
C21   C97   1.461480 S    
O36   Cr8   2.073327 S    
C85   C89   1.429624 A    
O24   C12   1.294632 A    
C77   C97   1.383436 A    
C84   C104  1.492420 S    
C13   C88   1.474372 S    
C81   C101  1.491699 S    
C9    C61   1.497650 S    
C78   C82   1.376503 A    
C59   C63   1.434704 A    
C111  O63   1.219982 D    
O26   Cr2   2.084253 S    
C91   C95   1.416685 A    
C59   C123  1.487283 S    
C60   C64   1.434542 A    
C101  O53   1.221994 D    
C72   C76   1.407751 A    
C76   H52   1.083941 S    
C54   C58   1.391951 A    
C66   C69   1.390205 A    
C104  O56   1.221904 D    
C119  H43   1.084655 S    
C44   C116  1.496951 S    
C117  O69   1.220725 D    
O21   C9    1.292359 A    
C28   C32   1.397557 A    
C1    C52   1.471592 S    
O23   Cr11  1.936718 S    
C102  O54   1.221696 D    
O30   C14   1.286010 A    
C81   C85   1.433418 A    
C73   H49   1.084081 S    
C17   O41   1.271645 A    
O32   Cr4   1.956675 S    
C1    O9    1.258397 A    
O44   Cr12  2.049597 S    
C65   H9    1.081960 S    
C39   C40   1.514586 S    
C109  O61   1.221036 D    
C49   C53   1.393659 A    
C86   C90   1.412047 A    
C15   C86   1.472626 S    
C3    O11   1.254023 A    
C80   C100  1.382562 A    
C4    C49   1.465983 S    
C4    O12   1.255240 A    
O28   Cr4   2.084253 S    
C106  H26   1.084853 S    
C119  O71   1.220804 D    
C75   C76   1.389920 A    
O6    Cr2   1.965363 S    
C20   C71   1.441507 S    
C91   C107  1.488737 S    
C27   C36   1.396686 A    
C34   H14   1.080495 S    
O3    Cr3   2.078127 S    
C42   C46   1.396028 A    
C26   C33   1.396468 A    
O47   C23   1.287248 A    
O2    Cr2   2.074705 S    
C75   H51   1.083373 S    
C52   C56   1.397396 A    
C95   C111  1.487202 S    
C19   C72   1.444031 S    
O2    C10   1.293848 A    
O10   Cr6   2.067250 S    
C104  H24   1.081093 S    
O42   Cr10  2.049597 S    
Cr5   O49   1.994188 S    
O18   Cr10  2.067647 S    
C70   C74   1.393001 A    
Cr7   O51   1.994188 S    
C25   C29   1.404230 A    
C118  O70   1.222337 D    
C58   C62   1.423568 A    
C116  O68   1.213152 D    
C44   C64   1.452103 A    
O34   Cr6   2.073327 S    
C68   C71   1.404454 A    
C40   H34   1.110782 S    
C114  H38   1.083820 S    
C31   C39   1.488640 S    
C20   O44   1.273163 A    
C26   C30   1.397733 A    
C120  O72   1.222113 D    
C5    C26   1.458788 S    
C78   C98   1.394891 A    
C89   C93   1.411824 A    
O24   Cr12  1.932642 S    
C57   C121  1.487633 S    
C67   C72   1.391035 A    
O30   Cr2   1.956675 S    
C37   H1    1.108087 S    
C47   C51   1.377303 A    
O22   C10   1.281635 A    
O1    C9    1.304635 A    
C103  H23   1.085128 S    
O48   Cr12  1.948118 S    
O14   Cr6   1.952595 S    
C83   C103  1.482474 S    
C65   C70   1.403993 A    
C80   C84   1.374689 A    
C53   C117  1.480216 S    
C55   C119  1.479832 S    
C123  O75   1.219070 D    
C2    C51   1.454980 S    
C66   H10   1.080250 S    
C29   C37   1.489288 S    
O16   Cr8   1.952595 S    
O15   C7    1.282160 A    
C15   O35   1.259535 A    
C16   C85   1.474930 S    
Cr10  O50   1.994760 S    
C79   C83   1.380860 A    
O11   Cr7   2.061721 S    
O13   C5    1.282370 A    
Cr4   O52   1.954267 S    
O40   C20   1.281005 A    
C47   H7    1.083139 S    
O43   Cr11  2.052816 S    
C33   H13   1.075131 S    
O12   Cr8   2.067250 S    
Cr12  O52   1.994760 S    
C35   H15   1.075173 S    
C50   C54   1.406452 A    
C87   C91   1.416311 A    
C111  H31   1.081706 S    
C103  O55   1.221925 D    
O5    C1    1.289548 A    
C89   C105  1.490746 S    
O46   Cr10  1.948118 S    
O39   Cr7   1.938655 S    
O25   C21   1.271022 A    
C112  O64   1.220608 D    
C35   C36   1.387984 A    
C10   C62   1.483997 S    
C13   O33   1.257942 A    
O8    C4    1.283598 A    
C93   C109  1.492044 S    
O13   Cr5   1.949327 S    
C109  H29   1.085058 S    
C45   C49   1.372432 A    
C67   H11   1.081220 S    
C115  O67   1.214147 D    
O29   C13   1.284459 A    
Cr2   O50   1.954267 S    
O15   Cr7   1.949327 S    
C41   C45   1.395445 A    
C22   C98   1.472362 S    
O35   Cr7   2.069927 S    
Cr1   O49   1.954093 S    
C46   H6    1.083101 S    
C74   H50   1.083521 S    
C45   H5    1.078394 S    
C88   C92   1.427100 A    
Cr3   O51   1.954093 S    
O26   C22   1.274990 A    
C77   H17   1.085651 S    
O21   Cr9   1.936718 S    
C57   C61   1.438041 A    
C121  O73   1.218782 D    
C7    O19   1.278546 A    
C14   C87   1.485115 S    
C32   C40   1.489047 S    
C53   C57   1.400564 A    
C2    O10   1.256858 A    
O37   Cr5   1.938655 S    
C8    O20   1.280909 A    
C83   C87   1.423320 A    
C42   C62   1.446886 A    
C3    C50   1.468960 S    
C116  H40   1.084435 S    
O3    C11   1.305371 A    
C123  H47   1.064384 S    
C36   H16   1.080502 S    
C8    C27   1.461384 S    
C84   C88   1.434454 A    
C51   C55   1.393425 A    
C44   C48   1.398723 A    
C96   C112  1.491593 S    
O31   Cr3   1.958979 S    
C122  O74   1.219088 D    
O38   C18   1.273492 A    
C92   C96   1.411475 A    
C79   C99   1.389733 A    
C7    C28   1.459008 S    
C5    O17   1.278704 A    
C120  H44   1.081583 S    
C56   C60   1.396536 A    
C41   C113  1.499515 S    
O22   Cr10  1.932642 S    
C48   C52   1.375108 A    
C113  H37   1.087058 S    
O14   C6    1.280781 A    
C19   O43   1.280090 A    
C112  H32   1.084859 S    
C11   C63   1.489497 S    
C68   H12   1.082949 S    
C110  O62   1.220377 D    
O17   Cr9   2.069736 S    
O37   C17   1.279955 A    
O6    C2    1.276006 A    
O7    Cr3   1.964602 S    
C67   C68   1.386501 A    
C28   C35   1.397031 A    
C90   C94   1.415029 A    
C94   C98   1.433821 A    
C58   C122  1.489109 S    
O48   C24   1.260331 A    
C17   C70   1.441660 S    
O5    Cr1   1.964602 S    
C65   C66   1.384654 A    
C14   O34   1.257918 A    
O25   Cr1   2.084472 S    
O40   Cr8   1.943649 S    
C60   C124  1.486116 S    
C25   C34   1.395352 A    
C12   C64   1.495786 S    
C39   H3    1.108682 S    
C56   C120  1.482754 S    
O33   Cr5   2.069927 S    
C55   C59   1.397607 A    
C105  O57   1.220828 D    
C124  H48   1.073595 S    
O1    Cr1   2.078127 S    
Cr8   O52   1.986203 S    
O32   C16   1.278972 A    
C42   C114  1.494656 S    
C73   C74   1.389987 A    
C39   H33   1.110644 S    
O9    Cr5   2.061721 S    
C93   C97   1.415505 A    
C43   C63   1.451141 A    
C101  H21   1.081260 S    
O46   C22   1.259624 A    
C95   C99   1.429833 A    
C37   H35   1.110787 S    
O45   C21   1.259469 A    
C71   C75   1.392570 A    
C78   H18   1.083879 S    
O23   C11   1.289132 A    
O19   Cr11  2.069736 S    
C118  H42   1.081159 S    
C113  O65   1.213813 D    
C6    C25   1.460201 S    
C23   C99   1.476037 S    
C38   H2    1.112764 S    
C79   H19   1.084342 S    
C24   C100  1.461531 S    
C41   C61   1.452687 A    
C77   C81   1.374655 A    
C105  H25   1.085282 S    
Cr9   O49   1.986910 S    
O4    Cr4   2.074705 S    
C82   C86   1.416354 A    
C27   C31   1.403533 A    
C46   C50   1.376146 A    
C48   H8    1.081506 S    
C16   O36   1.256723 A    
O28   C24   1.274934 A    
C94   C110  1.491153 S    
C110  H30   1.080839 S    
C30   C38   1.490321 S    
C43   C47   1.391752 A    
Cr6   O50   1.986203 S    
C6    O18   1.281145 A    
C115  H39   1.086162 S    
O8    Cr4   1.965363 S    
O27   C23   1.305803 A    
O45   Cr9   1.950782 S    
C102  H22   1.085351 S    
O41   Cr9   2.052816 S    
C117  H41   1.084848 S    
C108  O60   1.220932 D    
O31   C15   1.286747 A    
O16   C8    1.281982 A    
C106  O58   1.221388 D    
C69   C73   1.408601 A    
C96   C100  1.417119 A    
C108  H28   1.085276 S    
C122  H46   1.085348 S    
O38   Cr6   1.943649 S    
