data_mof_unit_57870.cif
_audit_creation_date              2013-03-05T15:58:05-0500
_audit_creation_method            fapswitch 2.2
_symmetry_space_group_name_H-M    P1
_symmetry_Int_Tables_number       1
_space_group_crystal_system       triclinic
_cell_length_a                    12.587698
_cell_length_b                    13.091201
_cell_length_c                    14.961321
_cell_angle_alpha                 90.62964
_cell_angle_beta                  102.886295
_cell_angle_gamma                 81.956754
_cell_volume                      2379.18967022

loop_
_atom_site_label
_atom_site_type_symbol
_atom_site_description
_atom_site_fract_x
_atom_site_fract_y
_atom_site_fract_z
_atom_type_partial_charge
O1    O     O_R   0.366740 0.627160 0.477250 -0.577526
O2    O     O_R   0.544830 0.662520 0.507680 -0.623676
C1    C     C_R   0.438160 0.691636 0.486186 0.889792
O3    O     O_R   0.410940 0.482340 0.616930 -0.567437
O4    O     O_R   0.589030 0.517700 0.647360 -0.624681
C2    C     C_R   0.502305 0.496144 0.673233 0.934350
Zn1   Zn    Zn3+2 0.381090 0.476390 0.479680 0.999813
Zn2   Zn    Zn3+2 0.618910 0.523610 0.520320 0.956326
O5    O     O_R   0.455170 0.337480 0.492320 -0.603792
O6    O     O_R   0.633260 0.372840 0.522750 -0.638771
O7    O     O_R   0.410970 0.482300 0.352640 -0.628592
O8    O     O_R   0.589060 0.517660 0.383070 -0.638316
C3    C     C_R   0.561485 0.308401 0.509411 0.919302
C4    C     C_R   0.498896 0.500463 0.327081 0.847733
C5    C     C_R   0.442254 0.428604 0.175902 -0.215614
C6    C     C_R   0.498020 0.499111 0.231371 -0.062955
C7    C     C_R   0.557778 0.564896 0.196682 -0.206430
C8    C     C_R   0.561678 0.560944 0.104961 0.045778
C9    C     C_R   0.506535 0.488914 0.048195 0.085411
C10   C     C_R   0.447585 0.422030 0.084470 0.082335
C11   C     C_R   0.620449 0.627377 0.069789 -0.288343
C12   C     C_R   0.622303 0.625655 0.977078 0.521032
C13   C     C_R   0.568047 0.553478 0.920187 0.028137
C14   C     C_R   0.510397 0.483898 0.955652 -0.073789
C15   C     C_R   0.456300 0.410056 0.898891 -0.095576
C16   C     C_R   0.405372 0.337455 0.939004 0.329129
C17   C     C_R   0.398292 0.347025 0.030302 -0.272254
C18   C     C_R   0.567949 0.551973 0.827819 -0.239945
C19   C     C_R   0.508309 0.486035 0.770151 -0.201477
C20   C     C_R   0.453224 0.413752 0.804251 0.286933
H1    H     H_    0.398104 0.376626 0.204800 0.152204
H2    H     H_    0.600551 0.619423 0.241084 0.182413
H3    H     H_    0.664292 0.681318 0.113940 0.197841
H4    H     H_    0.609806 0.606152 0.799160 0.205726
H5    H     H_    0.357840 0.292549 0.060113 0.182797
C21   C     C_R   0.715144 0.057896 0.451833 0.367777
H6    H     H_    0.756937 0.211624 0.476666 0.187820
C22   C     C_R   0.597996 0.198851 0.502807 -0.113113
C23   C     C_R   0.293948 0.842623 0.490310 0.506476
C24   C     C_R   0.266928 0.949175 0.495663 -0.192887
C25   C     C_R   0.342521 0.014261 0.487615 -0.235138
C26   C     C_R   0.446868 0.974273 0.471050 0.111711
C27   C     C_R   0.467149 0.869375 0.451718 -0.034324
C28   C     C_R   0.532046 0.034862 0.473893 0.011667
C29   C     C_R   0.628849 0.995775 0.442629 -0.094298
C30   C     C_R   0.634027 0.897256 0.402593 0.314167
C31   C     C_R   0.555425 0.834526 0.410271 -0.244385
C32   C     C_R   0.523669 0.132992 0.510029 -0.185818
C33   C     C_R   0.695734 0.161208 0.476855 -0.276389
C34   C     C_R   0.397418 0.802073 0.472868 -0.213436
H7    H     H_    0.456811 0.162074 0.541685 0.201424
H8    H     H_    0.315777 0.095698 0.492398 0.172282
H9    H     H_    0.188627 0.981502 0.510072 0.196576
H10   H     H_    0.560622 0.759521 0.379044 0.185228
C35   C     C_R   0.088757 0.344355 0.374594 -0.267264
H11   H     H_    0.255475 0.328635 0.359058 0.131744
H12   H     H_    0.882255 0.312004 0.354524 0.184482
H13   H     H_    0.067152 0.283716 0.326893 0.164098
N1    N     N_R   0.222190 0.444670 0.452360 -0.104056
C36   C     C_R   0.798924 0.631887 0.606905 0.049114
C37   C     C_R   0.903084 0.661651 0.628087 -0.172132
C38   C     C_R   0.984920 0.611666 0.587665 -0.151789
C39   C     C_R   0.962548 0.531159 0.525463 0.017805
C40   C     C_R   0.854879 0.503858 0.506185 0.256714
C41   C     C_R   0.041978 0.477212 0.481464 -0.015381
C42   C     C_R   0.011999 0.397948 0.419029 0.186020
C43   C     C_R   0.905859 0.372628 0.401679 -0.235560
C44   C     C_R   0.828685 0.424777 0.444831 -0.192153
C45   C     C_R   0.150773 0.498172 0.496828 0.005210
C46   C     C_R   0.194609 0.369408 0.392379 0.018972
N2    N     N_R   0.776970 0.554790 0.547140 -0.132116
H14   H     H_    0.181748 0.555604 0.543722 0.153244
H15   H     H_    0.734780 0.670652 0.637811 0.142081
H16   H     H_    0.064166 0.637916 0.606214 0.162120
H17   H     H_    0.920312 0.723416 0.675505 0.172459
H18   H     H_    0.748913 0.401402 0.428752 0.206983
N3    N     N_R   0.712315 0.862183 0.348305 0.230734
O9    O     O_R   0.755298 0.765499 0.351905 -0.397447
O10   O     O_R   0.725313 0.921806 0.283685 -0.359835
N4    N     N_R   0.823926 0.016675 0.442362 0.238427
O11   O     O_R   0.873010 0.930892 0.484901 -0.377300
O12   O     O_R   0.881444 0.073530 0.406733 -0.395596
O13   O     O_3   0.223641 0.778374 0.510503 -0.615772
C47   C     C_3   0.133751 0.779014 0.434728 -0.192999
H19   H     H_    0.161751 0.752905 0.371615 0.152406
H20   H     H_    0.083142 0.856417 0.422780 0.209337
H21   H     H_    0.079796 0.724274 0.449384 0.194446
O14   O     O_3   0.682372 0.690672 0.943142 -0.609126
C48   C     C_3   0.620334 0.789842 0.929064 -0.250159
H22   H     H_    0.538936 0.788028 0.881299 0.159630
H23   H     H_    0.665843 0.840459 0.897148 0.212732
H24   H     H_    0.609235 0.824707 0.995105 0.185284
N5    N     N_R   0.390665 0.348707 0.741826 0.240066
O15   O     O_R   0.440096 0.280929 0.694936 -0.374170
O16   O     O_R   0.283616 0.366296 0.723315 -0.350539
N6    N     N_R   0.367422 0.249289 0.891304 0.242074
O17   O     O_R   0.270210 0.227169 0.892875 -0.340298
O18   O     O_R   0.438036 0.179306 0.865647 -0.335711

loop_
_geom_bond_atom_site_label_1
_geom_bond_atom_site_label_2
_geom_bond_distance
_ccdc_geom_bond_type
C39   C41   1.420402 A    
N5    O15   1.301212 A    
C8    C11   1.394369 A    
C25   C26   1.417959 A    
C9    C10   1.408449 A    
C47   H21   1.108576 S    
C22   C33   1.395144 A    
N3    O9    1.301732 A    
C37   H17   1.082576 S    
Zn1   O7    2.022448 S    
C16   C17   1.391704 A    
C19   C20   1.410139 A    
C40   C44   1.400986 A    
C18   C19   1.388955 A    
C47   H20   1.112255 S    
C20   N5    1.435138 S    
O4    C2    1.303199 A    
O7    C4    1.300828 A    
C11   H3    1.084332 S    
C5    C6    1.392142 A    
C36   H15   1.081651 S    
C8    C9    1.412418 A    
C40   N2    1.363028 A    
O5    C3    1.306976 A    
C32   H7    1.077807 S    
C6    C7    1.393606 A    
N6    O18   1.301288 A    
C13   C14   1.416054 A    
C12   O14   1.383761 S    
C48   H23   1.109252 S    
C25   H8    1.078736 S    
C22   C32   1.379580 A    
C42   C43   1.389112 A    
C18   H4    1.084699 S    
N5    O16   1.301379 A    
C11   C12   1.392362 A    
C26   C28   1.413318 A    
H12   C43   1.084462 S    
O3    Zn1   2.006091 S    
Zn1   N1    2.050436 S    
C1    C34   1.464993 S    
N3    O10   1.301378 A    
C16   N6    1.433121 S    
C5    C10   1.385611 A    
C43   C44   1.382411 A    
C14   C15   1.423927 A    
N4    O12   1.301530 A    
C21   N4    1.436795 S    
C23   C24   1.394552 A    
C36   N2    1.357423 A    
C17   H5    1.084760 S    
C15   C16   1.424460 A    
C29   C30   1.415397 A    
C36   C37   1.387896 A    
O1    C1    1.301846 A    
C45   H14   1.076098 S    
C38   C39   1.414480 A    
C30   N3    1.436614 S    
H6    C33   1.082795 S    
O13   C47   1.411047 S    
Zn2   O8    2.006091 S    
N6    O17   1.301505 A    
C23   C34   1.414688 A    
C7    C8    1.384180 A    
C21   C29   1.427690 A    
C13   C18   1.381596 A    
C47   H19   1.113700 S    
C48   H24   1.112603 S    
C3    C22   1.452731 S    
N1    C45   1.349694 A    
C31   H10   1.082718 S    
O3    C2    1.299081 A    
C24   C25   1.387870 A    
O8    C4    1.297611 A    
C41   C42   1.422237 A    
H11   C46   1.081906 S    
C4    C6    1.429470 S    
C26   C27   1.400265 A    
C35   C42   1.397966 A    
C28   C29   1.428255 A    
C15   C20   1.408987 A    
Zn1   O5    1.914839 S    
C30   C31   1.395230 A    
Zn2   N2    2.038076 S    
O1    Zn1   1.956670 S    
O2    Zn2   1.914840 S    
N4    O11   1.301568 A    
O6    C3    1.302655 A    
O4    Zn2   2.022448 S    
C27   C34   1.411830 A    
C5    H1    1.085475 S    
C10   C17   1.390916 A    
C44   H18   1.066036 S    
O2    C1    1.310916 A    
C23   O13   1.383871 S    
C41   C45   1.402478 A    
C9    C14   1.396724 A    
C37   C38   1.391266 A    
C35   C46   1.384196 A    
N1    C46   1.354226 A    
C39   C40   1.416574 A    
C2    C19   1.441643 S    
O14   C48   1.410183 S    
Zn2   O6    1.956671 S    
C24   H9    1.083083 S    
C35   H13   1.083907 S    
C7    H2    1.085512 S    
C12   C13   1.409731 A    
C38   H16   1.077281 S    
C48   H22   1.113976 S    
C27   C31   1.409485 A    
C21   C33   1.402228 A    
C28   C32   1.387797 A    
