data_mof_unit_66196.cif
_audit_creation_date              2013-03-05T16:35:49-0500
_audit_creation_method            fapswitch 2.2
_symmetry_space_group_name_H-M    P1
_symmetry_Int_Tables_number       1
_space_group_crystal_system       triclinic
_cell_length_a                    21.808394
_cell_length_b                    21.745014
_cell_length_c                    21.257487
_cell_angle_alpha                 120.919587
_cell_angle_beta                  120.865575
_cell_angle_gamma                 89.56888
_cell_volume                      6960.05931911

loop_
_atom_site_label
_atom_site_type_symbol
_atom_site_description
_atom_site_fract_x
_atom_site_fract_y
_atom_site_fract_z
_atom_type_partial_charge
O1    O     O_R   0.061970 0.509790 0.623960 -0.561882
O2    O     O_R   0.061960 0.614160 0.623930 -0.555077
C1    C     C_R   0.084716 0.584554 0.669227 0.782934
O3    O     O_R   0.090190 0.447820 0.500020 -0.581117
O4    O     O_R   0.090170 0.552190 0.499990 -0.542905
C2    C     C_R   0.116644 0.498123 0.496529 0.792817
Cu1   Cu    Cu3+1 0.000010 0.438210 0.500020 1.024796
Cu2   Cu    Cu3+1 0.999990 0.561790 0.499980 1.063744
O5    O     O_R   0.938040 0.385840 0.376070 -0.557158
O6    O     O_R   0.938030 0.490210 0.376040 -0.538267
O7    O     O_R   0.909830 0.447810 0.500010 -0.565697
O8    O     O_R   0.909810 0.552180 0.499980 -0.559934
C3    C     C_R   0.914690 0.415409 0.330766 0.805898
C4    C     C_R   0.880947 0.499797 0.499308 0.821866
H1    H     H_    0.917574 0.284323 0.072241 0.174067
C5    C     C_R   0.016053 0.289293 0.180973 -0.110792
H2    H     H_    0.002828 0.228000 0.141438 0.166241
C6    C     C_R   0.081649 0.336764 0.270638 -0.167837
H3    H     H_    0.119151 0.311289 0.299229 0.150941
C7    C     C_R   0.099917 0.416594 0.322807 0.015351
C8    C     C_R   0.049787 0.448174 0.283320 0.133121
C9    C     C_R   0.984744 0.399803 0.192874 -0.162023
H4    H     H_    0.946536 0.423395 0.161749 0.172678
C10   C     C_R   0.968153 0.320912 0.141888 -0.145448
C11   C     C_R   0.240531 0.463065 0.417656 -0.243611
H5    H     H_    0.234965 0.435309 0.354704 0.173129
C12   C     C_R   0.312710 0.496366 0.500615 -0.098920
C13   C     C_R   0.318817 0.526455 0.581310 0.043962
C14   C     C_R   0.253368 0.527834 0.577970 -0.181882
H6    H     H_    0.257521 0.550666 0.639520 0.145793
C15   C     C_R   0.182256 0.497478 0.495608 -0.036622
C16   C     C_R   0.174770 0.463467 0.413959 0.015200
C17   C     C_R   0.417173 0.491725 0.672241 -0.155403
H7    H     H_    0.385700 0.432279 0.613718 0.127846
C18   C     C_R   0.484427 0.510226 0.751754 -0.135864
H8    H     H_    0.504501 0.465430 0.754664 0.151606
C19   C     C_R   0.525626 0.586260 0.827872 -0.170340
H9    H     H_    0.577354 0.599068 0.889252 0.181908
C20   C     C_R   0.499947 0.645178 0.825838 -0.029401
C21   C     C_R   0.432060 0.626674 0.744451 0.144391
C22   C     C_R   0.390679 0.549305 0.667625 0.055670
C23   C     C_1   0.136286 0.635682 0.771767 -0.168586
C24   C     C_1   0.178908 0.678014 0.856739 0.027481
C25   C     C_1   0.229312 0.728233 0.957518 0.052466
C26   C     C_1   0.271796 0.770678 0.042500 0.043158
C27   C     C_1   0.322166 0.821153 0.143296 0.035548
C28   C     C_1   0.364572 0.863802 0.228279 -0.151494
C29   C     C_R   0.946207 0.407172 0.669788 -0.182624
H10   H     H_    0.948210 0.351784 0.654723 0.193460
C30   C     C_R   0.882042 0.410766 0.606112 0.194813
C31   C     C_R   0.878696 0.482233 0.624059 0.107529
C32   C     C_R   0.939670 0.549111 0.705832 -0.172266
H11   H     H_    0.937769 0.604428 0.720448 0.146824
C33   C     C_R   0.003200 0.545247 0.769444 -0.162579
H12   H     H_    0.049104 0.597925 0.832282 0.183809
C34   C     C_R   0.007393 0.474290 0.751946 0.008200
C35   C     C_R   0.746447 0.486085 0.556200 -0.057930
C36   C     C_R   0.686296 0.499517 0.499427 -0.187733
C37   C     C_R   0.691038 0.515135 0.445057 -0.019688
C38   C     C_R   0.753590 0.511840 0.441943 0.137629
C39   C     C_R   0.814372 0.499991 0.499659 -0.134555
C40   C     C_R   0.811827 0.488687 0.558248 -0.072946
C41   C     C_R   0.579617 0.505659 0.310578 0.212245
C42   C     C_R   0.542711 0.543021 0.272490 -0.160524
H13   H     H_    0.498798 0.509476 0.199749 0.206792
C43   C     C_R   0.562570 0.622970 0.327526 0.017310
C44   C     C_R   0.618948 0.664628 0.421576 -0.174433
H14   H     H_    0.635544 0.725959 0.465589 0.172897
C45   C     C_R   0.656791 0.627921 0.459643 -0.219979
H15   H     H_    0.702498 0.661865 0.531951 0.153468
C46   C     C_R   0.638897 0.548630 0.404443 0.070789
C47   C     C_1   0.861856 0.364082 0.228233 -0.122020
C48   C     C_1   0.818549 0.321405 0.143248 0.036215
C49   C     C_1   0.768306 0.270778 0.042438 0.039995
C50   C     C_1   0.726498 0.228056 0.957461 0.079636
C51   C     C_1   0.677088 0.177355 0.856681 0.075957
C52   C     C_1   0.635243 0.134977 0.771707 -0.135017
O9    O     O_R   0.464140 0.554340 0.428270 -0.583063
O10   O     O_R   0.535870 0.626050 0.571740 -0.573932
C53   C     C_R   0.499121 0.619884 0.499735 0.840601
O11   O     O_R   0.373960 0.464160 0.428260 -0.595405
O12   O     O_R   0.445680 0.535880 0.571730 -0.573734
C54   C     C_R   0.379844 0.497939 0.500328 0.814993
Cu3   Cu    Cu3+1 0.457530 0.457560 0.415050 1.009895
Cu4   Cu    Cu3+1 0.542470 0.542480 0.584950 1.028449
O13   O     O_R   0.464130 0.373990 0.428260 -0.587096
O14   O     O_R   0.535860 0.445700 0.571730 -0.577296
O15   O     O_R   0.554320 0.464170 0.428270 -0.563516
O16   O     O_R   0.626040 0.535880 0.571740 -0.582653
C55   C     C_R   0.501487 0.379797 0.499809 0.856218
C56   C     C_R   0.619809 0.500719 0.499808 0.879926
O17   O     O_R   0.552180 0.090160 0.499970 -0.562225
O18   O     O_R   0.447790 0.090160 0.499970 -0.578745
C57   C     C_R   0.500874 0.119613 0.502180 0.776828
O19   O     O_R   0.490230 0.938030 0.376060 -0.566384
O20   O     O_R   0.385840 0.938030 0.376050 -0.544069
C58   C     C_R   0.415577 0.915322 0.330841 0.793740
Cu5   Cu    Cu3+1 0.561810 0.000000 0.500000 1.010833
Cu6   Cu    Cu3+1 0.438190 0.000000 0.500000 1.042017
O21   O     O_R   0.552210 0.909840 0.500030 -0.572444
O22   O     O_R   0.447820 0.909840 0.500030 -0.551205
O23   O     O_R   0.614160 0.061970 0.623950 -0.557045
O24   O     O_R   0.509770 0.061970 0.623940 -0.553941
C59   C     C_R   0.499976 0.881007 0.499320 0.823687
C60   C     C_R   0.584414 0.084239 0.669163 0.783601
H16   H     H_    0.158107 0.488824 0.261558 0.170810
C61   C     C_R   0.246551 0.515873 0.253128 -0.132341
H17   H     H_    0.217385 0.465827 0.183384 0.166405
C62   C     C_R   0.317376 0.566856 0.298384 0.221540
C63   C     C_R   0.355367 0.632355 0.389434 -0.014550
C64   C     C_R   0.320234 0.646052 0.433990 -0.046190
C65   C     C_R   0.249635 0.593090 0.386875 -0.126867
H18   H     H_    0.223687 0.601119 0.420867 0.210859
C66   C     C_R   0.212785 0.528972 0.297090 -0.169044
C67   C     C_R   0.431132 0.750744 0.434280 0.129679
C68   C     C_R   0.499866 0.813340 0.497384 -0.081458
C69   C     C_R   0.567494 0.811877 0.560835 0.004233
C70   C     C_R   0.565841 0.747626 0.559991 -0.205745
H19   H     H_    0.617734 0.745862 0.607953 0.155323
C71   C     C_R   0.498075 0.685790 0.498243 -0.056855
C72   C     C_R   0.429723 0.687866 0.437035 0.015838
C73   C     C_R   0.687096 0.892034 0.611431 -0.123159
H20   H     H_    0.670033 0.856657 0.542337 0.173690
C74   C     C_R   0.756205 0.953002 0.679452 -0.205242
H21   H     H_    0.790911 0.963234 0.660988 0.182579
C75   C     C_R   0.780090 0.000790 0.769961 -0.003303
C76   C     C_R   0.733107 0.985429 0.791314 0.155736
C77   C     C_R   0.663483 0.924364 0.722224 -0.199225
H22   H     H_    0.627989 0.912391 0.738944 0.187964
C78   C     C_R   0.639887 0.877841 0.632140 0.053141
C79   C     C_R   0.418490 0.192310 0.197481 -0.171024
H23   H     H_    0.363095 0.170280 0.134451 0.180269
C80   C     C_R   0.422357 0.207819 0.272156 -0.145375
H24   H     H_    0.370215 0.197139 0.265551 0.140226
C81   C     C_R   0.493074 0.235335 0.354287 0.109236
C82   C     C_R   0.559952 0.247725 0.361362 -0.121923
H25   H     H_    0.614808 0.267514 0.423879 0.199096
C83   C     C_R   0.556224 0.232266 0.286780 -0.146768
H26   H     H_    0.608718 0.241655 0.293773 0.207503
C84   C     C_R   0.485386 0.203401 0.203655 0.028868
C85   C     C_R   0.497070 0.181719 0.432891 -0.212408
H27   H     H_    0.493609 0.128880 0.379931 0.148182
C86   C     C_R   0.501032 0.186448 0.502908 -0.035484
C87   C     C_R   0.506369 0.254768 0.572589 0.082266
C88   C     C_R   0.506833 0.317563 0.570287 -0.204556
H28   H     H_    0.511061 0.370344 0.623956 0.144361
C89   C     C_R   0.501604 0.312700 0.499337 -0.089044
C90   C     C_R   0.496623 0.244052 0.429776 0.016242
C91   C     C_R   0.448608 0.253968 0.646154 -0.222496
H29   H     H_    0.394060 0.239703 0.586444 0.166834
C92   C     C_R   0.452076 0.262638 0.717831 0.186019
C93   C     C_R   0.522584 0.281811 0.795803 0.178844
C94   C     C_R   0.588649 0.292094 0.801046 -0.259850
H30   H     H_    0.642476 0.308060 0.862471 0.202943
C95   C     C_R   0.586086 0.282602 0.729004 -0.052183
C96   C     C_R   0.514508 0.263321 0.650419 -0.024706
C97   C     C_2   0.545168 0.724795 0.909847 0.883225
O25   O     O_2   0.614616 0.744832 0.960176 -0.570091
O26   O     O_R   0.508866 0.776204 0.933955 -0.716626
H31   H     H_    0.546130 0.828299 0.993263 0.352530
I1    I     I_    0.395174 0.713514 0.731613 -0.247090
C98   C     C_2   0.075669 0.470635 0.819269 0.873120
O27   O     O_2   0.079151 0.408921 0.804593 -0.561472
O28   O     O_R   0.136507 0.537920 0.899883 -0.756035
H32   H     H_    0.179759 0.528003 0.940196 0.361407
I2    I     I_    0.793273 0.306724 0.482983 -0.330331
C99   C     C_2   0.740960 0.469111 0.613115 0.886003
O29   O     O_2   0.792233 0.505310 0.694612 -0.566025
O30   O     O_R   0.676882 0.411647 0.573081 -0.778707
H33   H     H_    0.679790 0.405062 0.618316 0.355174
I3    I     I_    0.753977 0.523846 0.347482 -0.265147
I4    I     I_    0.546318 0.385347 0.222998 -0.246900
C100  C     C_2   0.525177 0.663252 0.287454 0.884635
O31   O     O_2   0.481845 0.628410 0.204718 -0.550632
O32   O     O_R   0.539360 0.741379 0.344316 -0.781660
H34   H     H_    0.509858 0.762152 0.309076 0.345696
I5    I     I_    0.361077 0.541511 0.222818 -0.300618
C101  C     C_2   0.353049 0.715613 0.527718 0.871849
O33   O     O_2   0.421444 0.751677 0.583047 -0.584424
O34   O     O_R   0.304710 0.739769 0.552968 -0.720004
H35   H     H_    0.332927 0.788074 0.617560 0.365371
I6    I     I_    0.328523 0.748679 0.332652 -0.262396
C102  C     C_2   0.853862 0.065205 0.839438 0.875461
O35   O     O_2   0.905087 0.059930 0.830290 -0.578581
O36   O     O_R   0.864576 0.132948 0.913591 -0.751582
H36   H     H_    0.917189 0.172267 0.954996 0.329821
I7    I     I_    0.764685 0.045487 0.925856 -0.295952
C103  C     C_2   0.481467 0.183516 0.123363 0.887842
O37   O     O_2   0.419999 0.160375 0.051758 -0.558011
O38   O     O_R   0.548218 0.191102 0.129263 -0.734556
H37   H     H_    0.538185 0.176108 0.070224 0.362761
I8    I     I_    0.066443 0.566452 0.350116 -0.291227
I9    I     I_    0.348915 0.246685 0.703843 -0.239406
I10   I     I_    0.534036 0.296421 0.908374 -0.233770
C104  C     C_2   0.658921 0.293602 0.739123 0.854823
O39   O     O_2   0.662462 0.298562 0.686258 -0.578317
O40   O     O_R   0.724470 0.298883 0.810540 -0.766664
H38   H     H_    0.770324 0.306174 0.810522 0.351952

loop_
_geom_bond_atom_site_label_1
_geom_bond_atom_site_label_2
_geom_bond_distance
_ccdc_geom_bond_type
Cu6   O24   1.832290 S    
C53   C71   1.449427 S    
C1    C23   1.505071 S    
O18   C57   1.295011 A    
C67   C72   1.399496 A    
O30   H33   1.013866 S    
C33   H12   1.082298 S    
C64   C65   1.399665 A    
C89   C90   1.412756 A    
C102  O35   1.223531 D    
C77   H22   1.083365 S    
O11   Cu3   1.975050 S    
C65   C66   1.393163 A    
C88   H28   1.084143 S    
O36   H36   1.013618 S    
O19   Cu5   1.832290 S    
O17   Cu5   1.970467 S    
C81   C82   1.400596 A    
C99   O30   1.397028 S    
C100  O31   1.223249 D    
C71   C72   1.409350 A    
Cu1   O7    1.976069 S    
C97   O25   1.223356 D    
H16   C66   1.080947 S    
C57   C86   1.445445 S    
C13   C14   1.393137 A    
C18   C19   1.392985 A    
C91   C96   1.402415 A    
Cu3   O13   1.970002 S    
C45   H15   1.083559 S    
C102  O36   1.396525 S    
C63   C72   1.483632 S    
O4    C2    1.290529 A    
Cu2   O6    1.831529 S    
O7    C4    1.293028 A    
O9    C53   1.234229 A    
C86   C87   1.406750 A    
Cu5   Cu6   2.695951 S    
O20   Cu6   1.830192 S    
C34   C98   1.483309 S    
C13   C22   1.481214 S    
O21   C59   1.293962 A    
C68   C69   1.413417 A    
O23   C60   1.317490 A    
C103  O38   1.398957 S    
C6    H3    1.083657 S    
C48   C49   1.479624 S    
C45   C46   1.401110 A    
O5    C3    1.314698 A    
C70   H19   1.085066 S    
C79   C84   1.407141 A    
C85   C90   1.390342 A    
C88   C89   1.399560 A    
C59   C68   1.450693 S    
O24   C60   1.317719 A    
O26   H31   1.013934 S    
C5    H2    1.082523 S    
C30   I2    2.120936 S    
C64   C101  1.491979 S    
C76   I7    2.124540 S    
C61   H17   1.082451 S    
C43   C100  1.483628 S    
O16   C56   1.236163 A    
C12   C54   1.467957 S    
C36   C56   1.454102 S    
O18   Cu6   1.973604 S    
C29   C34   1.406947 A    
Cu2   O8    1.979317 S    
C11   C16   1.395661 A    
C29   C30   1.400022 A    
C43   C44   1.400996 A    
C37   C38   1.398833 A    
C97   O26   1.397621 S    
C8    C9    1.400339 A    
C20   C97   1.483376 S    
C61   C62   1.394761 A    
C91   C92   1.396286 A    
C75   C102  1.483778 S    
O40   H38   1.013906 S    
C31   C40   1.486235 S    
C19   H9    1.083368 S    
O3    Cu1   1.979315 S    
C65   H18   1.077605 S    
O11   C54   1.243486 A    
C32   C33   1.395651 A    
C101  O33   1.221814 D    
C98   O28   1.399048 S    
C100  O32   1.398891 S    
C19   C20   1.406471 A    
C33   C34   1.403710 A    
C95   C96   1.420416 A    
C55   C89   1.453881 S    
C49   C50   1.247274 T    
Cu4   O14   1.970743 S    
C31   C32   1.401518 A    
C84   C103  1.483224 S    
Cu1   Cu2   2.687681 S    
C51   C52   1.247188 T    
C82   C83   1.397731 A    
O13   C55   1.235220 A    
C99   O29   1.222885 D    
Cu4   O16   1.975051 S    
C47   C48   1.247603 T    
C8    I8    2.120116 S    
C35   C40   1.404664 A    
C11   H5    1.083623 S    
C26   C27   1.479428 S    
C4    C39   1.455710 S    
C44   H14   1.078178 S    
C38   C39   1.407051 A    
O1    C1    1.315203 A    
C18   H8    1.082614 S    
C42   C43   1.407105 A    
C87   C96   1.478639 S    
C50   C51   1.479262 S    
C61   C66   1.387850 A    
C14   H6    1.085413 S    
O9    Cu3   1.970743 S    
O32   H34   1.013904 S    
O15   C56   1.237156 A    
C92   C93   1.403557 A    
O20   C58   1.317171 A    
O17   C57   1.294814 A    
C30   C31   1.408375 A    
C63   C64   1.422709 A    
H1    C10   1.081066 S    
Cu3   Cu4   2.493690 S    
C69   C78   1.480499 S    
C83   C84   1.405999 A    
C104  O40   1.399319 S    
C41   C42   1.400309 A    
C5    C6    1.395555 A    
C21   C22   1.413865 A    
Cu6   O22   1.970466 S    
C41   C46   1.407539 A    
C79   H23   1.082803 S    
C81   C90   1.475534 S    
O22   C59   1.297788 A    
Cu5   O21   1.973603 S    
C24   C25   1.479170 S    
C80   H24   1.083234 S    
C9    C10   1.394544 A    
O10   C53   1.239032 A    
O3    C2    1.292929 A    
C94   C95   1.406589 A    
C23   C24   1.247189 T    
C73   C74   1.394251 A    
C76   C77   1.401358 A    
O10   Cu4   1.970003 S    
C67   I6    2.149003 S    
C32   H11   1.083307 S    
C74   C75   1.406459 A    
C98   O27   1.223320 D    
C7    C16   1.485991 S    
Cu1   O5    1.830766 S    
C27   C28   1.247326 T    
O28   H32   1.013922 S    
O1    Cu1   1.831528 S    
C38   I3    2.157884 S    
C41   I4    2.115149 S    
C15   C16   1.406432 A    
O2    Cu2   1.830766 S    
C25   C26   1.247317 T    
Cu3   O15   1.977287 S    
O8    C4    1.295654 A    
C87   C88   1.391538 A    
C79   C80   1.397705 A    
O6    C3    1.316085 A    
C77   C78   1.400425 A    
O4    Cu2   1.976069 S    
C101  O34   1.399231 S    
O19   C58   1.317949 A    
C35   C99   1.490800 S    
C3    C47   1.505498 S    
C11   C12   1.403096 A    
O12   Cu4   1.977287 S    
C82   H25   1.082244 S    
C69   C70   1.388513 A    
C28   C58   1.505352 S    
C93   I10   2.120437 S    
C17   C22   1.402977 A    
C42   H13   1.082680 S    
C92   I9    2.118861 S    
C85   C86   1.394353 A    
O2    C1    1.315232 A    
C36   C37   1.410111 A    
C21   I1    2.137485 S    
C14   C15   1.395682 A    
Cu5   O23   1.830190 S    
C85   H27   1.085398 S    
C35   C36   1.412341 A    
C75   C76   1.416195 A    
C29   H10   1.082705 S    
C52   C60   1.505075 S    
C17   C18   1.391547 A    
C17   H7    1.083667 S    
C2    C15   1.440900 S    
C6    C7    1.407347 A    
C39   C40   1.414334 A    
C70   C71   1.393113 A    
O38   H37   1.013924 S    
C95   C104  1.492935 S    
C83   H26   1.082613 S    
C104  O39   1.222359 D    
C20   C21   1.418605 A    
C62   I5    2.108441 S    
C7    C8    1.418038 A    
C5    C10   1.392835 A    
O12   C54   1.241299 A    
O14   C55   1.241648 A    
C62   C63   1.414424 A    
C12   C13   1.414838 A    
C80   C81   1.400798 A    
C9    H4    1.082574 S    
C103  O37   1.223332 D    
C93   C94   1.397396 A    
C44   C45   1.393440 A    
C73   H20   1.081613 S    
C91   H29   1.083580 S    
C73   C78   1.399454 A    
O34   H35   1.013861 S    
C67   C68   1.410765 A    
C37   C46   1.481672 S    
C74   H21   1.083291 S    
C94   H30   1.082139 S    
