data_mof_unit_45265.cif
_audit_creation_date              2012-12-10T18:38:10-0500
_audit_creation_method            fapswitch 2.2
_symmetry_space_group_name_H-M    P1
_symmetry_Int_Tables_number       1
_space_group_crystal_system       triclinic
_cell_length_a                    14.977369
_cell_length_b                    15.486406
_cell_length_c                    27.746137
_cell_angle_alpha                 89.945739
_cell_angle_beta                  105.023493
_cell_angle_gamma                 82.428712
_cell_volume                      6157.29166299

loop_
_atom_site_label
_atom_site_type_symbol
_atom_type_description
_atom_site_fract_x
_atom_site_fract_y
_atom_site_fract_z
_atom_type_partial_charge
C1    C     C_R   0.441800 0.662224 0.491692 0.872579
C2    C     C_R   0.453529 0.572194 0.120581 -0.099435
C3    C     C_R   0.504079 0.500747 0.647143 -0.121918
C4    C     C_R   0.496130 0.498266 0.352892 -0.118987
C5    C     C_R   0.464643 0.573788 0.020125 -0.000670
C6    C     C_R   0.526385 0.416929 0.978394 -0.000569
C7    C     C_R   0.528608 0.418028 0.029789 0.089823
C8    C     C_R   0.475862 0.575376 0.970990 0.089855
C9    C     C_R   0.494622 0.496007 0.049971 0.078836
C10   C     C_R   0.503337 0.496170 0.949712 0.078786
C11   C     C_R   0.423040 0.647479 0.040113 -0.320231
C12   C     C_R   0.558030 0.337800 0.505908 0.875367
C13   C     C_R   0.545484 0.338729 0.954610 -0.319401
C14   C     C_R   0.417370 0.647702 0.089690 0.511209
C15   C     C_R   0.547736 0.338092 0.904474 0.511078
C16   C     C_R   0.501227 0.500310 0.594015 0.929128
C17   C     C_R   0.498798 0.499588 0.405988 0.924896
C18   C     C_R   0.461750 0.654016 0.942507 -0.201379
C19   C     C_R   0.564920 0.343831 0.062023 -0.200860
C20   C     C_R   0.406988 0.754348 0.479283 -0.058914
C21   C     C_R   0.591499 0.245931 0.501435 -0.057552
C22   C     C_R   0.282200 0.873053 0.449201 -0.188939
C23   C     C_R   0.507505 0.496415 0.899276 -0.129227
C24   C     C_R   0.712951 0.128218 0.498138 -0.190947
C25   C     C_R   0.311457 0.785217 0.463141 -0.185157
C26   C     C_R   0.685843 0.215575 0.506149 -0.187095
C27   C     C_R   0.472360 0.811049 0.480218 -0.250755
C28   C     C_R   0.524988 0.189214 0.487744 -0.253548
C29   C     C_R   0.444890 0.898167 0.464470 0.094653
C30   C     C_R   0.549771 0.102897 0.477114 0.094047
C31   C     C_R   0.348291 0.930078 0.450666 0.173954
C32   C     C_R   0.645686 0.071314 0.484492 0.174002
C33   C     C_R   0.511661 0.955438 0.465870 0.070366
C34   C     C_R   0.491099 0.496162 0.100510 -0.129276
C35   C     C_R   0.481701 0.045980 0.462905 0.071933
C36   C     C_R   0.384894 0.076336 0.446665 -0.218003
C37   C     C_R   0.607341 0.925456 0.471027 -0.219076
C38   C     C_R   0.319316 0.018716 0.439707 -0.221705
C39   C     C_R   0.673010 0.983114 0.479194 -0.224245
C40   C     C_R   0.491822 0.575613 0.821471 0.596190
C41   C     C_R   0.523929 0.421200 0.181190 0.596838
C42   C     C_R   0.843325 0.638764 0.573316 -0.307569
C43   C     C_R   0.156896 0.360786 0.426920 -0.308428
C44   C     C_R   0.754005 0.615791 0.561461 0.013865
C45   C     C_R   0.488970 0.575932 0.871351 -0.015479
C46   C     C_R   0.246149 0.383928 0.438701 0.015152
C47   C     C_R   0.793634 0.509937 0.505932 -0.060668
C48   C     C_R   0.206312 0.490108 0.494010 -0.059066
C49   C     C_R   0.885749 0.530100 0.516279 -0.001163
C50   C     C_R   0.114307 0.469693 0.483792 -0.001486
C51   C     C_R   0.909558 0.596150 0.550831 0.175727
C52   C     C_R   0.090596 0.403467 0.449347 0.178623
C53   C     C_R   0.954204 0.487534 0.493762 0.081591
C54   C     C_R   0.045878 0.512176 0.506351 0.081543
C55   C     C_R   0.066087 0.578292 0.541058 -0.234666
C56   C     C_R   0.525812 0.420070 0.131159 -0.014941
C57   C     C_R   0.934072 0.421253 0.459154 -0.234636
C58   C     C_R   0.999074 0.619261 0.562742 -0.198494
C59   C     C_R   0.001133 0.380214 0.437516 -0.197966
C60   C     C_R   0.531594 0.420904 0.826145 0.638237
C61   C     C_R   0.453411 0.569810 0.171316 0.637312
C62   C     C_R   0.589350 0.513776 0.733646 0.444053
C63   C     C_R   0.412771 0.478717 0.266800 0.442063
C64   C     C_R   0.586134 0.514206 0.682758 -0.331927
C65   C     C_R   0.415676 0.479998 0.317627 -0.331404
C66   C     C_R   0.424685 0.487303 0.662508 -0.330745
C67   C     C_R   0.467942 0.654079 0.893589 -0.122801
C68   C     C_R   0.574175 0.515091 0.337220 -0.333213
C69   C     C_R   0.426971 0.486846 0.713221 0.435418
C70   C     C_R   0.572132 0.514036 0.286532 0.436415
C71   C     C_R   0.509556 0.499900 0.748395 0.238577
C72   C     C_R   0.491211 0.495889 0.251726 0.238990
C73   C     C_R   0.563196 0.344940 0.111668 -0.123711
C74   C     C_R   0.529757 0.417525 0.876618 -0.099145
H1    H     H_    0.738304 0.259011 0.516019 0.159580
H2    H     H_    0.701993 0.648192 0.578497 0.137379
H3    H     H_    0.860476 0.689352 0.599766 0.152013
H4    H     H_    0.139870 0.309984 0.400597 0.147459
H5    H     H_    0.133339 0.600343 0.552550 0.140824
H6    H     H_    0.866890 0.399033 0.447774 0.140937
H7    H     H_    0.355199 0.466786 0.329475 0.172744
H8    H     H_    0.647697 0.524649 0.671142 0.173545
H9    H     H_    0.448262 0.717211 0.957405 0.149310
H10   H     H_    0.598084 0.284322 0.050499 0.148924
H11   H     H_    0.245731 0.044097 0.427839 0.148258
H12   H     H_    0.259714 0.741852 0.461538 0.160729
H13   H     H_    0.745806 0.958011 0.483486 0.149959
H14   H     H_    0.360960 0.477187 0.635220 0.171551
H15   H     H_    0.636610 0.529092 0.364236 0.171497
H16   H     H_    0.453624 0.212770 0.486974 0.162176
H17   H     H_    0.545254 0.786844 0.495080 0.160987
H18   H     H_    0.208147 0.896610 0.437908 0.141180
H19   H     H_    0.786335 0.104989 0.503012 0.140421
H20   H     H_    0.297814 0.465813 0.700304 0.339387
H21   H     H_    0.698761 0.542058 0.298887 0.338542
H22   H     H_    0.455804 0.716035 0.873172 0.192066
H23   H     H_    0.358158 0.144369 0.438087 0.144261
H24   H     H_    0.591970 0.286383 0.134856 0.191308
H25   H     H_    0.285925 0.450378 0.247802 0.340043
H26   H     H_    0.718664 0.535180 0.753204 0.340350
H27   H     H_    0.355555 0.768240 0.081916 0.331721
H28   H     H_    0.578439 0.211085 0.907035 0.331558
H29   H     H_    0.391507 0.705455 0.017374 0.141919
H30   H     H_    0.555966 0.276259 0.973769 0.141145
H31   H     H_    0.632910 0.857773 0.467805 0.153281
H32   H     H_    0.017624 0.669649 0.589159 0.152100
H33   H     H_    0.982665 0.329663 0.411200 0.151148
H34   H     H_    0.231438 0.539177 0.519423 0.127079
H35   H     H_    0.768390 0.461100 0.480374 0.127403
H36   H     H_    0.298239 0.351401 0.421752 0.130469
N1    N     N_R   0.512103 0.498897 0.800111 -0.327428
N2    N     N_R   0.488723 0.495381 0.200018 -0.327308
N3    N     N_R   0.731710 0.552720 0.528410 -0.101746
N4    N     N_R   0.268290 0.447280 0.471590 -0.100167
O1    O     O_R   0.383110 0.605620 0.485680 -0.619999
O2    O     O_2   0.557365 0.348987 0.211046 -0.547925
O3    O     O_2   0.419395 0.641013 0.192288 -0.461184
O4    O     O_2   0.552184 0.347386 0.802862 -0.460819
O5    O     O_3   0.350020 0.473866 0.729585 -0.744304
O6    O     O_3   0.647626 0.530625 0.269837 -0.745061
O7    O     O_3   0.334758 0.460982 0.231112 -0.737693
O8    O     O_3   0.669045 0.526367 0.769704 -0.737478
O9    O     O_3   0.376498 0.721160 0.108233 -0.687015
O10   O     O_3   0.566808 0.260258 0.882307 -0.686800
O11   O     O_R   0.616890 0.394380 0.514320 -0.619120
O12   O     O_R   0.531900 0.639510 0.503910 -0.624325
O13   O     O_R   0.468100 0.360490 0.496090 -0.623069
O14   O     O_R   0.425620 0.483050 0.562130 -0.620896
O15   O     O_R   0.574380 0.516950 0.437870 -0.623828
O16   O     O_R   0.574410 0.516930 0.580360 -0.620718
O17   O     O_R   0.425590 0.483070 0.419640 -0.622792
O18   O     O_2   0.473644 0.651164 0.794197 -0.546121
Zn1   Zn    Zn3+2 0.400660 0.477380 0.487830 0.949118
Zn2   Zn    Zn3+2 0.599340 0.522620 0.512170 0.947710

loop_
_geom_bond_atom_site_label_1
_geom_bond_atom_site_label_2
_ccdc_geom_bond_type
O11   Zn2   S    
C21   C26   A    
C63   C65   A    
C34   C56   A    
C23   C45   A    
C17   O17   A    
C35   C36   A    
C39   H13   S    
C72   N2    S    
C62   C71   A    
C47   C49   A    
C12   O13   A    
C53   C54   A    
C43   H4    S    
C5    C9    A    
C50   C54   A    
C30   C35   A    
C24   C26   A    
C5    C11   A    
C66   H14   S    
C4    C65   A    
C11   C14   A    
C43   C52   A    
C57   C59   A    
C66   C69   A    
C27   C29   A    
C20   C25   A    
C29   C33   A    
C69   C71   A    
C32   C39   A    
C60   C74   A    
C44   H2    S    
C62   C64   A    
C70   O6    S    
C49   C51   A    
C41   N2    A    
C71   N1    S    
C45   C67   A    
C50   C52   A    
C60   O4    S    
C36   H23   S    
C14   O9    S    
C16   O16   A    
C2    C61   A    
C42   C51   A    
H25   O7    S    
C2    C34   A    
C48   C50   A    
C40   O18   S    
C57   H6    S    
O16   Zn2   S    
C42   C44   A    
H28   O10   S    
C63   O7    S    
C18   H9    S    
C40   N1    A    
C40   C45   A    
C37   C39   A    
C22   C31   A    
C46   N4    A    
C38   H11   S    
C61   O3    S    
C19   C73   A    
C1    O1    A    
C1    O12   A    
C15   O10   S    
C4    C68   A    
C53   C57   A    
C12   O11   A    
O1    Zn1   S    
C18   C67   A    
C3    C64   A    
C17   O15   A    
C12   C21   S    
C22   C25   A    
C33   C37   A    
C58   H32   S    
C24   C32   A    
C41   C56   A    
C37   H31   S    
C52   C59   A    
C55   H5    S    
H20   O5    S    
C65   H7    S    
C13   C15   A    
C8    C18   A    
C26   H1    S    
C51   C58   A    
H27   O9    S    
C13   H30   S    
C27   H17   S    
C16   O14   A    
C64   H8    S    
C4    C17   S    
C8    C10   A    
C21   C28   A    
C44   N3    A    
C7    C19   A    
N3    Zn2   S    
C46   H36   S    
C67   H22   S    
H21   O6    S    
C3    C66   A    
C23   C74   A    
C19   H10   S    
C62   O8    S    
C48   N4    A    
C47   N3    A    
C54   C55   A    
C1    C20   S    
C56   C73   A    
O13   Zn1   S    
O17   Zn1   S    
C6    C10   A    
C5    C8    A    
C70   C72   A    
C6    C7    A    
C20   C27   A    
C10   C23   A    
C11   H29   S    
C31   C38   A    
C36   C38   A    
C29   C31   A    
C60   N1    A    
C47   H35   S    
C24   H19   S    
C6    C13   A    
C30   C32   A    
C48   H34   S    
C49   C53   A    
C28   C30   A    
C25   H12   S    
C33   C35   A    
N4    Zn1   S    
C69   O5    S    
C9    C34   A    
H26   O8    S    
C2    C14   A    
C43   C46   A    
C59   H33   S    
C73   H24   S    
O15   Zn2   S    
C7    C9    A    
C15   C74   A    
C63   C72   A    
O12   Zn2   S    
C42   H3    S    
C68   C70   A    
C55   C58   A    
C22   H18   S    
C28   H16   S    
C41   O2    S    
C68   H15   S    
O14   Zn1   S    
C61   N2    A    
C3    C16   S    
