data_mof_unit_41701.cif
_audit_creation_date              2013-03-05T15:48:17-0500
_audit_creation_method            fapswitch 2.2
_symmetry_space_group_name_H-M    P1
_symmetry_Int_Tables_number       1
_space_group_crystal_system       triclinic
_cell_length_a                    15.703034
_cell_length_b                    15.702318
_cell_length_c                    34.334425
_cell_angle_alpha                 89.791894
_cell_angle_beta                  90.292011
_cell_angle_gamma                 119.774114
_cell_volume                      7348.28171235

loop_
_atom_site_label
_atom_site_type_symbol
_atom_site_description
_atom_site_fract_x
_atom_site_fract_y
_atom_site_fract_z
_atom_type_partial_charge
O1    O     O_R   0.498680 0.159540 0.541860 -0.434619
O2    O     O_R   0.840460 0.339140 0.541860 -0.436410
O3    O     O_R   0.660860 0.501320 0.541860 -0.446297
O4    O     O_R   0.159540 0.498680 0.041860 -0.456900
O5    O     O_R   0.339140 0.840460 0.041860 -0.451397
O6    O     O_R   0.501320 0.660860 0.041860 -0.452009
O7    O     O_R   0.532760 0.358060 0.540030 -0.468808
O8    O     O_R   0.641940 0.174700 0.540030 -0.469919
O9    O     O_R   0.825300 0.467240 0.540030 -0.474334
O10   O     O_R   0.358060 0.532760 0.040030 -0.453305
O11   O     O_R   0.174700 0.641940 0.040030 -0.450178
O12   O     O_R   0.467240 0.825300 0.040030 -0.454597
C1    C     C_R   0.577067 0.442209 0.554460 0.586497
C2    C     C_R   0.558536 0.136287 0.555042 0.593324
C3    C     C_R   0.865664 0.423268 0.554578 0.593222
C4    C     C_R   0.442339 0.578223 0.054986 0.600693
C5    C     C_R   0.136296 0.557889 0.055021 0.604044
C6    C     C_R   0.421531 0.863290 0.055179 0.612856
O13   O     O_R   0.498590 0.161190 0.456930 -0.425789
O14   O     O_R   0.838810 0.337400 0.456930 -0.481405
O15   O     O_R   0.662600 0.501410 0.456930 -0.423999
O16   O     O_R   0.161190 0.498590 0.956930 -0.435296
O17   O     O_R   0.337400 0.838810 0.956930 -0.419263
O18   O     O_R   0.501410 0.662600 0.956930 -0.441025
O19   O     O_R   0.532680 0.359580 0.461300 -0.455965
O20   O     O_R   0.640420 0.173100 0.461300 -0.455874
O21   O     O_R   0.826900 0.467320 0.461300 -0.434584
O22   O     O_R   0.359580 0.532680 0.961300 -0.450859
O23   O     O_R   0.173100 0.640420 0.961300 -0.451891
O24   O     O_R   0.467320 0.826900 0.961300 -0.422772
C7    C     C_R   0.577150 0.442068 0.445340 0.617191
C8    C     C_R   0.558038 0.135247 0.445357 0.620954
C9    C     C_R   0.865408 0.423243 0.445593 0.577222
C10   C     C_R   0.442579 0.577692 0.945495 0.614084
C11   C     C_R   0.135127 0.557347 0.945247 0.618027
C12   C     C_R   0.391373 0.808699 0.940600 0.599622
Cr1   Cr    Cr6+3 0.522350 0.263930 0.500020 1.221719
Cr2   Cr    Cr6+3 0.736070 0.258420 0.500020 1.197067
Cr3   Cr    Cr6+3 0.741580 0.477650 0.500020 1.218074
Cr4   Cr    Cr6+3 0.263930 0.522350 0.000020 1.206668
Cr5   Cr    Cr6+3 0.258420 0.736070 0.000020 1.214812
Cr6   Cr    Cr6+3 0.477650 0.741580 0.000020 1.212314
O25   O     O_3   0.666667 0.333333 0.499990 -0.347579
O26   O     O_3   0.333333 0.666667 0.999990 -0.382140
N1    N     N_R   0.907457 0.421707 0.774484 -0.087653
N2    N     N_R   0.580107 0.519034 0.770832 -0.080347
N3    N     N_R   0.380827 0.903645 0.757116 -0.090591
N4    N     N_R   0.469713 0.908983 0.274521 -0.106568
N5    N     N_R   0.445956 0.540572 0.274164 -0.102696
N6    N     N_R   0.080955 0.543489 0.273050 -0.103962
N7    N     N_R   0.903836 0.417963 0.735793 -0.119884
N8    N     N_R   0.585864 0.520104 0.732200 -0.125191
N9    N     N_R   0.395318 0.931865 0.720055 -0.121611
N10   N     N_R   0.465033 0.900053 0.236014 -0.132315
N11   N     N_R   0.442621 0.544813 0.235587 -0.134039
N12   N     N_R   0.089276 0.547821 0.234541 -0.133375
C13   C     C_R   0.924389 0.461826 0.591106 -0.055322
C14   C     C_R   0.538732 0.465390 0.589946 -0.065398
C15   C     C_R   0.532459 0.067947 0.588676 -0.063208
C16   C     C_R   0.454756 0.917626 0.092561 -0.062633
C17   C     C_R   0.465039 0.544462 0.092086 -0.057748
C18   C     C_R   0.079161 0.534458 0.091736 -0.058034
C19   C     C_R   0.955322 0.404367 0.612198 0.182491
C20   C     C_R   0.587582 0.562122 0.605100 0.161017
C21   C     C_R   0.433030 0.999003 0.596493 0.171963
C22   C     C_R   0.383869 0.909929 0.119795 0.152643
C23   C     C_R   0.531838 0.614848 0.118732 0.150363
C24   C     C_R   0.081516 0.466057 0.118129 0.153059
C25   C     C_R   0.969463 0.417679 0.652876 0.173738
C26   C     C_R   0.576773 0.576937 0.644811 0.159549
C27   C     C_R   0.407292 0.944359 0.631380 0.168487
C28   C     C_R   0.410421 0.937659 0.158520 0.159228
C29   C     C_R   0.531706 0.589923 0.157818 0.155556
C30   C     C_R   0.050161 0.460812 0.156477 0.158938
C31   C     C_R   0.960057 0.492560 0.671502 -0.057346
C32   C     C_R   0.511551 0.497360 0.667969 -0.059220
C33   C     C_R   0.481011 0.957551 0.658291 -0.052923
C34   C     C_R   0.507280 0.969972 0.170805 -0.061497
C35   C     C_R   0.463754 0.495095 0.170830 -0.061591
C36   C     C_R   0.020211 0.526648 0.169353 -0.060493
C37   C     C_R   0.948152 0.561172 0.649138 0.156454
C38   C     C_R   0.450986 0.404700 0.651331 0.157776
C39   C     C_R   0.580528 0.021791 0.649568 0.166414
C40   C     C_R   0.581147 0.990192 0.143155 0.174212
C41   C     C_R   0.407592 0.420594 0.143663 0.174125
C42   C     C_R   0.004948 0.585692 0.142336 0.174182
C43   C     C_R   0.932634 0.547237 0.608767 0.145731
C44   C     C_R   0.464056 0.388501 0.612249 0.146452
C45   C     C_R   0.606060 0.076106 0.614799 0.157299
C46   C     C_R   0.555116 0.965973 0.103539 0.177826
C47   C     C_R   0.409960 0.444918 0.103788 0.182080
C48   C     C_R   0.032093 0.587645 0.102945 0.182892
N13   N     N_R   0.023759 0.583785 0.732868 -0.104051
N14   N     N_R   0.427389 0.497805 0.727478 -0.113977
N15   N     N_R   0.495669 0.862233 0.712484 -0.098479
N16   N     N_R   0.595447 0.060698 0.229651 -0.115908
N17   N     N_R   0.459613 0.405464 0.230441 -0.114797
N18   N     N_R   0.930526 0.524258 0.228367 -0.114365
N19   N     N_R   0.027384 0.587491 0.771605 -0.140620
N20   N     N_R   0.421986 0.497412 0.766093 -0.129507
N21   N     N_R   0.480694 0.833561 0.749587 -0.112264
N22   N     N_R   0.600635 0.069420 0.268280 -0.137551
N23   N     N_R   0.462293 0.400810 0.269121 -0.136128
N24   N     N_R   0.922392 0.520520 0.267006 -0.131821
C49   C     C_R   0.969602 0.506389 0.793121 0.418085
C50   C     C_R   0.497567 0.506488 0.788499 0.418253
C51   C     C_R   0.424216 0.855155 0.772817 0.401826
C52   C     C_R   0.536799 0.994224 0.291224 0.435495
C53   C     C_R   0.456991 0.469152 0.291528 0.432046
C54   C     C_R   0.996973 0.528658 0.289877 0.425390
C55   C     C_R   0.962827 0.498522 0.714316 0.388934
C56   C     C_R   0.509544 0.509337 0.709996 0.396633
C57   C     C_R   0.453903 0.912733 0.697224 0.391770
C58   C     C_R   0.526596 0.976072 0.212898 0.404004
C59   C     C_R   0.450889 0.478407 0.213049 0.400866
C60   C     C_R   0.014020 0.537163 0.211534 0.401924
C61   C     C_R   0.005854 0.434791 0.850651 0.206841
C62   C     C_R   0.571984 0.573072 0.853405 0.214282
C63   C     C_R   0.326097 0.809046 0.833662 0.203516
C64   C     C_R   0.451131 0.010062 0.348434 0.201539
C65   C     C_R   0.556536 0.553513 0.349636 0.204168
C66   C     C_R   0.992364 0.438897 0.350028 0.267241
C67   C     C_R   0.053200 0.450224 0.887103 0.190469
C68   C     C_R   0.558064 0.593227 0.892223 0.197287
C69   C     C_R   0.320740 0.806131 0.874778 0.160413
C70   C     C_R   0.456655 0.049009 0.386133 0.191506
C71   C     C_R   0.590211 0.546210 0.387200 0.194574
C72   C     C_R   0.964830 0.415217 0.389369 0.192234
C73   C     C_R   0.035321 0.594562 0.897405 0.196561
C74   C     C_R   0.387584 0.460308 0.889316 0.179244
C75   C     C_R   0.487414 0.831658 0.878402 0.178914
C76   C     C_R   0.615348 0.057763 0.395927 0.187531
C77   C     C_R   0.442281 0.386257 0.395595 0.184183
C78   C     C_R   0.930976 0.551320 0.393116 0.198263
C79   C     C_R   0.996304 0.584068 0.859201 0.114027
C80   C     C_R   0.399891 0.445257 0.849702 0.135251
C81   C     C_R   0.494875 0.842197 0.837313 0.139265
C82   C     C_R   0.614595 0.030188 0.356810 0.134304
C83   C     C_R   0.414812 0.389381 0.356649 0.136399
C84   C     C_R   0.957744 0.574151 0.353716 0.135599
C85   C     C_R   0.986747 0.506685 0.835380 -0.004993
C86   C     C_R   0.490449 0.506417 0.831290 -0.000866
C87   C     C_R   0.414940 0.833591 0.815148 0.003761
C88   C     C_R   0.533432 0.009099 0.333100 -0.001420
C89   C     C_R   0.474166 0.471697 0.333583 -0.000883
C90   C     C_R   0.984373 0.515342 0.332110 -0.013383
C91   C     C_R   0.071759 0.532869 0.909891 0.042617
C92   C     C_R   0.464025 0.540430 0.909325 0.041498
C93   C     C_R   0.401181 0.817243 0.897310 0.020092
C94   C     C_R   0.540717 0.076142 0.409404 0.037415
C95   C     C_R   0.534684 0.460504 0.409603 0.035561
C96   C     C_R   0.924867 0.465576 0.409765 -0.016013
N25   N     N_R   0.977408 0.337414 0.591937 0.138298
O27   O     O_R   0.960383 0.254981 0.607655 -0.129682
O28   O     O_R   0.022698 0.362932 0.558653 -0.262886
N26   N     N_R   0.643055 0.644661 0.579674 0.130487
O29   O     O_R   0.723848 0.720786 0.591346 -0.146664
O30   O     O_R   0.608847 0.646617 0.545273 -0.260113
N27   N     N_R   0.358638 0.980210 0.568003 0.131256
O31   O     O_R   0.361614 0.944722 0.534179 -0.262895
O32   O     O_R   0.296907 0.011432 0.573611 -0.146035
N28   N     N_R   0.282831 0.867798 0.109118 0.138127
O33   O     O_R   0.225970 0.773334 0.111434 -0.300235
O34   O     O_R   0.244724 0.923980 0.103818 -0.162301
N29   N     N_R   0.598002 0.713392 0.106796 0.143460
O35   O     O_R   0.575337 0.781525 0.112472 -0.274465
O36   O     O_R   0.678834 0.734163 0.088847 -0.179347
N30   N     N_R   0.122169 0.405951 0.107179 0.139364
O37   O     O_R   0.064607 0.312968 0.100465 -0.163449
O38   O     O_R   0.216094 0.440424 0.110649 -0.292633
N31   N     N_R   0.921831 0.618309 0.586058 0.129788
O39   O     O_R   0.858553 0.644763 0.596034 -0.200731
O40   O     O_R   0.975178 0.656429 0.555140 -0.230676
N32   N     N_R   0.404979 0.292099 0.596272 0.130343
O41   O     O_R   0.344919 0.278302 0.567626 -0.215325
O42   O     O_R   0.405043 0.216978 0.612368 -0.235456
N33   N     N_R   0.706941 0.146192 0.608029 0.120132
O43   O     O_R   0.758410 0.124635 0.584661 -0.199129
O44   O     O_R   0.750268 0.225089 0.629202 -0.293049
N34   N     N_R   0.629622 0.988174 0.074709 0.129271
O45   O     O_R   0.702811 0.973502 0.081817 -0.145360
O46   O     O_R   0.624962 0.024441 0.041143 -0.262802
N35   N     N_R   0.355119 0.369732 0.075403 0.130682
O47   O     O_R   0.394054 0.371419 0.041834 -0.272860
O48   O     O_R   0.266827 0.299029 0.082859 -0.144618
N36   N     N_R   0.014967 0.645602 0.074737 0.131218
O49   O     O_R   0.979512 0.609412 0.040562 -0.269855
O50   O     O_R   0.033806 0.734113 0.082993 -0.143415
O51   O     O_3   0.085741 0.387860 0.900139 -0.614510
H1    H     H_    0.102576 0.360304 0.877496 0.379413
O52   O     O_3   0.633915 0.666627 0.913431 -0.618391
H2    H     H_    0.678776 0.718976 0.895401 0.365785
O53   O     O_3   0.237646 0.793231 0.893558 -0.634696
H3    H     H_    0.206676 0.823017 0.877494 0.390949
O54   O     O_3   0.383581 0.065310 0.400082 -0.609620
H4    H     H_    0.350405 0.077173 0.377858 0.381489
O55   O     O_3   0.678533 0.619295 0.401862 -0.612285
H5    H     H_    0.723227 0.654551 0.379992 0.381740
O56   O     O_3   0.975620 0.341642 0.406673 -0.623772
H6    H     H_    0.992109 0.358629 0.434500 0.364616
N37   N     N_R   0.996710 0.357669 0.675277 0.132921
O57   O     O_R   0.082880 0.397011 0.691623 -0.219807
O58   O     O_R   0.930095 0.269369 0.685209 -0.134974
N38   N     N_R   0.630144 0.672849 0.661662 0.130435
O59   O     O_R   0.583163 0.716453 0.673752 -0.232309
O60   O     O_R   0.721499 0.707643 0.671661 -0.143893
N39   N     N_R   0.306571 0.872938 0.638927 0.121495
O61   O     O_R   0.282892 0.783825 0.648852 -0.258824
O62   O     O_R   0.239543 0.898586 0.639056 -0.145233
N40   N     N_R   0.337979 0.931248 0.185739 0.135435
O63   O     O_R   0.356224 0.006100 0.207540 -0.204250
O64   O     O_R   0.255316 0.849784 0.189899 -0.181845
N41   N     N_R   0.601652 0.661198 0.184454 0.134455
O65   O     O_R   0.656373 0.639144 0.206015 -0.203138
O66   O     O_R   0.606627 0.745783 0.189026 -0.181889
N42   N     N_R   0.051369 0.389941 0.182882 0.135640
O67   O     O_R   0.974286 0.334032 0.203658 -0.205776
O68   O     O_R   0.130681 0.384338 0.187701 -0.173446
N43   N     N_R   0.947759 0.643026 0.667464 0.134424
O69   O     O_R   0.009716 0.732150 0.656568 -0.131612
O70   O     O_R   0.881928 0.628456 0.693503 -0.216112
N44   N     N_R   0.378556 0.325438 0.674434 0.133667
O71   O     O_R   0.287764 0.277118 0.662690 -0.145646
O72   O     O_R   0.404077 0.297608 0.706015 -0.226584
N45   N     N_R   0.656208 0.037147 0.677047 0.138209
O73   O     O_R   0.730329 0.027665 0.666192 -0.131494
O74   O     O_R   0.655895 0.069439 0.711867 -0.218179
N46   N     N_R   0.681762 0.033780 0.155254 0.138716
O75   O     O_R   0.747378 0.116948 0.140358 -0.189818
O76   O     O_R   0.708115 0.990631 0.181177 -0.168178
N47   N     N_R   0.347459 0.321179 0.156496 0.138637
O77   O     O_R   0.361765 0.252160 0.142798 -0.188730
O78   O     O_R   0.278233 0.299288 0.181828 -0.166910
N48   N     N_R   0.963862 0.644666 0.154886 0.137554
O79   O     O_R   0.883357 0.633183 0.139073 -0.187737
O80   O     O_R   0.007206 0.710621 0.181841 -0.168375
O81   O     O_3   0.983736 0.353306 0.828304 -0.598156
H7    H     H_    0.966216 0.296941 0.845944 0.373420
O82   O     O_3   0.662950 0.621624 0.835868 -0.584530
H8    H     H_    0.713894 0.635549 0.855873 0.374296
O83   O     O_3   0.244893 0.786331 0.810795 -0.607097
H9    H     H_    0.185402 0.738164 0.824913 0.360137
O84   O     O_3   0.368881 0.977991 0.325114 -0.602040
H10   H     H_    0.310249 0.951234 0.342032 0.371881
O85   O     O_3   0.605894 0.637033 0.327095 -0.598339
H11   H     H_    0.636170 0.694805 0.344558 0.371220
O86   O     O_3   0.023756 0.386467 0.327739 -0.583351
H12   H     H_    0.024065 0.333722 0.343483 0.416028
O87   O     O_3   0.039181 0.664051 0.923048 -0.590538
H13   H     H_    0.990052 0.682897 0.915233 0.384470
O88   O     O_3   0.300902 0.400454 0.908706 -0.610958
H14   H     H_    0.263865 0.337177 0.894845 0.383282
O89   O     O_3   0.564006 0.838526 0.900905 -0.621790
H15   H     H_    0.621019 0.852289 0.884553 0.381415
O90   O     O_3   0.689307 0.069760 0.421255 -0.610175
H16   H     H_    0.720484 0.032496 0.411579 0.384210
O91   O     O_3   0.381584 0.310420 0.420204 -0.609895
H17   H     H_    0.313202 0.279305 0.410478 0.384751
O92   O     O_3   0.908637 0.610324 0.415735 -0.604678
H18   H     H_    0.938020 0.676757 0.404181 0.383090
N49   N     N_R   0.967333 0.651854 0.844414 0.082170
O93   O     O_R   0.885190 0.619729 0.825365 -0.242549
O94   O     O_R   0.024598 0.745990 0.848430 -0.265526
N50   N     N_R   0.319748 0.369755 0.827900 0.090441
O95   O     O_R   0.331856 0.305722 0.808358 -0.213184
O96   O     O_R   0.236558 0.368788 0.825464 -0.265414
N51   N     N_R   0.584730 0.864685 0.818338 0.082723
O97   O     O_R   0.642929 0.953014 0.805559 -0.205009
O98   O     O_R   0.608003 0.796614 0.813570 -0.256726
N52   N     N_R   0.697738 0.027480 0.340842 0.086961
O99   O     O_R   0.685480 0.952612 0.320360 -0.238817
O100  O     O_R   0.785789 0.101640 0.345548 -0.220568
N53   N     N_R   0.328785 0.307635 0.340145 0.090971
O101  O     O_R   0.266000 0.321824 0.320355 -0.228946
O102  O     O_R   0.315322 0.219185 0.343334 -0.254574
N54   N     N_R   0.953295 0.654061 0.335124 0.089103
O103  O     O_R   0.027717 0.719376 0.315302 -0.228814
O104  O     O_R   0.872776 0.658516 0.336105 -0.257654

loop_
_geom_bond_atom_site_label_1
_geom_bond_atom_site_label_2
_geom_bond_distance
_ccdc_geom_bond_type
C62   O82   1.381331 S    
N21   C51   1.358507 A    
O7    C1    1.250476 A    
N31   O39   1.300629 A    
C25   N37   1.433295 S    
N29   O35   1.299844 A    
N16   N22   1.331740 A    
C80   N50   1.436907 S    
C63   C87   1.404338 A    
N37   O57   1.300827 A    
O82   H8    0.990614 S    
C41   N47   1.434548 S    
C52   C88   1.462898 S    
C21   N27   1.434107 S    
C29   N41   1.439318 S    
N46   O76   1.301098 A    
C41   C47   1.415735 A    
O88   H14   0.989286 S    
N4    C52   1.352490 A    
N41   O65   1.301361 A    
O21   C9    1.247876 A    
O20   C8    1.248166 A    
O16   C11   1.245115 A    
O15   C7    1.258005 A    
N50   O95   1.301302 A    
O87   H13   0.989323 S    
C42   N48   1.434770 S    
Cr6   O26   1.967702 S    
C43   N31   1.436141 S    
N3    C51   1.357591 A    
N26   O29   1.300451 A    
N42   O68   1.301094 A    
O91   H17   0.989821 S    
N45   O74   1.301300 A    
C35   C59   1.469146 S    
N35   O48   1.301216 A    
N40   O63   1.301388 A    
C78   C84   1.409882 A    
O89   H15   0.987685 S    
C48   N36   1.439644 S    
C12   C93   1.493751 S    
N7    C55   1.355888 A    
N1    N7    1.329611 A    
C24   C30   1.395843 A    
O84   H10   0.990514 S    
C37   N43   1.435887 S    
N2    N8    1.329422 A    
C78   C96   1.419647 A    
O9    Cr3   1.958453 S    
C44   N32   1.434951 S    
C22   N28   1.429234 S    
O10   Cr4   1.959503 S    
O83   H9    0.989933 S    
C15   C45   1.414136 A    
N14   C56   1.353680 A    
O2    Cr2   2.069550 S    
N32   O41   1.301133 A    
C36   C42   1.410567 A    
O13   Cr1   2.084357 S    
C76   O90   1.383516 S    
C71   C95   1.413137 A    
C73   C79   1.419958 A    
C10   C92   1.484340 S    
C70   O54   1.381957 S    
C72   C96   1.418032 A    
C28   N40   1.440130 S    
C19   C25   1.412967 A    
O21   Cr3   1.955571 S    
C78   O92   1.383994 S    
N33   O44   1.300219 A    
C18   C48   1.417806 A    
N15   N21   1.332130 A    
C80   C86   1.411577 A    
N27   O32   1.300635 A    
N22   C52   1.358461 A    
C76   C94   1.418873 A    
C23   C29   1.396277 A    
C45   N33   1.430066 S    
C67   O51   1.382692 S    
O6    C4    1.245426 A    
N13   N19   1.331177 A    
O3    C1    1.252974 A    
C37   C43   1.405132 A    
O1    Cr1   2.066869 S    
O92   H18   0.989580 S    
N3    N9    1.328949 A    
C83   N53   1.438391 S    
C30   N42   1.440199 S    
C23   N29   1.429977 S    
C61   C67   1.411251 A    
C27   N39   1.437653 S    
C81   C87   1.412635 A    
C61   O81   1.381856 S    
O56   H6    0.990840 S    
N29   O36   1.301022 A    
C30   C36   1.404856 A    
O85   H11   0.990562 S    
C82   C88   1.403198 A    
C14   C20   1.418017 A    
C3    C13   1.493010 S    
N16   C58   1.355702 A    
C34   C58   1.468857 S    
N48   O80   1.301088 A    
O8    Cr2   1.969227 S    
N6    C54   1.352391 A    
C39   C45   1.403979 A    
O13   C8    1.256148 A    
C71   O55   1.382130 S    
C11   C91   1.490871 S    
N46   O75   1.301081 A    
N1    C49   1.356819 A    
N34   O46   1.301388 A    
N45   O73   1.301041 A    
N28   O34   1.300575 A    
N41   O66   1.301218 A    
C26   N38   1.432871 S    
N19   C49   1.357635 A    
C46   N34   1.440275 S    
O22   C10   1.257879 A    
C79   C85   1.411647 A    
O12   Cr6   1.967443 S    
N39   O61   1.301328 A    
C39   N45   1.437430 S    
C36   C60   1.467414 S    
N4    N10   1.327842 A    
C74   O88   1.383280 S    
C22   C28   1.396251 A    
N42   O67   1.301388 A    
C19   N25   1.441996 S    
C32   C38   1.404981 A    
N43   O69   1.301021 A    
N49   O94   1.301021 A    
C31   C37   1.406358 A    
Cr3   O25   1.967621 S    
O5    C6    1.243400 A    
N12   C60   1.357768 A    
C64   C88   1.405008 A    
N5    N11   1.327999 A    
C74   C92   1.411969 A    
C33   C39   1.409356 A    
O18   C10   1.249803 A    
C13   C43   1.419782 A    
C14   C44   1.419670 A    
C64   O84   1.381762 S    
Cr1   O25   1.967374 S    
C61   C85   1.403515 A    
N35   O47   1.301466 A    
O22   Cr4   1.956143 S    
O4    Cr4   2.074602 S    
C75   C81   1.418505 A    
C34   C40   1.410939 A    
C5    C18   1.486517 S    
N43   O70   1.301278 A    
N48   O79   1.301057 A    
O14   Cr2   2.086516 S    
N14   N20   1.328775 A    
C17   C23   1.415957 A    
N9    C57   1.354459 A    
N18   C60   1.355388 A    
N27   O31   1.300961 A    
O15   Cr3   2.074370 S    
N36   O50   1.301212 A    
C69   O53   1.380048 S    
C32   C56   1.458364 S    
O16   Cr4   2.076712 S    
Cr5   O26   1.960801 S    
O23   C11   1.261061 A    
O12   C6    1.254150 A    
C7    C95   1.488242 S    
O7    Cr1   1.967481 S    
C21   C27   1.409751 A    
N54   O104  1.301148 A    
O51   H1    0.989787 S    
N47   O78   1.301032 A    
N32   O42   1.301253 A    
C62   C68   1.413894 A    
N54   O103  1.301319 A    
N44   O72   1.301303 A    
O2    C3    1.255212 A    
C63   O83   1.381959 S    
N17   N23   1.331393 A    
C69   C93   1.413033 A    
N33   O43   1.300696 A    
C38   N44   1.438030 S    
O14   C9    1.257606 A    
C63   C69   1.413835 A    
N40   O64   1.301196 A    
C6    C16   1.485428 S    
N30   O37   1.300578 A    
C33   C57   1.471351 S    
N38   O60   1.300860 A    
C79   N49   1.439543 S    
O17   C12   1.288792 A    
C20   C26   1.409191 A    
C26   C32   1.404497 A    
C65   C89   1.405276 A    
N52   O100  1.301496 A    
C75   C93   1.417671 A    
N25   O28   1.301623 A    
C4    C17   1.486212 S    
O4    C5    1.242389 A    
C51   C87   1.482522 S    
O90   H16   0.989948 S    
C40   N46   1.434802 S    
N37   O58   1.301036 A    
C24   N30   1.429344 S    
C27   C33   1.410330 A    
N51   O98   1.301029 A    
N34   O45   1.301239 A    
N5    C53   1.352861 A    
N28   O33   1.299333 A    
C82   N52   1.438595 S    
C40   C46   1.416178 A    
O52   H2    0.990352 S    
C1    C14   1.485806 S    
O5    Cr5   2.071777 S    
C83   C89   1.403655 A    
C50   C86   1.473972 S    
O8    C2    1.250930 A    
C68   C92   1.414960 A    
O23   Cr5   1.953466 S    
C47   N35   1.440587 S    
N20   C50   1.358021 A    
O19   C7    1.251416 A    
C74   C80   1.411910 A    
C13   C19   1.414692 A    
C67   C91   1.417965 A    
C62   C86   1.405782 A    
C9    C96   1.488715 S    
O11   C5    1.256274 A    
N10   C58   1.358019 A    
O86   H12   0.989395 S    
C75   O89   1.384718 S    
C65   C71   1.417190 A    
C77   C83   1.411079 A    
C81   N51   1.432786 S    
C53   C89   1.464578 S    
C16   C46   1.417702 A    
N31   O40   1.301310 A    
C29   C35   1.406189 A    
N30   O38   1.299350 A    
N17   C59   1.355456 A    
C20   N26   1.441832 S    
C31   C55   1.472335 S    
O17   Cr5   2.084183 S    
O24   C12   1.289735 A    
N23   C53   1.358606 A    
N51   O97   1.300853 A    
O20   Cr2   1.952512 S    
C84   N54   1.437916 S    
N26   O30   1.301640 A    
O9    C3    1.247766 A    
C72   O56   1.380139 S    
Cr2   O25   1.960786 S    
N13   C55   1.357005 A    
C42   C48   1.415735 A    
C15   C21   1.416062 A    
N24   C54   1.359139 A    
C70   C94   1.412642 A    
N49   O93   1.301399 A    
O10   C4    1.257869 A    
N11   C59   1.358046 A    
N15   C57   1.357722 A    
C38   C44   1.401647 A    
N2    C50   1.356559 A    
C77   O91   1.383501 S    
C65   O85   1.381606 S    
N53   O102  1.301203 A    
C35   C41   1.411106 A    
C25   C31   1.411479 A    
C64   C70   1.417341 A    
C18   C24   1.417102 A    
C66   C90   1.406609 A    
C66   C72   1.411527 A    
O55   H5    0.989629 S    
N44   O71   1.301127 A    
C49   C85   1.473966 S    
N6    N12   1.327458 A    
C73   C91   1.412306 A    
O18   Cr6   2.084359 S    
C16   C22   1.415699 A    
O54   H4    0.989795 S    
C84   C90   1.403416 A    
Cr4   O26   1.967276 S    
C8    C94   1.487749 S    
N38   O59   1.300854 A    
N50   O96   1.301113 A    
O53   H3    0.990339 S    
O6    Cr6   2.063396 S    
O11   Cr5   1.968222 S    
C28   C34   1.406175 A    
N47   O77   1.301054 A    
N39   O62   1.300421 A    
N8    C56   1.355162 A    
N52   O99   1.301370 A    
O24   Cr6   1.946597 S    
C73   O87   1.382090 S    
O1    C2    1.247762 A    
C2    C15   1.487363 S    
N36   O49   1.301417 A    
O81   H7    0.990877 S    
C76   C82   1.410817 A    
C54   C90   1.464624 S    
N18   N24   1.331713 A    
C68   O52   1.382431 S    
O3    Cr3   2.073367 S    
C17   C47   1.417391 A    
O19   Cr1   1.948125 S    
C77   C95   1.418739 A    
N25   O27   1.300354 A    
C66   O86   1.384865 S    
N53   O101  1.301383 A    
