data_mof_unit_58220.cif
_audit_creation_date              2012-12-10T17:03:56-0500
_audit_creation_method            fapswitch 2.2
_symmetry_space_group_name_H-M    P1
_symmetry_Int_Tables_number       1
_space_group_crystal_system       triclinic
_cell_length_a                    9.749433
_cell_length_b                    11.061912
_cell_length_c                    15.883303
_cell_angle_alpha                 94.445546
_cell_angle_beta                  78.260159
_cell_angle_gamma                 110.001047
_cell_volume                      1575.92700066

loop_
_atom_site_label
_atom_site_type_symbol
_atom_type_description
_atom_site_fract_x
_atom_site_fract_y
_atom_site_fract_z
_atom_type_partial_charge
C1    C     C_R   0.552048 0.744312 0.509062 0.852888
C2    C     C_R   0.444101 0.255052 0.497465 0.858294
C3    C     C_R   0.324507 0.457316 0.080659 -0.225088
C4    C     C_R   0.679786 0.590410 0.925470 -0.224023
C5    C     C_R   0.221178 0.429330 0.027633 -0.230425
C6    C     C_R   0.783257 0.619751 0.978873 -0.222810
C7    C     C_2   0.575306 0.881553 0.516137 -0.397448
C8    C     C_2   0.414738 0.117033 0.502822 -0.396861
C9    C     C_2   0.463073 0.929348 0.540864 -0.028526
C10   C     C_2   0.496052 0.068039 0.540943 -0.044711
C11   C     C_2   0.921614 0.486602 0.494429 -0.079617
C12   C     C_2   0.072384 0.503902 0.510077 -0.066977
C13   C     C_R   0.408704 0.483876 0.663530 0.789204
C14   C     C_R   0.591553 0.516879 0.336938 0.787080
C15   C     C_R   0.351395 0.469947 0.758441 -0.084350
C16   C     C_R   0.651671 0.537345 0.243343 -0.088010
C17   C     C_R   0.159438 0.411778 0.887642 -0.224647
C18   C     C_R   0.845354 0.621065 0.118386 -0.229425
C19   C     C_R   0.198115 0.423998 0.798046 0.091847
C20   C     C_R   0.804584 0.598428 0.207212 0.085654
C21   C     C_R   0.458449 0.502837 0.811812 -0.274173
C22   C     C_R   0.547478 0.499689 0.188823 -0.278936
C23   C     C_R   0.419295 0.493280 0.902209 0.084497
C24   C     C_R   0.586559 0.530154 0.100908 0.086317
C25   C     C_R   0.266831 0.444515 0.939108 0.137321
C26   C     C_R   0.738604 0.589542 0.065893 0.134990
C27   C     C_R   0.526752 0.528335 0.957002 0.072081
C28   C     C_R   0.478797 0.503497 0.047019 0.078085
Cu1   Cu    Cu3+1 0.362980 0.479380 0.485080 0.941539
Cu2   Cu    Cu3+1 0.637020 0.520620 0.514920 0.941177
H1    H     H_    0.103955 0.394446 0.056371 0.143064
H2    H     H_    0.899422 0.667861 0.951833 0.140828
H3    H     H_    0.434995 0.445336 0.216979 0.157570
H4    H     H_    0.573357 0.534145 0.781096 0.163634
H5    H     H_    0.042800 0.377316 0.917960 0.138410
H6    H     H_    0.961379 0.667613 0.090098 0.133354
H7    H     H_    0.278586 0.444954 0.148287 0.139572
H8    H     H_    0.723222 0.622447 0.860242 0.148288
H9    H     H_    0.323404 0.052656 0.474453 0.154817
H10   H     H_    0.689043 0.946569 0.499015 0.149224
H11   H     H_    0.111990 0.562996 0.563067 0.192784
H12   H     H_    0.875983 0.417169 0.446640 0.160445
H13   H     H_    0.117684 0.392099 0.412157 0.190400
H14   H     H_    0.890579 0.620699 0.579872 0.215621
N1    N     N_2   0.842890 0.551600 0.537350 -0.291640
N2    N     N_2   0.157110 0.448400 0.462650 -0.291281
O1    O     O_R   0.426810 0.668300 0.492040 -0.560325
O2    O     O_R   0.573190 0.331700 0.507960 -0.563572
O3    O     O_R   0.658240 0.703130 0.517240 -0.571662
O4    O     O_R   0.341760 0.296870 0.482760 -0.572028
O5    O     O_R   0.319390 0.472820 0.610170 -0.588544
O6    O     O_R   0.680610 0.527180 0.389830 -0.582212
O7    O     O_R   0.550820 0.507640 0.635370 -0.568147
O8    O     O_R   0.449180 0.492360 0.364630 -0.573852
C29   C     C_3   0.927551 0.644477 0.259377 -0.389706
C30   C     C_3   0.929787 0.771696 0.306250 -0.316673
C31   C     C_3   0.048985 0.815151 0.361828 -0.807509
H15   H     H_    0.026963 0.742294 0.411578 0.270371
H16   H     H_    0.160651 0.829780 0.321472 0.244436
H17   H     H_    0.048278 0.907446 0.394516 0.234534
H18   H     H_    0.953204 0.847350 0.258041 0.206442
H19   H     H_    0.820267 0.761981 0.347665 0.229851
H20   H     H_    0.918711 0.568923 0.304116 0.211423
H21   H     H_    0.037576 0.661092 0.216306 0.181828
C32   C     C_3   0.068741 0.392754 0.751954 -0.384107
C33   C     C_3   0.017150 0.509780 0.756161 -0.364522
C34   C     C_3   0.865522 0.473612 0.731298 -0.810541
H22   H     H_    0.867188 0.424289 0.668183 0.287379
H23   H     H_    0.778768 0.408914 0.780128 0.261362
H24   H     H_    0.838010 0.561893 0.726905 0.227159
H25   H     H_    0.008500 0.550697 0.822440 0.222848
H26   H     H_    0.099954 0.585500 0.712683 0.234667
H27   H     H_    0.091611 0.358028 0.685273 0.224841
H28   H     H_    0.975697 0.310285 0.784609 0.198486
C35   C     C_1   0.612160 0.145156 0.586261 0.311696
N3    N     N_1   0.704920 0.205065 0.622722 -0.316109
C36   C     C_1   0.310994 0.851935 0.574518 0.297264
N4    N     N_1   0.188776 0.793739 0.602516 -0.365112

loop_
_geom_bond_atom_site_label_1
_geom_bond_atom_site_label_2
_ccdc_geom_bond_type
C6    H2    S    
C29   C30   S    
Cu2   N1    S    
C18   C26   A    
C36   N4    T    
C15   C19   A    
Cu1   Cu2   S    
Cu1   O1    S    
Cu2   O2    S    
C3    C28   A    
C24   C26   A    
C31   H16   S    
Cu1   O8    S    
C32   H27   S    
C30   C31   S    
C11   H12   S    
C2    O4    A    
C13   O5    A    
C14   O6    A    
C29   H20   S    
C7    H10   S    
C8    H9    S    
C23   C27   A    
C9    C10   S    
C30   H19   S    
C33   C34   S    
C20   C29   S    
C13   O7    A    
Cu1   O4    S    
Cu2   O7    S    
C33   H26   S    
C34   H22   S    
C4    C6    A    
C1    O1    A    
C31   H17   S    
C21   H4    S    
C2    O2    A    
C32   H28   S    
C34   H23   S    
C35   N3    T    
C12   H11   S    
C10   C35   S    
C33   H25   S    
C16   C20   A    
C29   H21   S    
C9    C36   S    
C5    C25   A    
C12   N2    D    
C14   O8    A    
Cu2   O3    S    
C4    H8    S    
C21   C23   A    
C22   C24   A    
C11   N1    D    
C4    C27   A    
H14   N1    S    
Cu1   O5    S    
C7    C9    D    
C22   H3    S    
Cu2   O6    S    
C16   C22   A    
C14   C16   S    
C1    C7    S    
C2    C8    S    
C24   C28   A    
C3    C5    A    
C11   C12   S    
Cu1   N2    S    
C34   H24   S    
C17   C25   A    
C13   C15   S    
C31   H15   S    
C6    C26   A    
C18   H6    S    
C17   C19   A    
C19   C32   S    
C18   C20   A    
C23   C25   A    
H13   N2    S    
C15   C21   A    
C3    H7    S    
C8    C10   D    
C32   C33   S    
C27   C28   A    
C30   H18   S    
C17   H5    S    
C1    O3    A    
C5    H1    S    
