data_mof_unit_33468.cif
_audit_creation_date              2012-10-26T18:34:23-0400
_audit_creation_method            fapswitch 2.2
_symmetry_space_group_name_H-M    P1
_symmetry_Int_Tables_number       1
_space_group_crystal_system       triclinic
_cell_length_a                    10.774048
_cell_length_b                    9.539393
_cell_length_c                    9.07588
_cell_angle_alpha                 90.000326
_cell_angle_beta                  89.972662
_cell_angle_gamma                 89.999952
_cell_volume                      932.799581848

loop_
_atom_site_label
_atom_site_type_symbol
_atom_type_description
_atom_site_fract_x
_atom_site_fract_y
_atom_site_fract_z
_atom_type_partial_charge
C1    C     C_R   0.262672 0.500000 0.500702 0.544890
C2    C     C_R   0.066280 0.500006 0.364513 -0.012844
C3    C     C_R   0.871379 0.500000 0.498774 0.033848
C4    C     C_R   0.128621 0.500000 0.501226 0.033848
C5    C     C_R   0.421705 0.074342 0.410121 0.019290
C6    C     C_R   0.578295 0.925658 0.589878 0.019290
C7    C     C_R   0.578295 0.074342 0.589878 0.019290
C8    C     C_R   0.421705 0.925657 0.410121 0.019290
C9    C     C_3   0.133677 0.499990 0.782804 -0.387017
C10   C     C_3   0.866323 0.500009 0.217196 -0.387017
C11   C     C_3   0.857921 0.499988 0.777185 -0.389980
C12   C     C_R   0.737328 0.500000 0.499298 0.544891
C13   C     C_3   0.142079 0.500012 0.222815 -0.389980
C14   C     C_R   0.499285 0.500000 0.220640 0.537860
C15   C     C_R   0.500715 0.500000 0.779360 0.537860
C16   C     C_1   0.499731 0.500000 0.065540 -0.071449
C17   C     C_1   0.500268 0.500000 0.934460 -0.071450
C18   C     C_R   0.064315 0.499994 0.637019 -0.004000
C19   C     C_R   0.935685 0.500005 0.362981 -0.004000
C20   C     C_R   0.933720 0.499994 0.635487 -0.012845
Cu1   Cu    Cu3+1 0.500000 0.640660 0.500000 0.931652
Cu2   Cu    Cu3+1 0.500000 0.359340 0.500000 0.931652
H1    H     H_    0.358927 0.130236 0.338030 0.111118
H2    H     H_    0.890954 0.404735 0.153272 0.124594
H3    H     H_    0.798071 0.405274 0.780761 0.136201
H4    H     H_    0.913588 0.499984 0.879356 0.115060
H5    H     H_    0.798071 0.594702 0.780771 0.136198
H6    H     H_    0.201929 0.594726 0.219239 0.136201
H7    H     H_    0.201929 0.405298 0.219229 0.136198
H8    H     H_    0.086412 0.500016 0.120644 0.115060
H9    H     H_    0.641073 0.869764 0.661970 0.111118
H10   H     H_    0.641073 0.130237 0.661970 0.111117
H11   H     H_    0.358927 0.869763 0.338030 0.111117
H12   H     H_    0.235831 0.499993 0.771642 0.144987
H13   H     H_    0.109047 0.595264 0.846728 0.124595
H14   H     H_    0.109051 0.404708 0.846718 0.124598
H15   H     H_    0.764168 0.500004 0.228358 0.144987
H16   H     H_    0.890947 0.595291 0.153282 0.124599
N1    N     N_R   0.500000 0.852070 0.500000 -0.223722
N2    N     N_R   0.500000 0.147930 0.500000 -0.223722
O1    O     O_R   0.319640 0.618740 0.499990 -0.502304
O2    O     O_R   0.680360 0.381260 0.500010 -0.502304
O3    O     O_R   0.680360 0.618740 0.500010 -0.502303
O4    O     O_R   0.319640 0.381260 0.499990 -0.502303
O5    O     O_R   0.500000 0.618760 0.288390 -0.498543
O6    O     O_R   0.500000 0.381240 0.711610 -0.498543
O7    O     O_R   0.500000 0.618760 0.711610 -0.498542
O8    O     O_R   0.500000 0.381240 0.288390 -0.498542

loop_
_geom_bond_atom_site_label_1
_geom_bond_atom_site_label_2
_ccdc_geom_bond_type
C9    H14   S    
C2    C4    A    
C7    N2    A    
C13   H6    S    
C3    C19   A    
C6    C7    A    
C7    H10   S    
C8    N1    A    
C15   O7    A    
C14   O5    A    
C9    C18   S    
C1    O4    A    
Cu2   O8    S    
C5    H1    S    
C11   H5    S    
C10   C19   S    
C10   H16   S    
C1    C4    S    
C4    C18   A    
C6    H9    S    
Cu2   N2    S    
C3    C20   A    
Cu1   Cu2   S    
Cu2   O2    S    
C10   H15   S    
Cu1   O1    S    
C13   H7    S    
Cu2   O6    S    
C12   O3    A    
C18   C20   A    
C8    H11   S    
C9    H12   S    
C14   C16   S    
C11   C20   S    
C5    C8    A    
C11   H3    S    
C13   H8    S    
C15   C17   S    
C5    N2    A    
C1    O1    A    
C9    H13   S    
C2    C13   S    
C14   O8    A    
C6    N1    A    
C12   O2    A    
C3    C12   S    
C11   H4    S    
C10   H2    S    
C2    C19   A    
Cu1   O3    S    
C15   O6    A    
Cu2   O4    S    
Cu1   O7    S    
C16   C17   T    
Cu1   O5    S    
Cu1   N1    S    
