data_mof_unit_14449.cif
_audit_creation_date              2013-03-05T16:06:02-0500
_audit_creation_method            fapswitch 2.2
_symmetry_space_group_name_H-M    P1
_symmetry_Int_Tables_number       1
_space_group_crystal_system       triclinic
_cell_length_a                    10.806889
_cell_length_b                    9.51281
_cell_length_c                    23.522886
_cell_angle_alpha                 90.042422
_cell_angle_beta                  90.275724
_cell_angle_gamma                 90.108331
_cell_volume                      2418.2109881

loop_
_atom_site_label
_atom_site_type_symbol
_atom_site_description
_atom_site_fract_x
_atom_site_fract_y
_atom_site_fract_z
_atom_type_partial_charge
O1    O     O_R   0.319640 0.618740 0.500000 -0.562428
O2    O     O_R   0.680360 0.381260 0.500000 -0.562417
O3    O     O_R   0.680360 0.618740 0.500000 -0.557034
O4    O     O_R   0.319640 0.381260 0.500000 -0.557053
C1    C     C_R   0.262357 0.499820 0.499718 0.948863
C2    C     C_R   0.737642 0.500180 0.500281 0.948791
O5    O     O_R   0.499960 0.618810 0.417880 -0.568778
O6    O     O_R   0.500040 0.381190 0.582120 -0.568779
O7    O     O_R   0.500040 0.618810 0.582120 -0.607083
O8    O     O_R   0.499960 0.381190 0.417880 -0.607079
C3    C     C_R   0.499964 0.499965 0.390881 0.864371
C4    C     C_R   0.500038 0.500035 0.609119 0.864403
Cu1   Cu    Cu3+1 0.500000 0.640660 0.500000 1.039197
Cu2   Cu    Cu3+1 0.500000 0.359340 0.500000 1.039192
C5    C     C_R   0.603482 0.455303 0.880687 0.542232
C6    C     C_R   0.396523 0.544701 0.119312 0.542231
N1    N     N_R   0.500210 0.499917 0.851972 -0.471916
N2    N     N_R   0.499794 0.500085 0.148027 -0.471912
C7    C     C_R   0.396850 0.544539 0.880190 0.544300
C8    C     C_R   0.603153 0.455460 0.119809 0.544300
C9    C     C_R   0.394687 0.545716 0.939817 -0.020092
C10   C     C_R   0.605317 0.454285 0.060183 -0.020089
C11   C     C_R   0.500043 0.499978 0.969999 -0.014841
C12   C     C_R   0.499962 0.500024 0.030000 -0.014842
C13   C     C_R   0.605479 0.454195 0.940325 -0.019756
C14   C     C_R   0.394526 0.545808 0.059675 -0.019754
C15   C     C_R   0.289980 0.591033 0.969837 -0.151698
C16   C     C_R   0.710024 0.408968 0.030162 -0.151696
C17   C     C_R   0.289900 0.591080 0.029149 -0.151975
C18   C     C_R   0.710104 0.408923 0.970851 -0.151977
O9    O     O_2   0.704165 0.413233 0.851580 -0.507941
O10   O     O_2   0.295841 0.586773 0.148419 -0.507947
O11   O     O_2   0.296243 0.586566 0.850598 -0.508534
O12   O     O_2   0.703759 0.413431 0.149401 -0.508540
H1    H     H_    0.207789 0.626602 0.947633 0.195693
H2    H     H_    0.792214 0.373398 0.052366 0.195694
H3    H     H_    0.207651 0.626681 0.050955 0.195773
H4    H     H_    0.792354 0.373322 0.949044 0.195773
C19   C     C_R   0.501699 0.372668 0.238787 -0.083081
C20   C     C_R   0.502305 0.372605 0.761118 -0.087146
H5    H     H_    0.502905 0.273842 0.215921 0.150427
H6    H     H_    0.503523 0.273746 0.783906 0.149395
C21   C     C_R   0.501693 0.372464 0.298056 -0.191769
C22   C     C_R   0.502212 0.372489 0.701851 -0.121407
H7    H     H_    0.503178 0.272597 0.320120 0.165119
H8    H     H_    0.503719 0.272650 0.679710 0.168815
C23   C     C_R   0.499814 0.499963 0.328291 -0.009169
C24   C     C_R   0.500189 0.500037 0.671709 -0.009160
C25   C     C_R   0.497757 0.627511 0.298150 -0.121409
C26   C     C_R   0.498344 0.627536 0.701944 -0.191765
H9    H     H_    0.496223 0.727349 0.320290 0.168814
H10   H     H_    0.496886 0.727404 0.679880 0.165111
C27   C     C_R   0.497665 0.627396 0.238882 -0.087133
C28   C     C_R   0.498338 0.627334 0.761213 -0.083088
H11   H     H_    0.496420 0.726255 0.216094 0.149406
H12   H     H_    0.497159 0.726160 0.784079 0.150415
C29   C     C_R   0.499700 0.500052 0.209002 0.338539
C30   C     C_R   0.500304 0.499949 0.790997 0.338555
C31   C     C_R   0.065129 0.410683 0.537373 0.234946
C32   C     C_R   0.934872 0.589320 0.462627 0.234982
C33   C     C_R   0.936022 0.411758 0.538269 0.234698
C34   C     C_R   0.063978 0.588241 0.461729 0.234660
C35   C     C_R   0.871545 0.500822 0.500642 -0.351654
C36   C     C_R   0.128455 0.499179 0.499357 -0.351656
C37   C     C_R   0.425821 0.074207 0.463341 0.026883
C38   C     C_R   0.574179 0.925793 0.536659 0.026927
C39   C     C_R   0.574095 0.074662 0.536688 0.028195
C40   C     C_R   0.425903 0.925338 0.463312 0.028172
H13   H     H_    0.366373 0.130167 0.433996 0.140299
H14   H     H_    0.633626 0.869833 0.566004 0.140298
H15   H     H_    0.633260 0.130994 0.566125 0.172931
H16   H     H_    0.366737 0.869006 0.433876 0.172909
N3    N     N_R   0.500000 0.852070 0.500000 -0.180500
N4    N     N_R   0.500000 0.147930 0.500000 -0.180507
N5    N     N_R   0.131982 0.327825 0.578084 0.172013
O13   O     O_R   0.192247 0.389219 0.619201 -0.351553
O14   O     O_R   0.146022 0.193603 0.569761 -0.278071
N6    N     N_R   0.868017 0.672183 0.421919 0.172046
O15   O     O_R   0.807848 0.610799 0.380770 -0.351473
O16   O     O_R   0.853851 0.806369 0.430280 -0.278126
N7    N     N_R   0.871008 0.329652 0.579869 0.152856
O17   O     O_R   0.889248 0.194844 0.583586 -0.293287
O18   O     O_R   0.794314 0.389920 0.614660 -0.375837
N8    N     N_R   0.128992 0.670347 0.420127 0.152828
O19   O     O_R   0.110657 0.805130 0.416370 -0.293240
O20   O     O_R   0.205719 0.610087 0.385350 -0.375855

loop_
_geom_bond_atom_site_label_1
_geom_bond_atom_site_label_2
_geom_bond_distance
_ccdc_geom_bond_type
C15   C17   1.395184 A    
C3    C23   1.472286 S    
C4    C24   1.472286 S    
O3    C2    1.287589 A    
N7    O17   1.300777 A    
C19   H5    1.082886 S    
C37   H13   1.081739 S    
O5    C3    1.296317 A    
C32   N6    1.434194 S    
C31   C36   1.407674 A    
C26   C28   1.394179 A    
C32   C35   1.407667 A    
O1    C1    1.288536 A    
Cu2   N4    2.011104 S    
C7    C9    1.402929 A    
C12   C14   1.408659 A    
N6    O16   1.300842 A    
C5    C13   1.402954 A    
C19   C29   1.400345 A    
C18   H4    1.083123 S    
C32   C34   1.395561 A    
C33   C35   1.408594 A    
O7    Cu1   1.943001 S    
C34   C36   1.408603 A    
C25   H9    1.083019 S    
C26   H10   1.082995 S    
C11   C12   1.411413 A    
C39   H15   1.081351 S    
O3    Cu1   1.960644 S    
C40   H16   1.081355 S    
N1    C30   1.434306 S    
C8    O12   1.349536 S    
C20   H6    1.082879 S    
C38   C39   1.416167 A    
C9    C15   1.405001 A    
C10   C16   1.405001 A    
Cu1   Cu2   2.676144 S    
O2    C2    1.288538 A    
N7    O18   1.301158 A    
C22   H8    1.083017 S    
C27   H11   1.082880 S    
C6    C14   1.402954 A    
C28   H12   1.082885 S    
C31   C33   1.395558 A    
C20   C30   1.400334 A    
N8    O19   1.300751 A    
C23   C25   1.405913 A    
O8    Cu2   1.943001 S    
C27   C29   1.400337 A    
N6    O15   1.300919 A    
C19   C21   1.394179 A    
C15   H1    1.083124 S    
C40   N3    1.366795 A    
C38   N3    1.366891 A    
C37   N4    1.366894 A    
C1    C36   1.447050 S    
C2    C35   1.447053 S    
N5    O13   1.300930 A    
N5    O14   1.300878 A    
N2    C29   1.434311 S    
O5    Cu1   1.942695 S    
O6    C4    1.296317 A    
C37   C40   1.416167 A    
C39   N4    1.366791 A    
C21   H7    1.082998 S    
Cu1   N3    2.011103 S    
C9    C11   1.408636 A    
C7    O11   1.349541 S    
C10   C12   1.408634 A    
O1    Cu1   1.959861 S    
C8    C10   1.402931 A    
C31   N5    1.434204 S    
C28   C30   1.400340 A    
C13   C18   1.404991 A    
C5    N1    1.370005 A    
C34   N8    1.437714 S    
O6    Cu2   1.942695 S    
N8    O20   1.301159 A    
O4    C1    1.287590 A    
C5    O9    1.349538 S    
C6    O10   1.349535 S    
C16   C18   1.395184 A    
C33   N7    1.437701 S    
C38   H14   1.081740 S    
C25   C27   1.394145 A    
C24   C26   1.405792 A    
N1    C7    1.370023 A    
N2    C8    1.370023 A    
C11   C13   1.408660 A    
O4    Cu2   1.960645 S    
O2    Cu2   1.959860 S    
O7    C4    1.296555 A    
O8    C3    1.296557 A    
C20   C22   1.394142 A    
C16   H2    1.083123 S    
C14   C17   1.404991 A    
C6    N2    1.370005 A    
C17   H3    1.083123 S    
C21   C23   1.405794 A    
C22   C24   1.405913 A    
