data_mof_unit_8637.cif
_audit_creation_date              2012-12-10T16:54:56-0500
_audit_creation_method            fapswitch 2.2
_symmetry_space_group_name_H-M    P1
_symmetry_Int_Tables_number       1
_space_group_crystal_system       triclinic
_cell_length_a                    7.821283
_cell_length_b                    8.56196
_cell_length_c                    15.743082
_cell_angle_alpha                 91.103826
_cell_angle_beta                  86.474355
_cell_angle_gamma                 93.267991
_cell_volume                      1050.40574337

loop_
_atom_site_label
_atom_site_type_symbol
_atom_type_description
_atom_site_fract_x
_atom_site_fract_y
_atom_site_fract_z
_atom_type_partial_charge
C1    C     C_R   0.545276 0.794370 0.497776 0.957577
C2    C     C_3   0.353772 0.621536 0.053731 -0.278280
C3    C     C_3   0.495445 0.516061 0.083321 0.107290
C4    C     C_3   0.455761 0.347227 0.046725 -0.200973
C5    C     C_3   0.456275 0.351845 0.948658 -0.440621
C6    C     C_1   0.488638 0.510288 0.175457 -0.070258
C7    C     C_1   0.513578 0.512103 0.824718 -0.084008
C8    C     C_1   0.511064 0.505653 0.749620 -0.121146
C9    C     C_2   0.569151 0.957793 0.496377 -0.368747
C10   C     C_2   0.430804 0.042212 0.503074 -0.359202
C11   C     C_R   0.503053 0.500368 0.661270 0.897094
C12   C     C_R   0.454713 0.205632 0.502039 0.962464
C13   C     C_R   0.497006 0.500102 0.338744 0.906869
C14   C     C_3   0.368843 0.636841 0.952921 -0.030980
C15   C     C_3   0.690392 0.564646 0.949176 -0.239765
C16   C     C_3   0.674711 0.585579 0.047939 -0.121178
C17   C     C_1   0.490400 0.505022 0.250460 -0.135325
C18   C     C_3   0.507412 0.520102 0.916724 0.102257
H1    H     H_    0.230504 0.559084 0.073647 0.136439
H2    H     H_    0.700116 0.008111 0.489940 0.183310
H3    H     H_    0.299831 0.991914 0.509444 0.184757
H4    H     H_    0.987404 0.617380 0.564089 0.194310
H5    H     H_    0.771104 0.463872 0.932592 0.138397
H6    H     H_    0.682677 0.711802 0.066050 0.212382
H7    H     H_    0.326981 0.312106 0.928232 0.187806
H8    H     H_    0.545880 0.267351 0.918371 0.211272
H9    H     H_    0.325250 0.304690 0.071491 0.160773
N1    N     N_2   0.950340 0.457950 0.477370 -0.149435
N2    N     N_2   0.049660 0.542050 0.522630 -0.181166
O1    O     O_R   0.389240 0.738570 0.505550 -0.614225
O2    O     O_R   0.678400 0.711630 0.491050 -0.632979
O3    O     O_R   0.355360 0.513470 0.630110 -0.588024
O4    O     O_R   0.644510 0.486530 0.615610 -0.632678
O5    O     O_R   0.321600 0.288370 0.508950 -0.631778
O6    O     O_R   0.610760 0.261430 0.494450 -0.621957
O7    O     O_R   0.355490 0.513470 0.384390 -0.622469
O8    O     O_R   0.644640 0.486530 0.369890 -0.614250
Zn1   Zn    Zn3+2 0.306930 0.517990 0.509680 0.971958
Zn2   Zn    Zn3+2 0.693070 0.482010 0.490320 0.955622
C19   C     C_1   0.343840 0.771477 0.102070 0.302276
N3    N     N_1   0.335277 0.887907 0.140287 -0.173224
C20   C     C_2   0.193699 0.588988 0.918739 0.342196
H10   H     H_    0.098750 0.518658 0.956385 0.083168
O9    O     O_2   0.160325 0.619647 0.846278 -0.588668
C21   C     C_1   0.574089 0.231444 0.073684 0.295930
N4    N     N_1   0.666513 0.140733 0.094795 -0.129040
C22   C     C_1   0.025469 0.354395 0.419679 0.429405
N5    N     N_1   0.086017 0.267168 0.371115 -0.237581
C23   C     C_2   0.418499 0.802762 0.920783 0.425872
H11   H     H_    0.387409 0.834693 0.857360 0.110387
O10   O     O_2   0.501109 0.899384 0.961828 -0.572756
C24   C     C_2   0.785225 0.702411 0.904020 0.490000
H12   H     H_    0.796058 0.703871 0.835016 0.083158
O11   O     O_2   0.855105 0.810138 0.943226 -0.535309
C25   C     C_1   0.818671 0.515783 0.087414 0.158555
N6    N     N_1   0.929060 0.459872 0.119390 -0.215502

loop_
_geom_bond_atom_site_label_1
_geom_bond_atom_site_label_2
_ccdc_geom_bond_type
N2    Zn1   S    
C15   C18   S    
O6    Zn2   S    
C25   N6    T    
N1    C22   S    
C19   N3    T    
H4    N2    S    
O3    Zn1   S    
C9    C10   D    
C14   C18   S    
C9    H2    S    
C13   O8    A    
C22   N5    T    
C13   C17   S    
C14   C20   S    
C3    C6    S    
C7    C18   S    
O7    Zn1   S    
C2    C3    S    
C16   C25   S    
C15   C24   S    
C7    C8    T    
O8    Zn2   S    
C21   N4    T    
C12   O6    A    
O4    Zn2   S    
C20   O9    D    
C8    C11   S    
C5    H7    S    
C15   C16   S    
C10   C12   S    
C15   H5    S    
C1    O1    A    
O2    Zn2   S    
C11   O3    A    
C4    C21   S    
C10   H3    S    
C2    C14   S    
C14   C23   S    
C20   H10   S    
C12   O5    A    
C5    H8    S    
C2    C19   S    
C1    O2    A    
C4    H9    S    
C1    C9    S    
C24   H12   S    
O1    Zn1   S    
C13   O7    A    
C16   H6    S    
C23   H11   S    
C11   O4    A    
C6    C17   T    
N1    N2    D    
C5    C18   S    
N1    Zn2   S    
C2    H1    S    
O5    Zn1   S    
C3    C16   S    
C3    C4    S    
C24   O11   D    
C4    C5    S    
C23   O10   D    
