data_mof_unit_66589.cif
_audit_creation_date              2012-12-10T18:57:05-0500
_audit_creation_method            fapswitch 2.2
_symmetry_space_group_name_H-M    P1
_symmetry_Int_Tables_number       1
_space_group_crystal_system       triclinic
_cell_length_a                    10.678018
_cell_length_b                    9.858203
_cell_length_c                    10.75554
_cell_angle_alpha                 89.96605
_cell_angle_beta                  91.746011
_cell_angle_gamma                 87.979261
_cell_volume                      1130.96242991

loop_
_atom_site_label
_atom_site_type_symbol
_atom_type_description
_atom_site_fract_x
_atom_site_fract_y
_atom_site_fract_z
_atom_type_partial_charge
C1    C     C_R   0.260620 0.502335 0.503775 0.921635
C2    C     C_R   0.740549 0.497180 0.501381 0.868750
C3    C     C_R   0.595059 0.068568 0.448914 -0.088975
C4    C     C_R   0.405029 0.075297 0.552232 -0.098512
C5    C     C_R   0.596067 0.924799 0.449780 -0.121664
C6    C     C_R   0.404836 0.931600 0.551966 -0.095302
C7    C     C_R   0.502113 0.499961 0.260144 0.884880
C8    C     C_R   0.512055 0.499082 0.739451 0.882947
C9    C     C_R   0.462214 0.608820 0.058936 0.048659
C10   C     C_R   0.485245 0.612198 0.933689 0.026107
C11   C     C_R   0.512007 0.498218 0.128292 -0.178552
C12   C     C_R   0.527682 0.497823 0.871902 -0.147392
C13   C     C_R   0.578577 0.389824 0.069931 -0.061757
C14   C     C_R   0.583234 0.388099 0.939358 -0.051493
C15   C     C_3   0.548476 0.745971 0.942522 -0.231375
C16   C     C_3   0.496808 0.755160 0.073263 -0.217960
C17   C     C_R   0.074059 0.405098 0.582696 0.201601
C18   C     C_R   0.946269 0.387772 0.565295 0.150646
C19   C     C_R   0.874218 0.492203 0.503167 -0.113516
C20   C     C_R   0.129223 0.506799 0.514477 -0.107263
C21   C     C_R   0.931222 0.599817 0.444978 -0.262621
C22   C     C_R   0.059066 0.604859 0.447479 -0.272851
H1    H     H_    0.507028 0.823324 0.876528 0.149647
H2    H     H_    0.566351 0.773997 0.148769 0.146538
H3    H     H_    0.876890 0.677901 0.394185 0.161984
H4    H     H_    0.103166 0.683673 0.395795 0.174983
H5    H     H_    0.669054 0.121330 0.406616 0.166153
H6    H     H_    0.329264 0.132073 0.594552 0.146822
H7    H     H_    0.672455 0.868169 0.408043 0.129180
H8    H     H_    0.328758 0.880183 0.593714 0.130045
N1    N     N_R   0.500000 0.857200 0.500000 -0.080714
N2    N     N_R   0.500000 0.142810 0.500000 -0.080005
O1    O     O_R   0.316770 0.614620 0.499990 -0.629277
O2    O     O_R   0.683230 0.614620 0.500010 -0.641219
O3    O     O_R   0.316800 0.385290 0.500000 -0.606729
O4    O     O_R   0.683200 0.385290 0.500000 -0.622877
O5    O     O_R   0.500000 0.614690 0.316780 -0.623443
O6    O     O_R   0.500000 0.614690 0.683220 -0.636907
O7    O     O_R   0.500020 0.385360 0.316780 -0.611947
O8    O     O_R   0.499980 0.385360 0.683220 -0.615475
Zn1   Zn    Zn3+2 0.500000 0.653120 0.500000 0.919249
Zn2   Zn    Zn3+2 0.500000 0.346880 0.500000 0.948983
C23   C     C_R   0.660730 0.290739 0.142406 0.170999
C24   C     C_R   0.643235 0.150584 0.131007 -0.120180
C25   C     C_R   0.736819 0.057376 0.172997 -0.159143
C26   C     C_R   0.847070 0.103195 0.229356 -0.168868
C27   C     C_R   0.863222 0.242311 0.245081 -0.133902
C28   C     C_R   0.770340 0.335796 0.202368 -0.129560
H9    H     H_    0.560646 0.114234 0.082813 0.132330
H10   H     H_    0.724392 0.949834 0.160995 0.130551
H11   H     H_    0.919610 0.030887 0.261384 0.135352
H12   H     H_    0.949027 0.278095 0.287582 0.137914
H13   H     H_    0.786856 0.443202 0.209931 0.103104
C29   C     C_R   0.663377 0.283386 0.878972 0.121250
C30   C     C_R   0.794245 0.285217 0.898377 -0.157905
C31   C     C_R   0.868882 0.170337 0.872177 -0.124025
C32   C     C_R   0.814404 0.056930 0.818420 -0.096802
C33   C     C_R   0.685357 0.058005 0.791723 -0.151562
C34   C     C_R   0.609443 0.168623 0.825953 -0.115363
H14   H     H_    0.837120 0.372332 0.941002 0.149658
H15   H     H_    0.968999 0.170249 0.891105 0.132246
H16   H     H_    0.873128 0.970104 0.794708 0.137969
H17   H     H_    0.642903 0.972793 0.746614 0.132397
H18   H     H_    0.508607 0.163328 0.814410 0.139624
C35   C     C_R   0.691711 0.724446 0.932536 0.183210
C36   C     C_R   0.743084 0.724485 0.813412 -0.179319
C37   C     C_R   0.870801 0.696577 0.797296 -0.178941
C38   C     C_R   0.950235 0.668787 0.899918 -0.135452
C39   C     C_R   0.901516 0.664844 0.018487 -0.159345
C40   C     C_R   0.773480 0.690244 0.034998 -0.148957
H19   H     H_    0.684559 0.746505 0.731905 0.169107
H20   H     H_    0.908517 0.698762 0.705147 0.157580
H21   H     H_    0.049442 0.649704 0.887532 0.130190
H22   H     H_    0.962861 0.640217 0.097919 0.134706
H23   H     H_    0.741209 0.678978 0.128146 0.103244
C41   C     C_R   0.381496 0.850488 0.082802 0.160968
C42   C     C_R   0.378750 0.949342 0.176795 -0.150163
C43   C     C_R   0.276160 0.040375 0.186488 -0.140973
C44   C     C_R   0.174393 0.033663 0.102406 -0.135233
C45   C     C_R   0.174736 0.935355 0.009061 -0.154283
C46   C     C_R   0.277253 0.844137 0.999049 -0.157696
H24   H     H_    0.457124 0.957574 0.241472 0.138106
H25   H     H_    0.276026 0.116695 0.258839 0.145388
H26   H     H_    0.095513 0.104909 0.109287 0.133182
H27   H     H_    0.095715 0.930187 0.943974 0.134411
H28   H     H_    0.274981 0.769659 0.925298 0.123012
N3    N     N_2   0.147902 0.323308 0.669350 -0.296576
H29   H     H_    0.119024 0.226516 0.684350 0.241183
C47   C     C_3   0.179872 0.390611 0.784880 -0.812820
H30   H     H_    0.094479 0.407616 0.840027 0.234130
H31   H     H_    0.223321 0.489231 0.767209 0.233199
H32   H     H_    0.248328 0.325732 0.839839 0.241218
N4    N     N_2   0.894046 0.266425 0.609321 -0.298878
H33   H     H_    0.805404 0.270065 0.643507 0.274158
C48   C     C_3   0.933422 0.140400 0.549701 -0.812539
H34   H     H_    0.004647 0.156385 0.478392 0.231941
H35   H     H_    0.852172 0.091742 0.505325 0.240816
H36   H     H_    0.975132 0.068906 0.620206 0.224359

loop_
_geom_bond_atom_site_label_1
_geom_bond_atom_site_label_2
_ccdc_geom_bond_type
C24   H9    S    
N3    H29   S    
N4    H33   S    
O4    Zn2   S    
C48   H34   S    
C30   C31   A    
C48   H36   S    
C1    O1    A    
C32   H16   S    
C42   C43   A    
C7    C11   S    
C34   H18   S    
C42   H24   S    
C21   C22   A    
C19   C21   A    
C9    C16   S    
C37   H20   S    
C10   C15   S    
C44   H26   S    
C15   C16   S    
C15   C35   S    
C17   C20   A    
C31   C32   A    
C18   C19   A    
O3    Zn2   S    
C26   C27   A    
C43   H25   S    
C27   C28   A    
C38   C39   A    
C47   H31   S    
C23   C28   A    
C46   H28   S    
C2    O2    A    
C15   H1    S    
C36   C37   A    
C16   H2    S    
C16   C41   S    
C13   C14   A    
C39   C40   A    
O2    Zn1   S    
C8    O6    A    
C4    H6    S    
O7    Zn2   S    
C5    H7    S    
C29   C34   A    
C28   H13   S    
C37   C38   A    
C41   C42   A    
O6    Zn1   S    
C4    C6    A    
C43   C44   A    
C38   H21   S    
C25   C26   A    
C26   H11   S    
C23   C24   A    
C45   H27   S    
C36   H19   S    
C8    C12   S    
C17   C18   A    
C7    O5    A    
C39   H22   S    
C47   H32   S    
C9    C11   A    
C4    N2    A    
C10   C12   A    
C14   C29   S    
C12   C14   A    
N3    C47   S    
C13   C23   S    
C24   C25   A    
C1    O3    A    
C9    C10   A    
C2    O4    A    
C33   H17   S    
C21   H3    S    
C29   C30   A    
C1    C20   S    
N2    Zn2   S    
N1    Zn1   S    
C6    H8    S    
C2    C19   S    
C17   N3    S    
C20   C22   A    
C45   C46   A    
C3    C5    A    
C41   C46   A    
C48   H35   S    
C27   H12   S    
O1    Zn1   S    
C3    H5    S    
C33   C34   A    
C11   C13   A    
C32   C33   A    
C25   H10   S    
O8    Zn2   S    
C6    N1    A    
O5    Zn1   S    
C3    N2    A    
C44   C45   A    
N4    C48   S    
C35   C36   A    
C22   H4    S    
C40   H23   S    
C18   N4    S    
C7    O7    A    
C31   H15   S    
C8    O8    A    
C47   H30   S    
C30   H14   S    
C35   C40   A    
C5    N1    A    
