data_mof_unit_38568.cif
_audit_creation_date              2012-10-26T18:57:05-0400
_audit_creation_method            fapswitch 2.2
_symmetry_space_group_name_H-M    P1
_symmetry_Int_Tables_number       1
_space_group_crystal_system       triclinic
_cell_length_a                    23.518902
_cell_length_b                    15.892102
_cell_length_c                    14.629099
_cell_angle_alpha                 89.801786
_cell_angle_beta                  90.096011
_cell_angle_gamma                 89.805892
_cell_volume                      5467.77022617

loop_
_atom_site_label
_atom_site_type_symbol
_atom_type_description
_atom_site_fract_x
_atom_site_fract_y
_atom_site_fract_z
_atom_type_partial_charge
C1    C     C_R   0.499963 0.339558 0.500228 0.535090
C2    C     C_R   0.699964 0.547673 0.570824 0.230694
C3    C     C_3   0.386411 0.938222 0.493931 -0.400735
C4    C     C_3   0.550896 0.941016 0.671907 -0.406809
C5    C     C_3   0.449171 0.059794 0.339864 -0.403194
C6    C     C_3   0.564141 0.940361 0.352219 -0.408097
C7    C     C_3   0.437421 0.058356 0.660059 -0.412762
C8    C     C_R   0.242554 0.448314 0.575893 0.273104
C9    C     C_R   0.758798 0.539980 0.581247 0.265611
C10   C     C_R   0.209224 0.495169 0.513671 0.169374
C11   C     C_R   0.791612 0.505502 0.510174 0.166940
C12   C     C_3   0.524404 0.971872 0.582852 0.024148
C13   C     C_3   0.476264 0.027726 0.427904 0.025576
C14   C     C_3   0.553766 0.028295 0.510915 0.024678
C15   C     C_3   0.446887 0.971413 0.499901 0.022904
C16   C     C_1   0.499673 0.250187 0.501328 -0.046591
C17   C     C_R   0.500225 0.660403 0.500039 0.528374
C18   C     C_1   0.500761 0.749687 0.500909 -0.052265
C19   C     C_3   0.470448 0.027501 0.577216 0.025541
C20   C     C_3   0.530214 0.972298 0.433576 0.027375
C21   C     C_R   0.390784 0.500728 0.499785 0.561474
C22   C     C_R   0.609374 0.499701 0.499727 0.555631
C23   C     C_3   0.499816 0.083481 0.505191 0.049908
C24   C     C_3   0.500852 0.916253 0.505468 0.049125
C25   C     C_1   0.499549 0.174903 0.503277 -0.065466
C26   C     C_1   0.501034 0.824908 0.503205 -0.070405
C27   C     C_3   0.501238 0.580873 0.966871 0.269215
C28   C     C_R   0.235409 0.541102 0.442895 0.274980
C29   C     C_3   0.503176 0.424163 0.033474 0.198073
C30   C     C_3   0.455995 0.542996 0.031313 0.224679
C31   C     C_3   0.549077 0.463308 0.969145 0.204021
C32   C     C_3   0.549107 0.544489 0.027761 0.240172
C33   C     C_3   0.455697 0.461882 0.972366 0.195499
C34   C     C_3   0.503452 0.505695 0.092779 -0.067393
C35   C     C_3   0.501278 0.500544 0.907532 -0.075237
C36   C     C_1   0.501177 0.502433 0.194601 0.183657
C37   C     C_1   0.500616 0.499950 0.805510 0.186796
C38   C     C_R   0.882099 0.576568 0.527222 0.419599
C39   C     C_R   0.764756 0.473352 0.431752 0.273699
C40   C     C_R   0.119521 0.421140 0.507005 0.407772
C41   C     C_R   0.879761 0.426839 0.518474 0.421279
C42   C     C_R   0.120803 0.567204 0.543904 0.415868
C43   C     C_R   0.939366 0.422144 0.525932 0.007233
C44   C     C_R   0.061350 0.568580 0.553289 0.005637
C45   C     C_R   0.970446 0.497385 0.534985 -0.110196
C46   C     C_R   0.030488 0.494494 0.535405 -0.110444
C47   C     C_R   0.941572 0.575632 0.542553 -0.011125
C48   C     C_R   0.059571 0.417987 0.516782 -0.009877
C49   C     C_R   0.968510 0.344083 0.524855 0.284759
C50   C     C_R   0.295168 0.546147 0.438679 -0.081945
C51   C     C_R   0.032140 0.642095 0.581058 0.289240
C52   C     C_R   0.027807 0.341831 0.510926 -0.001102
C53   C     C_R   0.972935 0.648702 0.567595 -0.001876
C54   C     C_3   0.924781 0.255313 0.626756 0.039580
C55   C     C_3   0.973500 0.212340 0.678956 -0.294608
C56   C     C_3   0.956103 0.191345 0.776819 -0.484580
C57   C     C_3   0.077167 0.689025 0.710704 0.037075
C58   C     C_3   0.028166 0.704317 0.777777 -0.293492
C59   C     C_3   0.046745 0.686931 0.876078 -0.487692
C60   C     C_3   0.359034 0.571957 0.031220 0.029673
C61   C     C_R   0.705033 0.467149 0.428444 -0.077885
C62   C     C_3   0.314662 0.635004 0.064847 -0.272908
C63   C     C_3   0.257004 0.619637 0.020201 -0.496568
C64   C     C_3   0.642909 0.416437 0.988971 0.030960
C65   C     C_3   0.691055 0.472003 0.953258 -0.221946
C66   C     C_3   0.741021 0.473496 0.019844 -0.500510
C67   C     C_3   0.453822 0.685546 0.885025 0.023425
C68   C     C_3   0.468701 0.748901 0.809964 -0.256941
C69   C     C_3   0.416726 0.772162 0.752421 -0.486192
C70   C     C_3   0.533893 0.284493 0.036650 0.014407
C71   C     C_3   0.515195 0.196886 0.067571 -0.266896
C72   C     C_R   0.328257 0.496658 0.499654 -0.077781
C73   C     C_3   0.552747 0.128456 0.026222 -0.490606
C74   C     C_3   0.417106 0.344106 0.902786 0.016598
C75   C     C_3   0.366200 0.316882 0.845381 -0.252046
C76   C     C_3   0.377070 0.231831 0.800475 -0.479681
C77   C     C_3   0.613688 0.600302 0.134435 -0.001207
C78   C     C_3   0.584489 0.675960 0.179381 -0.243169
C79   C     C_3   0.605410 0.688404 0.277223 -0.482543
C80   C     C_3   0.055657 0.257369 0.492201 -0.334060
C81   C     C_3   0.944368 0.732874 0.585009 -0.335032
C82   C     C_3   0.188551 0.531098 0.307703 0.007428
C83   C     C_R   0.672171 0.504338 0.499210 -0.083855
C84   C     C_3   0.152630 0.579470 0.237966 -0.252478
C85   C     C_3   0.132416 0.522202 0.160996 -0.493205
C86   C     C_3   0.809759 0.510834 0.300924 0.005699
C87   C     C_3   0.846147 0.478429 0.222088 -0.251476
C88   C     C_3   0.863085 0.549663 0.157521 -0.493654
C89   C     C_3   0.322952 0.604490 0.370200 -0.349996
C90   C     C_3   0.677452 0.420618 0.349982 -0.349481
C91   C     C_3   0.349645 0.317042 0.559819 0.020336
C92   C     C_3   0.302045 0.252279 0.547067 -0.257951
C93   C     C_3   0.320424 0.182459 0.482002 -0.499109
C94   C     C_R   0.301184 0.442582 0.562738 0.235486
C95   C     C_3   0.650630 0.671339 0.589621 0.036727
C96   C     C_3   0.696560 0.739716 0.589423 -0.260789
C97   C     C_3   0.680349 0.812150 0.525528 -0.500161
C98   C     C_3   0.193751 0.455129 0.711799 0.030154
C99   C     C_3   0.200399 0.415051 0.806283 -0.254067
C100  C     C_3   0.168717 0.465638 0.878818 -0.500165
C101  C     C_3   0.799591 0.508525 0.718455 0.026751
C102  C     C_3   0.841428 0.542273 0.789322 -0.255796
C103  C     C_3   0.866118 0.471431 0.848082 -0.501315
C104  C     C_3   0.614343 0.060995 0.517183 -0.399578
Cu1   Cu    Cu3+1 0.500010 0.500000 0.590220 1.016763
Cu2   Cu    Cu3+1 0.499990 0.500000 0.409780 0.953137
H1    H     H_    0.887241 0.213088 0.628169 0.175144
H2    H     H_    0.013495 0.770660 0.771964 0.165994
H3    H     H_    0.246284 0.412016 0.824397 0.171796
H4    H     H_    0.184000 0.531669 0.879742 0.144484
H5    H     H_    0.176157 0.437038 0.947183 0.145671
H6    H     H_    0.122295 0.465510 0.864519 0.141263
H7    H     H_    0.820106 0.454393 0.683071 0.130501
H8    H     H_    0.760830 0.485445 0.753831 0.143054
H9    H     H_    0.876906 0.574981 0.753919 0.174372
H10   H     H_    0.819311 0.588429 0.833881 0.168052
H11   H     H_    0.831559 0.434673 0.880693 0.147791
H12   H     H_    0.893498 0.498440 0.902401 0.143600
H13   H     H_    0.992005 0.662226 0.761151 0.152077
H14   H     H_    0.892355 0.428593 0.805447 0.140164
H15   H     H_    0.644487 0.007216 0.520333 0.129729
H16   H     H_    0.623940 0.100079 0.456164 0.137343
H17   H     H_    0.619108 0.099749 0.579662 0.137130
H18   H     H_    0.356031 0.991669 0.490689 0.130527
H19   H     H_    0.381714 0.899225 0.431617 0.137365
H20   H     H_    0.377033 0.899228 0.555110 0.133415
H21   H     H_    0.562881 0.995772 0.714576 0.131870
H22   H     H_    0.519805 0.901932 0.709674 0.128575
H23   H     H_    0.589365 0.902980 0.657757 0.128532
H24   H     H_    0.060778 0.620443 0.883737 0.141577
H25   H     H_    0.436298 0.005667 0.296920 0.130949
H26   H     H_    0.411142 0.098356 0.356125 0.132642
H27   H     H_    0.480186 0.098907 0.301729 0.133090
H28   H     H_    0.580315 0.994542 0.312032 0.131675
H29   H     H_    0.600566 0.901830 0.376708 0.128036
H30   H     H_    0.536468 0.901218 0.308089 0.133323
H31   H     H_    0.421736 0.003604 0.699850 0.130532
H32   H     H_    0.465676 0.096736 0.704016 0.129775
H33   H     H_    0.400702 0.097223 0.637956 0.125340
H34   H     H_    0.010469 0.698237 0.922988 0.149390
H35   H     H_    0.082207 0.729258 0.895596 0.146857
H36   H     H_    0.345921 0.507901 0.053591 0.189172
H37   H     H_    0.360752 0.575366 0.955208 0.148498
H38   H     H_    0.310304 0.629305 0.140293 0.166697
H39   H     H_    0.328772 0.699989 0.048329 0.168302
H40   H     H_    0.259889 0.629491 0.945142 0.145344
H41   H     H_    0.911660 0.314082 0.662686 0.115583
H42   H     H_    0.225128 0.664245 0.048255 0.146709
H43   H     H_    0.242675 0.554393 0.034130 0.148021
H44   H     H_    0.658535 0.350399 0.989168 0.120836
H45   H     H_    0.632622 0.431725 0.061385 0.121572
H46   H     H_    0.705827 0.447209 0.886484 0.156403
H47   H     H_    0.675577 0.537228 0.941990 0.231401
H48   H     H_    0.727132 0.496467 0.087871 0.141178
H49   H     H_    0.774297 0.516478 0.993412 0.148710
H50   H     H_    0.759518 0.409455 0.027471 0.139906
H51   H     H_    0.423085 0.714917 0.933037 0.159945
H52   H     H_    0.985836 0.153376 0.643396 0.170151
H53   H     H_    0.432922 0.630542 0.852225 0.115641
H54   H     H_    0.486265 0.806767 0.841603 0.164801
H55   H     H_    0.501721 0.721380 0.764568 0.190690
H56   H     H_    0.399405 0.715396 0.718262 0.164806
H57   H     H_    0.428986 0.818398 0.698953 0.148947
H58   H     H_    0.383277 0.800714 0.796066 0.140135
H59   H     H_    0.578004 0.294319 0.061040 0.141651
H60   H     H_    0.532122 0.287268 0.960575 0.150232
H61   H     H_    0.517568 0.192666 0.143372 0.175457
H62   H     H_    0.470412 0.185983 0.046529 0.157453
H63   H     H_    0.010933 0.254706 0.681238 0.157042
H64   H     H_    0.549940 0.130201 0.950419 0.146296
H65   H     H_    0.538289 0.065794 0.050442 0.148084
H66   H     H_    0.597702 0.137297 0.047428 0.146826
H67   H     H_    0.423638 0.296663 0.957617 0.176017
H68   H     H_    0.455254 0.346142 0.857775 0.132955
H69   H     H_    0.327959 0.312273 0.889657 0.160691
H70   H     H_    0.357834 0.364850 0.791581 0.225028
H71   H     H_    0.413955 0.235975 0.753387 0.149201
H72   H     H_    0.339025 0.212800 0.760813 0.155476
H73   H     H_    0.385771 0.182968 0.853199 0.136488
H74   H     H_    0.944323 0.249657 0.814055 0.143676
H75   H     H_    0.660299 0.611114 0.136598 0.142206
H76   H     H_    0.606807 0.540912 0.172989 0.099936
H77   H     H_    0.593771 0.733717 0.139095 0.183707
H78   H     H_    0.537708 0.667019 0.179852 0.185247
H79   H     H_    0.597860 0.630833 0.318348 0.191111
H80   H     H_    0.582140 0.741623 0.309105 0.149509
H81   H     H_    0.651597 0.702771 0.277751 0.129896
H82   H     H_    0.076798 0.258721 0.424448 0.167175
H83   H     H_    0.086693 0.241987 0.547087 0.158184
H84   H     H_    0.025119 0.204517 0.489116 0.160356
H85   H     H_    0.992249 0.160747 0.812977 0.151841
H86   H     H_    0.925669 0.757609 0.520583 0.173772
H87   H     H_    0.911155 0.725846 0.638342 0.152417
H88   H     H_    0.973991 0.782090 0.609204 0.158391
H89   H     H_    0.163690 0.475989 0.332343 0.162540
H90   H     H_    0.227945 0.508364 0.273196 0.122390
H91   H     H_    0.114927 0.607144 0.272564 0.188142
H92   H     H_    0.178295 0.631543 0.208600 0.164387
H93   H     H_    0.169161 0.491071 0.127489 0.141506
H94   H     H_    0.109060 0.559998 0.109051 0.145684
H95   H     H_    0.103427 0.473215 0.188407 0.153747
H96   H     H_    0.919420 0.147499 0.776990 0.148681
H97   H     H_    0.833841 0.560922 0.337295 0.159710
H98   H     H_    0.769754 0.538163 0.272255 0.112480
H99   H     H_    0.885268 0.448256 0.249880 0.186695
H100  H     H_    0.821886 0.430386 0.183300 0.166491
H101  H     H_    0.824714 0.582313 0.130588 0.145408
H102  H     H_    0.887469 0.523607 0.099107 0.143420
H103  H     H_    0.890190 0.595866 0.193928 0.154214
H104  H     H_    0.353824 0.646022 0.405477 0.136179
H105  H     H_    0.345230 0.567124 0.317155 0.155386
H106  H     H_    0.291865 0.645959 0.334791 0.168249
H107  H     H_    0.113007 0.730893 0.729616 0.169751
H108  H     H_    0.647336 0.372886 0.376772 0.145340
H109  H     H_    0.654669 0.465810 0.304904 0.124325
H110  H     H_    0.708685 0.386452 0.307042 0.169350
H111  H     H_    0.385783 0.285569 0.595063 0.149683
H112  H     H_    0.366133 0.337412 0.491940 0.121879
H113  H     H_    0.290657 0.224532 0.614318 0.174151
H114  H     H_    0.263590 0.283067 0.518029 0.217507
H115  H     H_    0.326975 0.208455 0.412242 0.153229
H116  H     H_    0.286920 0.133509 0.478773 0.155139
H117  H     H_    0.360634 0.152940 0.505634 0.146854
H118  H     H_    0.093420 0.623364 0.718409 0.114253
H119  H     H_    0.613502 0.695192 0.628734 0.159028
H120  H     H_    0.634856 0.660799 0.518704 0.106108
H121  H     H_    0.702307 0.763916 0.660010 0.173932
H122  H     H_    0.737782 0.713406 0.565972 0.222790
H123  H     H_    0.680730 0.790437 0.453417 0.147324
H124  H     H_    0.711423 0.864129 0.532874 0.155255
H125  H     H_    0.637256 0.836232 0.541694 0.147259
H126  H     H_    0.147637 0.462355 0.697086 0.137756
H127  H     H_    0.213615 0.518940 0.713867 0.122711
H128  H     H_    0.183362 0.349877 0.805135 0.175513
N1    N     N_R   0.852743 0.503017 0.517866 -0.380012
N2    N     N_R   0.148233 0.494624 0.520910 -0.384004
N3    N     N_1   0.499980 0.500000 0.274190 -0.195796
N4    N     N_1   0.500020 0.500000 0.725810 -0.185814
O1    O     O_R   0.500010 0.379080 0.576170 -0.494021
O2    O     O_2   0.149489 0.352357 0.482838 -0.530639
O3    O     O_2   0.848693 0.356038 0.510220 -0.439213
O4    O     O_2   0.151304 0.638063 0.556238 -0.440319
O5    O     O_3   0.939196 0.268871 0.533670 -0.533145
O6    O     O_3   0.061163 0.709191 0.619528 -0.533479
O7    O     O_3   0.412002 0.592086 0.070080 -0.578279
O8    O     O_3   0.595843 0.421197 0.928874 -0.575473
O9    O     O_3   0.503918 0.664261 0.933445 -0.527821
O10   O     O_3   0.498017 0.344860 0.076927 -0.570372
O11   O     O_3   0.405095 0.422805 0.942588 -0.596675
O12   O     O_R   0.499990 0.620920 0.423830 -0.501268
O13   O     O_3   0.598043 0.594594 0.041637 -0.547701
O14   O     O_3   0.202093 0.585129 0.380968 -0.532722
O15   O     O_3   0.797500 0.443214 0.360474 -0.529226
O16   O     O_3   0.331802 0.385367 0.615174 -0.544932
O17   O     O_3   0.670169 0.596522 0.633074 -0.517454
O18   O     O_3   0.218290 0.401335 0.645592 -0.527585
O19   O     O_3   0.784688 0.574178 0.657470 -0.520967
O20   O     O_R   0.500000 0.379080 0.423800 -0.486319
O21   O     O_R   0.500000 0.620920 0.576200 -0.504144
O22   O     O_R   0.417890 0.499980 0.576200 -0.461357
O23   O     O_R   0.582110 0.500020 0.423800 -0.527173
O24   O     O_R   0.417870 0.499970 0.423830 -0.501740
O25   O     O_R   0.582130 0.500030 0.576170 -0.442537
O26   O     O_2   0.853410 0.649803 0.519724 -0.522656

loop_
_geom_bond_atom_site_label_1
_geom_bond_atom_site_label_2
_ccdc_geom_bond_type
C66   H50   S    
C87   C88   S    
C59   H24   S    
C100  H4    S    
C101  C102  S    
C16   C25   T    
C79   H80   S    
C9    O19   S    
C102  C103  S    
C101  H7    S    
C80   H83   S    
Cu1   Cu2   S    
C19   C23   S    
C95   C96   S    
C18   C26   T    
C69   H58   S    
C28   O14   S    
C40   N2    A    
C76   H73   S    
C2    O17   S    
C90   H110  S    
C37   N4    T    
C3    H20   S    
C89   H105  S    
C104  H17   S    
C77   C78   S    
C1    O1    A    
C86   O15   S    
C5    H27   S    
C32   O13   S    
C30   C34   S    
C6    H29   S    
C79   H81   S    
C54   H1    S    
C96   H122  S    
C82   O14   S    
C35   C37   S    
C24   C26   S    
C74   H68   S    
C57   O6    S    
C76   H72   S    
C70   H60   S    
C60   H37   S    
C66   H49   S    
C56   H96   S    
C22   O23   A    
C67   O9    S    
C99   H3    S    
C29   C33   S    
C17   O12   A    
Cu2   O24   S    
C13   C23   S    
C51   O6    S    
C60   C62   S    
C78   H77   S    
C7    H31   S    
C92   H114  S    
C50   C72   A    
C87   H99   S    
C55   H52   S    
C6    H30   S    
C102  H9    S    
C50   C89   S    
C60   H36   S    
C81   H88   S    
C89   H104  S    
C42   N2    A    
C85   H93   S    
C5    H26   S    
C97   H123  S    
C20   C24   S    
C68   C69   S    
C62   H39   S    
C101  O19   S    
C57   H107  S    
C77   H75   S    
Cu1   N4    S    
C31   O8    S    
C93   H116  S    
C77   O13   S    
C73   H65   S    
C63   H40   S    
C5    C13   S    
C30   C33   S    
C85   H95   S    
C47   C53   A    
C72   C94   A    
C75   H70   S    
C56   H85   S    
C60   O7    S    
Cu1   O21   S    
C71   H61   S    
C27   C30   S    
C101  H8    S    
C41   C43   A    
C2    C83   A    
C103  H11   S    
C95   O17   S    
C42   C44   A    
C88   H102  S    
C98   O18   S    
C90   H109  S    
C49   O5    S    
C44   C46   A    
C77   H76   S    
C89   H106  S    
C45   C47   A    
C11   N1    S    
C39   C61   A    
C46   C48   A    
C58   H2    S    
C74   C75   S    
C4    H22   S    
C64   H45   S    
C75   H69   S    
C67   C68   S    
C96   H121  S    
C14   C20   S    
C104  H16   S    
C8    C94   A    
C69   H56   S    
C74   H67   S    
C67   H51   S    
C76   H71   S    
C61   C83   A    
C70   H59   S    
C38   N1    A    
C71   C73   S    
C99   H128  S    
C28   C50   A    
C86   C87   S    
C43   C49   A    
C104  H15   S    
C41   N1    A    
C27   C35   S    
C58   C59   S    
C68   H55   S    
C29   C34   S    
Cu2   N3    S    
Cu2   O23   S    
C64   H44   S    
C51   C53   A    
C32   C34   S    
C14   C23   S    
C91   H111  S    
C92   H113  S    
C15   C19   S    
C75   C76   S    
C95   H119  S    
C81   H86   S    
C62   C63   S    
C42   O4    S    
C27   O9    S    
C43   C45   A    
C6    H28   S    
C85   H94   S    
C14   C104  S    
C97   H124  S    
C48   C52   A    
C22   O25   A    
Cu1   O25   S    
C49   C52   A    
C96   C97   S    
C55   C56   S    
C17   C18   S    
Cu1   O1    S    
C17   O21   A    
C93   H117  S    
C1    C16   S    
C84   C85   S    
C73   H66   S    
C11   C39   A    
C92   C93   S    
C9    C11   A    
C59   H35   S    
C38   C47   A    
C70   C71   S    
C98   H126  S    
C3    H18   S    
C44   C51   A    
C8    C10   A    
C15   C24   S    
C12   C14   S    
C100  H6    S    
Cu1   O22   S    
C7    C19   S    
C71   H62   S    
C13   C15   S    
C29   O10   S    
C31   C35   S    
C103  H12   S    
C4    C12   S    
C65   C66   S    
C88   H101  S    
C86   H98   S    
C63   H42   S    
C90   H108  S    
C74   O11   S    
C3    C15   S    
C61   C90   S    
C66   H48   S    
C1    O20   A    
C56   H74   S    
C87   H100  S    
C10   C28   A    
C36   N3    T    
C40   C48   A    
C54   C55   S    
C79   H79   S    
C4    H21   S    
C27   C32   S    
C78   C79   S    
C80   H84   S    
C13   C20   S    
C31   C32   S    
C69   H57   S    
C62   H38   S    
C7    H32   S    
C93   H115  S    
C3    H19   S    
C21   O22   A    
C4    H23   S    
C39   O15   S    
C91   O16   S    
C84   H91   S    
C6    C20   S    
C82   H89   S    
C12   C24   S    
C82   C84   S    
C99   C100  S    
C88   H103  S    
C84   H92   S    
C64   C65   S    
Cu2   O12   S    
C91   H112  S    
C94   O16   S    
C95   H120  S    
C82   H90   S    
C29   C31   S    
C68   H54   S    
C54   O5    S    
C22   C83   S    
C7    H33   S    
C57   C58   S    
C97   H125  S    
C98   H127  S    
C59   H34   S    
C65   H46   S    
C33   O11   S    
C12   C19   S    
C58   H13   S    
C33   C35   S    
C103  H14   S    
C8    O18   S    
C78   H78   S    
C23   C25   S    
C65   H47   S    
C63   H43   S    
C38   O26   S    
C53   C81   S    
C10   N2    S    
C102  H10   S    
C81   H87   S    
C45   C46   A    
C21   O24   A    
C5    H25   S    
C64   O8    S    
C34   C36   S    
C100  H5    S    
C40   O2    S    
C98   C99   S    
C30   O7    S    
C41   O3    S    
Cu2   O20   S    
C21   C72   S    
C67   H53   S    
C73   H64   S    
C52   C80   S    
C2    C9    A    
C86   H97   S    
C55   H63   S    
C91   C92   S    
C70   O10   S    
C54   H41   S    
C80   H82   S    
C57   H118  S    
