data_mof_unit_17676.cif
_audit_creation_date              2012-12-10T18:16:16-0500
_audit_creation_method            fapswitch 2.2
_symmetry_space_group_name_H-M    P1
_symmetry_Int_Tables_number       1
_space_group_crystal_system       triclinic
_cell_length_a                    12.792556
_cell_length_b                    12.992886
_cell_length_c                    27.028634
_cell_angle_alpha                 95.108637
_cell_angle_beta                  102.914687
_cell_angle_gamma                 81.834854
_cell_volume                      4326.8067048

loop_
_atom_site_label
_atom_site_type_symbol
_atom_type_description
_atom_site_fract_x
_atom_site_fract_y
_atom_site_fract_z
_atom_type_partial_charge
C1    C     C_R   0.440126 0.691858 0.498046 1.032671
C2    C     C_R   0.660698 0.375788 0.035611 -0.052790
C3    C     C_R   0.494823 0.289712 0.016283 -0.058330
C4    C     C_R   0.503886 0.495574 0.594005 0.961172
C5    C     C_R   0.574658 0.339522 0.051652 -0.051495
C6    C     C_R   0.728239 0.439151 0.070467 0.700223
C7    C     C_R   0.717325 0.456994 0.120632 -0.197473
C8    C     C_R   0.636767 0.416369 0.137362 -0.110747
C9    C     C_R   0.565511 0.357111 0.103022 -0.061096
C10   C     C_R   0.482952 0.318180 0.119717 -0.103244
C11   C     C_R   0.470956 0.342155 0.169876 0.572573
C12   C     C_R   0.468237 0.484945 0.727378 -0.100861
C13   C     C_R   0.622547 0.437739 0.187325 0.594385
C14   C     C_R   0.498406 0.532443 0.269244 -0.171648
C15   C     C_R   0.487292 0.558337 0.319351 0.360660
C16   C     C_R   0.560185 0.308105 0.505881 0.854761
C17   C     C_R   0.524715 0.373972 0.335946 -0.207651
C18   C     C_R   0.536831 0.349128 0.286441 -0.040765
C19   C     C_R   0.524225 0.428110 0.252973 0.220471
C20   C     C_R   0.669784 0.355144 0.984268 -0.087286
C21   C     C_R   0.579001 0.325838 0.947971 0.005097
C22   C     C_R   0.490280 0.294470 0.963630 0.105322
C23   C     C_R   0.546236 0.400690 0.743970 0.271997
C24   C     C_R   0.764608 0.364723 0.967199 0.716736
C25   C     C_R   0.392764 0.286540 0.874972 -0.141892
C26   C     C_R   0.420383 0.241247 0.035179 0.603114
C27   C     C_R   0.414157 0.256671 0.086059 -0.158818
C28   C     C_R   0.498362 0.498553 0.405955 0.963467
C29   C     C_R   0.397100 0.276477 0.926189 -0.121113
C30   C     C_R   0.714521 0.067283 0.567463 -0.134436
C31   C     C_R   0.594059 0.199097 0.517409 -0.064842
C32   C     C_R   0.297562 0.840272 0.478214 -0.270825
C33   C     C_R   0.260072 0.945724 0.481919 0.664137
C34   C     C_R   0.575377 0.332253 0.895648 -0.061869
C35   C     C_R   0.330881 0.016545 0.506028 0.317162
C36   C     C_R   0.441938 0.979536 0.523239 -0.155027
C37   C     C_R   0.469444 0.874083 0.533049 -0.057090
C38   C     C_R   0.527507 0.040452 0.530113 0.145172
C39   C     C_R   0.630791 0.004328 0.558978 0.108301
C40   C     C_R   0.655297 0.377436 0.828597 0.571782
C41   C     C_R   0.645555 0.909273 0.581622 -0.320800
C42   C     C_R   0.561788 0.846726 0.571740 0.424472
C43   C     C_R   0.514650 0.132374 0.505697 -0.099849
C44   C     C_R   0.695443 0.165677 0.547623 -0.170378
C45   C     C_R   0.664905 0.359383 0.879829 -0.125425
C46   C     C_R   0.401925 0.802918 0.504327 -0.165758
C47   C     C_R   0.076849 0.368136 0.416928 -0.167590
C48   C     C_R   0.806409 0.595937 0.573625 0.038103
C49   C     C_R   0.909563 0.566938 0.602173 -0.196425
C50   C     C_R   0.985720 0.507734 0.578237 -0.025300
C51   C     C_R   0.963138 0.491138 0.524995 0.074662
C52   C     C_R   0.475034 0.333410 0.808383 0.525841
C53   C     C_R   0.852327 0.497078 0.501838 0.143474
C54   C     C_R   0.042534 0.456542 0.495057 -0.137900
C55   C     C_R   0.006768 0.398416 0.449073 -0.106400
C56   C     C_R   0.761081 0.369250 0.915604 -0.208948
C57   C     C_R   0.899008 0.374849 0.434951 0.437724
C58   C     C_R   0.822384 0.428735 0.460015 -0.241707
C59   C     C_R   0.150553 0.486377 0.505621 0.435613
C60   C     C_R   0.183785 0.387130 0.429784 0.520171
C61   C     C_R   0.611668 0.350809 0.711606 -0.054919
C62   C     C_R   0.598989 0.384731 0.663016 -0.219810
C63   C     C_R   0.454605 0.518031 0.678474 -0.065917
C64   C     C_R   0.480905 0.315495 0.859332 0.001127
C65   C     C_R   0.519860 0.467741 0.646236 -0.032673
C66   C     C_R   0.501060 0.477902 0.352681 -0.135838
F1    F     F_    0.357655 0.173370 0.005939 -0.646610
F2    F     F_    0.154614 0.978653 0.462153 -0.550434
F3    F     F_    0.795636 0.495796 0.055460 -0.585503
F4    F     F_    0.862749 0.361668 0.999477 -0.578864
H1    H     H_    0.394525 0.583200 0.666163 0.223644
H2    H     H_    0.792960 0.042104 0.590864 0.167515
H3    H     H_    0.418385 0.524749 0.752500 0.164091
H4    H     H_    0.439999 0.154874 0.479056 0.218747
H5    H     H_    0.243415 0.787449 0.456662 0.235716
H6    H     H_    0.047299 0.330993 0.380139 0.250163
H7    H     H_    0.745252 0.635938 0.592261 0.193869
H8    H     H_    0.833806 0.381461 0.903884 0.225188
H9    H     H_    0.061131 0.475943 0.601242 0.206212
H10   H     H_    0.928916 0.586508 0.642674 0.183710
H11   H     H_    0.741850 0.409724 0.448703 0.237630
H12   H     H_    0.671826 0.285626 0.724053 0.158432
H13   H     H_    0.488072 0.592710 0.242760 0.184064
H14   H     H_    0.769841 0.506722 0.145867 0.231867
H15   H     H_    0.649099 0.344676 0.638004 0.146684
H16   H     H_    0.327740 0.277111 0.570399 0.386287
H17   H     H_    0.563363 0.922833 0.677037 0.361751
H18   H     H_    0.281312 0.391834 0.313763 0.393963
H19   H     H_    0.722623 0.187132 0.366179 0.392381
H20   H     H_    0.255187 0.728573 0.574816 0.405091
H21   H     H_    0.512413 0.774139 0.286990 0.370503
H22   H     H_    0.318505 0.274760 0.847829 0.205396
H23   H     H_    0.535748 0.312103 0.361647 0.208476
H24   H     H_    0.354282 0.220699 0.098862 0.230852
H25   H     H_    0.557363 0.268592 0.274190 0.176181
H26   H     H_    0.323241 0.261956 0.935638 0.223438
H27   H     H_    0.757950 0.216655 0.557433 0.176468
H28   H     H_    0.717996 0.888384 0.610207 0.181652
N1    N     N_R   0.560041 0.367617 0.794427 -0.356915
N2    N     N_R   0.539462 0.402182 0.202264 -0.347449
N3    N     N_R   0.222180 0.444690 0.474320 -0.213648
N4    N     N_R   0.776980 0.554780 0.525420 -0.126443
O1    O     O_R   0.366730 0.627160 0.487740 -0.553369
O2    O     O_R   0.410930 0.482330 0.420550 -0.527528
O3    O     O_R   0.589030 0.517690 0.436960 -0.621492
O4    O     O_2   0.738966 0.408269 0.813424 -0.532633
O5    O     O_2   0.232361 0.202321 0.479524 -0.296829
O6    O     O_2   0.178594 0.128787 0.548500 -0.210807
O7    O     O_3   0.361751 0.203784 0.569039 -0.560028
O8    O     O_2   0.461523 0.713922 0.610375 -0.319433
O9    O     O_2   0.649720 0.729125 0.652256 -0.330285
O10   O     O_3   0.502672 0.880685 0.665666 -0.475199
O11   O     O_2   0.372250 0.290066 0.405068 -0.309804
O12   O     O_2   0.691107 0.493600 0.220766 -0.507011
O13   O     O_2   0.204235 0.247897 0.351435 -0.238670
O14   O     O_3   0.257710 0.428668 0.343859 -0.527232
O15   O     O_2   0.833491 0.325393 0.335642 -0.270364
O16   O     O_2   0.942064 0.186964 0.387977 -0.189815
O17   O     O_3   0.742448 0.238174 0.395078 -0.587818
O18   O     O_2   0.080879 0.661072 0.557975 -0.307723
O19   O     O_2   0.222406 0.536607 0.605327 -0.347806
O20   O     O_3   0.270960 0.666153 0.552526 -0.495216
O21   O     O_2   0.354397 0.702366 0.359530 -0.246491
O22   O     O_2   0.546718 0.721643 0.381682 -0.293617
O23   O     O_2   0.384568 0.318487 0.773146 -0.525707
O24   O     O_3   0.438562 0.768516 0.291282 -0.481994
O25   O     O_2   0.390224 0.307583 0.185896 -0.519546
O26   O     O_R   0.544830 0.662520 0.504140 -0.608425
O27   O     O_R   0.410970 0.482310 0.563040 -0.558507
O28   O     O_R   0.589070 0.517670 0.579450 -0.614289
O29   O     O_R   0.455170 0.337480 0.495860 -0.569903
O30   O     O_R   0.633270 0.372840 0.512260 -0.647254
S1    S     S_3+6 0.272827 0.140852 0.525724 0.073844
S2    S     S_3+6 0.545350 0.786648 0.625181 0.023464
S3    S     S_3+6 0.258662 0.334559 0.382940 0.089055
S4    S     S_3+6 0.855804 0.278927 0.386502 0.052699
S5    S     S_3+6 0.181860 0.587377 0.555690 0.040812
S6    S     S_3+6 0.456389 0.690201 0.339592 0.065720
Zn1   Zn    Zn3+2 0.381080 0.476390 0.489050 1.116067
Zn2   Zn    Zn3+2 0.618920 0.523610 0.510950 0.993577

loop_
_geom_bond_atom_site_label_1
_geom_bond_atom_site_label_2
_ccdc_geom_bond_type
C10   C27   A    
C6    F3    S    
C23   N1    S    
C63   C65   A    
C8    C13   A    
H21   O24   S    
C41   C42   A    
C28   C66   S    
C35   C36   A    
C1    O26   A    
O28   Zn2   S    
C50   H9    S    
C35   S1    S    
C40   N1    A    
N3    Zn1   S    
C24   F4    S    
C7    C8    A    
C39   C41   A    
O14   S3    S    
C16   C31   S    
C12   C23   A    
C26   C27   A    
C31   C43   A    
C26   F1    S    
C47   C55   A    
C36   C37   A    
C22   C29   A    
C47   H6    S    
C61   H12   S    
C4    C65   S    
C1    C46   S    
C59   S5    S    
C56   H8    S    
C18   C19   A    
O19   S5    D    
C37   C42   A    
C16   O29   A    
C47   C60   A    
C27   H24   S    
O30   Zn2   S    
C20   C24   A    
C45   C56   A    
C8    C9    A    
C57   S4    S    
C9    C10   A    
C53   N4    A    
C13   O12   S    
C15   S6    S    
C43   H4    S    
C7    H14   S    
C12   H3    S    
C18   H25   S    
H20   O20   S    
C30   C44   A    
C2    C6    A    
C14   H13   S    
C32   H5    S    
C50   C51   A    
C54   C59   A    
C25   C29   A    
C40   C45   A    
C62   H15   S    
C31   C44   A    
O7    S1    S    
C59   N3    A    
H19   O17   S    
H16   O7    S    
C52   C64   A    
C58   H11   S    
C12   C63   A    
O21   S6    D    
C21   C34   A    
C15   C66   A    
C2    C20   A    
C11   N2    A    
C51   C53   A    
C25   C64   A    
C48   H7    S    
H18   O14   S    
C11   O25   S    
C5    C9    A    
O1    Zn1   S    
C44   H27   S    
C28   O2    A    
C30   H2    S    
O27   Zn1   S    
C28   O3    A    
C52   O23   S    
C48   N4    A    
C34   C64   A    
C17   C18   A    
C17   C66   A    
C34   C45   A    
N4    Zn2   S    
C60   S3    S    
C6    C7    A    
C48   C49   A    
C63   H1    S    
C55   C57   A    
C38   C43   A    
O8    S2    D    
C2    C5    A    
C17   H23   S    
C60   N3    A    
O16   S4    D    
C40   O4    S    
O22   S6    D    
C1    O1    A    
C54   C55   A    
O24   S6    S    
C25   H22   S    
C62   C65   A    
C14   C15   A    
C32   C46   A    
C14   C19   A    
C3    C26   A    
O20   S5    S    
O10   S2    S    
C3    C5    A    
C29   H26   S    
C4    O28   A    
C53   C58   A    
O2    Zn1   S    
O9    S2    D    
C4    O27   A    
H17   O10   S    
C24   C56   A    
C52   N1    A    
O17   S4    S    
C49   H10   S    
C42   S2    S    
C51   C54   A    
C32   C33   A    
C13   N2    A    
C36   C38   A    
O26   Zn2   S    
O6    S1    D    
O5    S1    D    
C19   N2    S    
C57   C58   A    
C38   C39   A    
O13   S3    D    
C33   C35   A    
C30   C39   A    
C61   C62   A    
C16   O30   A    
O29   Zn1   S    
C10   C11   A    
C23   C61   A    
C20   C21   A    
C49   C50   A    
O11   S3    D    
C41   H28   S    
C3    C22   A    
O18   S5    D    
C37   C46   A    
C21   C22   A    
O15   S4    D    
C33   F2    S    
O3    Zn2   S    
