data_mof_unit_61452.cif
_audit_creation_date              2012-12-10T18:19:40-0500
_audit_creation_method            fapswitch 2.2
_symmetry_space_group_name_H-M    P1
_symmetry_Int_Tables_number       1
_space_group_crystal_system       triclinic
_cell_length_a                    38.977348
_cell_length_b                    32.23065
_cell_length_c                    21.736626
_cell_angle_alpha                 90.00005
_cell_angle_beta                  124.185174
_cell_angle_gamma                 89.999968
_cell_volume                      22589.0338287

loop_
_atom_site_label
_atom_site_type_symbol
_atom_type_description
_atom_site_fract_x
_atom_site_fract_y
_atom_site_fract_z
_atom_type_partial_charge
C1    C     C_R   0.920436 0.999980 0.420882 0.820373
C2    C     C_R   0.079563 0.999980 0.579118 0.820378
C3    C     C_R   0.420436 0.499980 0.420881 0.820337
C4    C     C_R   0.579564 0.499980 0.579118 0.820382
C5    C     C_R   0.999692 0.998964 0.813780 -0.076154
C6    C     C_R   0.000307 0.998964 0.186220 -0.076150
C7    C     C_R   0.499692 0.498964 0.813779 -0.076169
C8    C     C_R   0.500307 0.498964 0.186220 -0.076142
C9    C     C_R   0.972753 0.972970 0.753106 0.014614
C10   C     C_R   0.027246 0.972969 0.246893 0.014612
C11   C     C_R   0.472748 0.472974 0.753101 0.014628
C12   C     C_R   0.527243 0.472966 0.246890 0.014610
C13   C     C_R   0.974556 0.973313 0.690944 -0.231664
C14   C     C_R   0.025443 0.973312 0.309055 -0.231661
C15   C     C_R   0.474550 0.473318 0.690938 -0.231656
C16   C     C_R   0.525439 0.473309 0.309050 -0.231634
C17   C     C_R   0.001842 0.999927 0.687699 -0.076589
C18   C     C_R   0.998157 0.999927 0.312301 -0.076589
C19   C     C_R   0.501841 0.499927 0.687697 -0.076550
C20   C     C_R   0.498157 0.499928 0.312301 -0.076556
C21   C     C_R   0.028254 0.026570 0.747811 0.032029
C22   C     C_R   0.971747 0.026571 0.252190 0.032030
C23   C     C_R   0.528258 0.526564 0.747814 0.032015
C24   C     C_R   0.471751 0.526576 0.252194 0.032032
C25   C     C_R   0.900397 0.958870 0.710869 -0.153201
C26   C     C_R   0.099602 0.958868 0.289128 -0.153195
C27   C     C_R   0.400390 0.458878 0.710857 -0.153216
C28   C     C_R   0.599597 0.458864 0.289116 -0.153177
C29   C     C_R   0.869363 0.934245 0.705700 0.191292
C30   C     C_R   0.130635 0.934242 0.294297 0.191289
C31   C     C_R   0.369354 0.434256 0.705688 0.191323
C32   C     C_R   0.630629 0.434237 0.294284 0.191306
C33   C     C_R   0.879899 0.895800 0.742070 -0.245882
C34   C     C_R   0.120099 0.895797 0.257928 -0.245881
C35   C     C_R   0.379889 0.395813 0.742064 -0.245942
C36   C     C_R   0.620092 0.395790 0.257921 -0.245944
C37   C     C_R   0.921132 0.881972 0.783193 0.181330
C38   C     C_R   0.078865 0.881969 0.216806 0.181330
C39   C     C_R   0.421121 0.381984 0.783193 0.181341
C40   C     C_R   0.578858 0.381962 0.216805 0.181345
C41   C     C_R   0.952556 0.906757 0.788882 0.190748
C42   C     C_R   0.047442 0.906756 0.211117 0.190746
C43   C     C_R   0.452547 0.406766 0.788880 0.190750
C44   C     C_R   0.547436 0.406750 0.211116 0.190725
C45   C     C_R   0.001017 0.000027 0.620045 0.795941
C46   C     C_R   0.998983 0.000027 0.379955 0.795939
C47   C     C_R   0.501016 0.500027 0.620044 0.795942
C48   C     C_R   0.498984 0.500027 0.379955 0.795911
C49   C     C_R   0.941877 0.945707 0.752121 -0.015402
C50   C     C_R   0.058121 0.945705 0.247877 -0.015406
C51   C     C_R   0.441870 0.445713 0.752115 -0.015395
C52   C     C_R   0.558116 0.445701 0.247871 -0.015429
C53   C     C_R   0.727888 0.997517 0.173289 -0.194104
C54   C     C_R   0.272111 0.997498 0.826708 -0.194102
C55   C     C_R   0.227888 0.497569 0.173282 -0.193753
C56   C     C_R   0.772111 0.497439 0.826701 -0.193740
C57   C     C_R   0.706243 0.999687 0.207152 0.084975
C58   C     C_R   0.293756 0.999687 0.792848 0.084976
C59   C     C_R   0.206243 0.499685 0.207151 0.084963
C60   C     C_R   0.793756 0.499689 0.792846 0.084972
C61   C     C_R   0.728086 0.001740 0.284678 -0.204898
C62   C     C_R   0.271914 0.001760 0.715323 -0.204896
C63   C     C_R   0.228087 0.501685 0.284681 -0.205141
C64   C     C_R   0.771914 0.501825 0.715328 -0.205130
C65   C     C_R   0.771734 0.001821 0.329012 0.138503
C66   C     C_R   0.228266 0.001841 0.670989 0.138502
C67   C     C_R   0.271734 0.501765 0.329014 0.138562
C68   C     C_R   0.728267 0.501905 0.670993 0.138562
C69   C     C_R   0.793507 0.999572 0.294741 0.119136
C70   C     C_R   0.206493 0.999572 0.705257 0.119138
C71   C     C_R   0.293507 0.499570 0.294738 0.119140
C72   C     C_R   0.706493 0.499574 0.705255 0.119149
C73   C     C_R   0.771525 0.997298 0.216559 0.131950
C74   C     C_R   0.228475 0.997279 0.783437 0.131942
C75   C     C_R   0.271524 0.497350 0.216551 0.131892
C76   C     C_R   0.728474 0.497220 0.783429 0.131856
C77   C     C_1   0.661476 0.999798 0.162171 -0.026100
C78   C     C_1   0.338524 0.999798 0.837829 -0.026099
C79   C     C_1   0.161475 0.499797 0.162171 -0.026038
C80   C     C_1   0.838524 0.499800 0.837828 -0.026039
C81   C     C_1   0.838423 0.999665 0.339762 0.000460
C82   C     C_1   0.161576 0.999665 0.660237 0.000456
C83   C     C_1   0.338423 0.499664 0.339758 0.000492
C84   C     C_1   0.661576 0.499666 0.660234 0.000459
C85   C     C_1   0.875868 0.999827 0.376951 -0.174547
C86   C     C_1   0.124131 0.999827 0.623048 -0.174541
C87   C     C_1   0.375868 0.499827 0.376948 -0.174524
C88   C     C_1   0.624131 0.499827 0.623046 -0.174467
C89   C     C_R   0.081935 0.125973 0.754796 -0.205093
C90   C     C_R   0.918073 0.125979 0.245212 -0.205096
C91   C     C_R   0.581956 0.625949 0.754780 -0.205238
C92   C     C_R   0.418105 0.625997 0.245247 -0.205253
C93   C     C_1   0.624015 0.999888 0.124458 -0.155536
C94   C     C_1   0.375985 0.999888 0.875542 -0.155535
C95   C     C_1   0.124015 0.499887 0.124458 -0.155471
C96   C     C_1   0.875985 0.499889 0.875542 -0.155469
C97   C     C_R   0.000000 0.920408 0.000000 0.856145
C98   C     C_R   0.500000 0.420409 0.000000 0.856144
C99   C     C_R   0.999865 0.999309 0.880779 0.806767
C100  C     C_R   0.000134 0.999309 0.119221 0.806765
C101  C     C_R   0.499865 0.499309 0.880779 0.806763
C102  C     C_R   0.500134 0.499309 0.119220 0.806748
C103  C     C_R   1.000000 0.079574 0.000000 0.816699
C104  C     C_R   0.500000 0.579574 0.000000 0.816678
C105  C     C_R   0.500000 0.920640 1.000000 0.803746
C106  C     C_R   1.000000 0.420640 1.000000 0.803999
C107  C     C_R   0.579408 0.999977 0.079507 0.815658
C108  C     C_R   0.420592 0.999977 0.920493 0.815658
C109  C     C_R   0.079408 0.499977 0.079507 0.815775
C110  C     C_R   0.920592 0.499977 0.920493 0.815774
C111  C     C_R   0.500000 0.079479 1.000000 0.815127
C112  C     C_R   1.000000 0.579479 0.000000 0.815146
C113  C     C_R   0.495425 0.228299 0.050730 -0.175325
C114  C     C_R   0.504570 0.228299 0.949263 -0.175328
C115  C     C_R   0.995425 0.728299 0.050730 -0.175337
C116  C     C_R   0.004575 0.728299 0.949269 -0.175341
C117  C     C_R   0.499998 0.206422 0.999997 0.151523
C118  C     C_R   1.000000 0.706422 1.000000 0.151538
C119  C     C_R   0.004595 0.771747 0.949295 -0.164342
C120  C     C_R   0.995404 0.771747 0.050704 -0.164342
C121  C     C_R   0.504590 0.271747 0.949289 -0.164321
C122  C     C_R   0.495404 0.271747 0.050704 -0.164334
C123  C     C_R   0.053818 0.098450 0.753498 -0.236607
C124  C     C_R   0.946187 0.098453 0.246505 -0.236612
C125  C     C_R   0.553830 0.598436 0.753475 -0.236358
C126  C     C_R   0.446208 0.598464 0.246523 -0.236415
C127  C     C_R   1.000000 0.793602 1.000000 0.139791
C128  C     C_R   0.499997 0.293602 0.999997 0.139778
C129  C     C_1   0.499998 0.161623 0.999998 -0.058469
C130  C     C_1   1.000000 0.661623 1.000000 -0.058486
C131  C     C_1   1.000000 0.838359 1.000000 -0.027852
C132  C     C_1   0.499999 0.338359 0.999998 -0.027835
C133  C     C_1   1.000000 0.875821 1.000000 -0.096674
C134  C     C_1   0.499999 0.375821 1.000000 -0.096658
C135  C     C_1   0.499999 0.124132 0.999999 -0.156829
C136  C     C_1   1.000000 0.624132 1.000000 -0.156849
C137  C     C_R   0.500719 0.771767 0.944913 0.565089
C138  C     C_R   0.499281 0.771767 0.055087 0.565090
C139  C     C_R   0.006157 0.271766 0.951133 0.565055
C140  C     C_R   0.993843 0.271766 0.048867 0.565052
C141  C     C_R   0.500000 0.793691 1.000000 -0.132028
C142  C     C_R   1.000000 0.293691 1.000000 -0.132031
C143  C     C_R   0.993852 0.228312 0.048790 -0.245573
C144  C     C_R   0.006148 0.228312 0.951210 -0.245572
C145  C     C_R   0.499281 0.728312 0.055000 -0.245635
C146  C     C_R   0.500719 0.728312 0.945000 -0.245630
C147  C     C_R   0.000000 0.206461 1.000000 -0.032611
C148  C     C_R   0.500000 0.706461 0.000000 -0.032529
C149  C     C_1   0.500000 0.838523 1.000000 0.141707
C150  C     C_1   0.000000 0.338523 1.000000 0.141676
C151  C     C_R   0.057566 0.055546 0.747319 0.120481
C152  C     C_R   0.942437 0.055549 0.252684 0.120485
C153  C     C_R   0.557579 0.555529 0.747328 0.120422
C154  C     C_R   0.442449 0.555562 0.252697 0.120446
C155  C     C_1   0.000000 0.161680 1.000000 0.026207
C156  C     C_1   0.500000 0.661680 0.000000 0.026217
C157  C     C_1   0.000000 0.124202 0.000000 -0.171551
C158  C     C_1   0.500000 0.624201 0.000000 -0.171533
C159  C     C_1   0.500000 0.876006 1.000000 -0.117375
C160  C     C_1   1.000000 0.376005 1.000000 -0.117430
C161  C     C_R   0.090118 0.040531 0.743408 -0.230595
C162  C     C_R   0.909886 0.040537 0.256600 -0.230589
C163  C     C_R   0.590139 0.540501 0.743456 -0.230681
C164  C     C_R   0.409900 0.540559 0.256626 -0.230582
C165  C     C_R   0.118363 0.068185 0.745309 -0.189365
C166  C     C_R   0.881645 0.068194 0.254705 -0.189359
C167  C     C_R   0.618395 0.568145 0.745368 -0.189342
C168  C     C_R   0.381669 0.568224 0.254750 -0.189271
C169  C     C_R   0.114199 0.110853 0.750704 0.688998
C170  C     C_R   0.885810 0.110861 0.249309 0.688997
C171  C     C_R   0.614231 0.610815 0.750730 0.688929
C172  C     C_R   0.385844 0.610889 0.249359 0.688914
C173  C     C_R   0.027201 0.025336 0.810800 -0.234918
C174  C     C_R   0.972800 0.025337 0.189200 -0.234921
C175  C     C_R   0.527205 0.525331 0.810803 -0.234905
C176  C     C_R   0.472803 0.525341 0.189204 -0.234930
Cu1   Cu    Cu3+1 0.000000 0.041020 0.500000 1.003450
Cu2   Cu    Cu3+1 0.500000 0.541020 0.500000 1.003660
Cu3   Cu    Cu3+1 0.000000 0.958990 0.500000 0.959907
Cu4   Cu    Cu3+1 0.500000 0.458990 0.500000 0.959958
Cu5   Cu    Cu3+1 0.041030 0.999980 0.040990 0.986523
Cu6   Cu    Cu3+1 0.958970 0.999980 0.959010 0.986520
Cu7   Cu    Cu3+1 0.541030 0.499980 0.040990 0.986555
Cu8   Cu    Cu3+1 0.458970 0.499980 0.959010 0.986547
Cu9   Cu    Cu3+1 0.500010 0.000050 0.061790 0.993678
Cu10  Cu    Cu3+1 0.499990 0.000050 0.938210 0.993677
Cu11  Cu    Cu3+1 0.000010 0.500050 0.061790 0.993493
Cu12  Cu    Cu3+1 0.999990 0.500050 0.938210 0.993489
H1    H     H_    0.856112 0.876368 0.738310 0.141475
H2    H     H_    0.143885 0.876365 0.261688 0.141477
H3    H     H_    0.356100 0.376384 0.738305 0.141431
H4    H     H_    0.643877 0.376356 0.261680 0.141433
H5    H     H_    0.710764 0.995882 0.113195 0.147276
H6    H     H_    0.289235 0.995849 0.886801 0.147277
H7    H     H_    0.210763 0.495976 0.113185 0.147442
H8    H     H_    0.789234 0.495742 0.886789 0.147445
H9    H     H_    0.711115 0.003410 0.310550 0.146245
H10   H     H_    0.288885 0.003445 0.689453 0.146245
H11   H     H_    0.211116 0.503312 0.310557 0.146114
H12   H     H_    0.788886 0.503557 0.689462 0.146108
H13   H     H_    0.991827 0.788279 0.090179 0.159918
H14   H     H_    0.008172 0.788278 0.909820 0.159914
H15   H     H_    0.491829 0.288278 0.090181 0.159946
H16   H     H_    0.508165 0.288278 0.909811 0.159913
H17   H     H_    0.491869 0.211787 0.090238 0.142921
H18   H     H_    0.508126 0.211786 0.909756 0.142919
H19   H     H_    0.991866 0.711787 0.090235 0.142905
H20   H     H_    0.008133 0.711786 0.909764 0.142903
H21   H     H_    0.010933 0.211733 0.913250 0.181504
H22   H     H_    0.989067 0.211733 0.086750 0.181503
H23   H     H_    0.501278 0.711731 0.902209 0.181504
H24   H     H_    0.498721 0.711731 0.097791 0.181500
H25   H     H_    0.078769 0.159007 0.759248 0.172807
H26   H     H_    0.921241 0.159012 0.240761 0.172808
H27   H     H_    0.578790 0.658985 0.759206 0.172542
H28   H     H_    0.421280 0.659029 0.240799 0.172555
H29   H     H_    0.029042 0.110536 0.757024 0.161827
H30   H     H_    0.970963 0.110537 0.242976 0.161828
H31   H     H_    0.529047 0.610532 0.756970 0.161864
H32   H     H_    0.470983 0.610541 0.242985 0.161863
H33   H     H_    0.093823 0.007516 0.739630 0.140859
H34   H     H_    0.906180 0.007523 0.260378 0.140848
H35   H     H_    0.593844 0.507483 0.739701 0.140933
H36   H     H_    0.406187 0.507546 0.260402 0.140835
H37   H     H_    0.143600 0.056592 0.742903 0.184738
H38   H     H_    0.856408 0.056603 0.257115 0.184746
H39   H     H_    0.643641 0.556541 0.742998 0.184726
H40   H     H_    0.356436 0.556641 0.257176 0.184755
H41   H     H_    0.047674 0.045409 0.857574 0.156327
H42   H     H_    0.952328 0.045411 0.142428 0.156324
H43   H     H_    0.547682 0.545401 0.857580 0.156367
H44   H     H_    0.452334 0.545418 0.142434 0.156346
H45   H     H_    0.953865 0.953391 0.644073 0.154852
H46   H     H_    0.046133 0.953390 0.355925 0.154852
H47   H     H_    0.453856 0.453400 0.644063 0.154839
H48   H     H_    0.546127 0.453384 0.355918 0.154843
H49   H     H_    0.892138 0.988537 0.682489 0.156645
H50   H     H_    0.107861 0.988536 0.317508 0.156647
H51   H     H_    0.392133 0.488544 0.682472 0.156656
H52   H     H_    0.607857 0.488533 0.317491 0.156672
O1    O     O_R   0.940150 0.034650 0.440170 -0.568950
O2    O     O_R   0.059850 0.034650 0.559830 -0.568949
O3    O     O_R   0.440150 0.534650 0.440170 -0.568919
O4    O     O_R   0.559850 0.534650 0.559830 -0.568905
O5    O     O_R   0.559850 0.000040 0.112000 -0.576806
O6    O     O_R   0.440150 0.000040 0.888000 -0.576805
O7    O     O_R   0.059850 0.500040 0.112000 -0.577275
O8    O     O_R   0.940150 0.500040 0.888000 -0.577275
O9    O     O_R   0.559860 0.999980 0.007620 -0.575545
O10   O     O_R   0.440140 0.999980 0.992380 -0.575543
O11   O     O_R   0.059860 0.499980 0.007620 -0.575090
O12   O     O_R   0.940140 0.499980 0.992380 -0.575086
O13   O     O_R   0.499990 0.059890 0.052110 -0.578820
O14   O     O_R   0.500010 0.059890 0.947890 -0.578821
O15   O     O_R   0.999990 0.559890 0.052110 -0.578828
O16   O     O_R   0.000010 0.559890 0.947890 -0.578833
O17   O     O_R   0.940170 0.965370 0.440140 -0.581791
O18   O     O_R   0.059830 0.965370 0.559860 -0.581796
O19   O     O_R   0.440170 0.465370 0.440140 -0.581783
O20   O     O_R   0.559830 0.465370 0.559860 -0.581812
O21   O     O_R   1.000000 0.034650 0.590170 -0.570951
O22   O     O_R   0.000000 0.034650 0.409830 -0.570951
O23   O     O_R   0.500000 0.534650 0.590170 -0.570922
O24   O     O_R   0.500000 0.534650 0.409830 -0.570917
O25   O     O_R   0.000010 0.965370 0.590140 -0.590322
O26   O     O_R   0.999990 0.965370 0.409860 -0.590322
O27   O     O_R   0.500010 0.465370 0.590140 -0.590325
O28   O     O_R   0.499990 0.465370 0.409860 -0.590329
O29   O     O_R   0.034640 0.940140 0.034570 -0.580227
O30   O     O_R   0.965360 0.940140 0.965430 -0.580226
O31   O     O_R   0.534640 0.440140 0.034570 -0.580221
O32   O     O_R   0.465360 0.440140 0.965430 -0.580220
O33   O     O_R   0.034650 0.999980 0.944430 -0.588270
O34   O     O_R   0.965350 0.999980 0.055570 -0.588271
O35   O     O_R   0.534650 0.499980 0.944430 -0.588245
O36   O     O_R   0.465350 0.499980 0.055570 -0.588247
O37   O     O_R   0.965370 0.000000 0.875180 -0.575673
O38   O     O_R   0.034630 0.000000 0.124820 -0.575673
O39   O     O_R   0.465370 0.500000 0.875180 -0.575688
O40   O     O_R   0.534630 0.500000 0.124820 -0.575691
O41   O     O_R   0.034650 0.059830 0.034650 -0.577549
O42   O     O_R   0.965350 0.059830 0.965350 -0.577550
O43   O     O_R   0.534650 0.559830 0.034650 -0.577536
O44   O     O_R   0.465350 0.559830 0.965350 -0.577538
O45   O     O_R   0.500020 0.940200 0.052240 -0.566414
O46   O     O_R   0.499980 0.940200 0.947760 -0.566415
O47   O     O_R   0.000020 0.440200 0.052240 -0.566582
O48   O     O_R   0.999980 0.440200 0.947760 -0.566579
F1    F     F_    0.141582 0.137549 0.752341 -0.654334
F2    F     F_    0.858430 0.137559 0.247678 -0.654333
F3    F     F_    0.641623 0.637501 0.752376 -0.654470
F4    F     F_    0.358475 0.637595 0.247746 -0.654445
N1    N     N_3   0.931203 0.842302 0.818873 -0.586811
H53   H     H_    0.914492 0.819758 0.777926 0.214870
H54   H     H_    0.920968 0.841823 0.854195 0.226428
N2    N     N_3   0.068794 0.842299 0.181127 -0.586811
H55   H     H_    0.085505 0.819755 0.222075 0.214872
H56   H     H_    0.079029 0.841819 0.145806 0.226428
N3    N     N_3   0.431190 0.342316 0.818879 -0.586811
H57   H     H_    0.414479 0.319770 0.777936 0.214842
H58   H     H_    0.420954 0.341841 0.854200 0.226438
N4    N     N_3   0.568786 0.342290 0.181133 -0.586819
H59   H     H_    0.585497 0.319748 0.222084 0.214842
H60   H     H_    0.579020 0.341805 0.145809 0.226433
N5    N     N_3   0.994464 0.891356 0.831308 -0.585857
H61   H     H_    0.015477 0.913278 0.835942 0.214503
H62   H     H_    0.995664 0.866135 0.802330 0.225537
N6    N     N_3   0.005534 0.891354 0.168692 -0.585856
H63   H     H_    0.984521 0.913277 0.164057 0.214503
H64   H     H_    0.004333 0.866135 0.197672 0.225538
N7    N     N_3   0.494454 0.391362 0.831310 -0.585847
H65   H     H_    0.515468 0.413280 0.835936 0.214514
H66   H     H_    0.495653 0.366136 0.802340 0.225550
N8    N     N_3   0.505528 0.391349 0.168697 -0.585836
H67   H     H_    0.484516 0.413275 0.164055 0.214523
H68   H     H_    0.504327 0.366133 0.197684 0.225552
N9    N     N_3   0.793683 0.995060 0.181582 -0.595906
H69   H     H_    0.808636 0.966296 0.195102 0.218811
H70   H     H_    0.773035 0.995670 0.123697 0.226382
N10   N     N_3   0.206316 0.995022 0.818413 -0.595903
H71   H     H_    0.191363 0.966257 0.804871 0.218814
H72   H     H_    0.226965 0.995619 0.876298 0.226381
N11   N     N_3   0.293681 0.495166 0.181567 -0.595895
H73   H     H_    0.308634 0.466403 0.195027 0.218905
H74   H     H_    0.273033 0.495812 0.123684 0.226469
N12   N     N_3   0.706315 0.494899 0.818398 -0.595908
H75   H     H_    0.691362 0.466133 0.804786 0.218930
H76   H     H_    0.726963 0.495455 0.876284 0.226453
N13   N     N_3   0.794119 0.003873 0.408689 -0.585769
H77   H     H_    0.773607 0.003079 0.425267 0.217476
H78   H     H_    0.808978 0.032684 0.425316 0.225757
N14   N     N_3   0.205881 0.003913 0.591313 -0.585769
H79   H     H_    0.226394 0.003133 0.574736 0.217480
H80   H     H_    0.191022 0.032725 0.574709 0.225765
N15   N     N_3   0.294120 0.503761 0.408696 -0.585815
H81   H     H_    0.273608 0.502930 0.425273 0.217405
H82   H     H_    0.308979 0.532570 0.425385 0.225801
N16   N     N_3   0.705882 0.504042 0.591322 -0.585810
H83   H     H_    0.726395 0.503304 0.574744 0.217428
H84   H     H_    0.691022 0.532855 0.574789 0.225861
F5    F     F_    0.501418 0.792392 0.891172 -0.640375
F6    F     F_    0.498582 0.792392 0.108828 -0.640376
F7    F     F_    0.012164 0.292388 0.903462 -0.640405
F8    F     F_    0.987836 0.292388 0.096538 -0.640409
N17   N     N_3   0.827330 0.948859 0.663461 -0.579341
H85   H     H_    0.817444 0.950246 0.607733 0.219203
H86   H     H_    0.808026 0.927525 0.666232 0.220288
N18   N     N_3   0.172668 0.948857 0.336535 -0.579337
H87   H     H_    0.182555 0.950244 0.392263 0.219208
H88   H     H_    0.191972 0.927523 0.333763 0.220290
N19   N     N_3   0.327322 0.448872 0.663443 -0.579391
H89   H     H_    0.317438 0.450255 0.607716 0.219112
H90   H     H_    0.308016 0.427541 0.666214 0.220192
N20   N     N_3   0.672662 0.448852 0.336514 -0.579377
H91   H     H_    0.682551 0.450241 0.392243 0.219141
H92   H     H_    0.691965 0.427516 0.333742 0.220194

loop_
_geom_bond_atom_site_label_1
_geom_bond_atom_site_label_2
_ccdc_geom_bond_type
C55   C59   A    
Cu8   O39   S    
Cu10  O14   S    
C26   C50   A    
C139  C142  A    
C74   N10   S    
C97   O30   A    
C138  C145  A    
C176  H44   S    
C29   C33   A    
C33   H1    S    
C9    C13   A    
C91   H27   S    
C54   C74   A    
C11   C15   A    
C113  C122  A    
C12   C16   A    
C125  C153  A    
C151  C161  A    
C70   C74   A    
N12   H75   S    
C147  C155  S    
C71   C83   S    
C145  H24   S    
C45   O25   A    
C4    O20   A    
C41   C49   A    
C144  H21   S    
Cu3   O18   S    
C126  H32   S    
C124  H30   S    
C22   C152  S    
C165  C169  A    
C27   C31   A    
N11   H73   S    
C137  C146  A    
C28   C32   A    
C121  C128  A    
C95   C109  S    
C61   H9    S    
N15   H82   S    
C62   C66   A    
C103  C157  S    
C112  O15   A    
C167  C171  A    
C6    C174  A    
N8    H67   S    
C47   O23   A    
C17   C21   A    
C108  O10   A    
C122  H15   S    
C19   C23   A    
Cu7   Cu8   S    
C164  H36   S    
C25   H49   S    
C68   C72   A    
C115  C118  A    
N19   H90   S    
C72   C84   S    
C126  C154  A    
N2    H55   S    
C21   C173  A    
C64   H12   S    
C140  F8    S    
C24   C176  A    
C90   H26   S    
C145  C148  A    
Cu2   O3    S    
C47   O27   A    
C109  O11   A    
C37   N1    S    
C91   C125  A    
C53   C73   A    
C73   N9    S    
C84   C88   T    
C138  C141  A    
Cu6   O42   S    
C57   C61   A    
C78   C94   T    
C98   O31   A    
C59   C63   A    
C91   C171  A    
C60   C64   A    
C110  O12   A    
C156  C158  T    
C89   C169  A    
C113  H17   S    
Cu2   O24   S    
C66   C70   A    
C92   C172  A    
C3    O19   A    
N18   H87   S    
C27   C51   A    
C116  C118  A    
C70   C82   S    
C127  C131  S    
N15   H81   S    
C61   C65   A    
C132  C134  T    
C138  F6    S    
C139  F7    S    
C6    C100  S    
C111  O13   A    
Cu1   O1    S    
C54   H6    S    
C108  O6    A    
N19   H89   S    
C140  C143  A    
C97   C133  S    
C43   C51   A    
Cu5   O33   S    
C146  H23   S    
C120  C127  A    
C76   N12   S    
Cu7   O43   S    
C153  C163  A    
C64   C68   A    
C154  C164  A    
C17   C45   S    
C104  O43   A    
C65   C69   A    
C77   C93   T    
Cu10  O9    S    
Cu11  O7    S    
C129  C135  T    
Cu4   O19   S    
Cu1   Cu3   S    
C75   N11   S    
C117  C129  S    
C55   C75   A    
C44   C52   A    
C162  C166  A    
C38   N2    S    
N13   H78   S    
C119  H14   S    
C112  C136  S    
C144  C147  A    
C31   N19   S    
Cu4   O28   S    
N6    H64   S    
C7    C11   A    
Cu5   O29   S    
N4    H60   S    
Cu7   O31   S    
C30   C34   A    
C5    C99   S    
Cu12  O16   S    
C9    C49   S    
N14   H79   S    
C10   C14   A    
C172  F4    S    
C137  F5    S    
C105  O45   A    
C100  O34   A    
N11   H74   S    
N10   H72   S    
C5    C9    A    
N1    H53   S    
C169  F1    S    
C2    O2    A    
C45   O21   A    
C8    C12   A    
C165  H37   S    
C174  H42   S    
C116  H20   S    
C1    O1    A    
C42   C50   A    
C113  C117  A    
C166  C170  A    
N16   H84   S    
N7    H66   S    
Cu3   O25   S    
Cu10  O6    S    
C65   N13   S    
C13   H45   S    
C60   C80   S    
C35   H3    S    
C18   C22   A    
C5    C173  A    
C104  C158  S    
C168  H40   S    
C8    C176  A    
C26   C30   A    
C4    C88   S    
C13   C17   A    
C99   O37   A    
C97   O29   A    
C21   C151  S    
C37   C41   A    
C161  C165  A    
C114  C117  A    
Cu3   O26   S    
C40   C44   A    
C67   N15   S    
C109  O7    A    
N20   H91   S    
C7    C101  S    
C19   C47   S    
C39   N3    S    
C4    O4    A    
C81   C85   T    
C119  C127  A    
C58   C62   A    
C83   C87   T    
C155  C157  T    
C53   H5    S    
Cu3   O17   S    
C27   H51   S    
Cu5   Cu6   S    
C15   C19   A    
C150  C160  T    
C106  O48   A    
C140  C142  A    
Cu9   O13   S    
Cu5   O38   S    
C112  O16   A    
C23   C175  A    
N8    H68   S    
N9    H70   S    
C56   H8    S    
C114  C121  A    
Cu12  O48   S    
C24   C154  S    
C69   C73   A    
N17   H86   S    
C103  O42   A    
C1    O17   A    
Cu6   O34   S    
N2    H56   S    
C123  H29   S    
C36   H4    S    
C25   C29   A    
C18   C46   S    
C12   C52   S    
C143  H22   S    
C146  C148  A    
C123  C151  A    
Cu8   O32   S    
C57   C77   S    
C59   C79   S    
C53   C57   A    
C98   O32   A    
C82   C86   T    
C96   C110  S    
C33   C37   A    
C56   C60   A    
C42   N6    S    
Cu12  O11   S    
C35   C39   A    
Cu1   O22   S    
C149  C159  T    
Cu2   O4    S    
C79   C95   T    
C118  C130  S    
C26   H50   S    
C167  H39   S    
C164  C168  A    
C46   O26   A    
N18   H88   S    
C40   N4    S    
C20   C48   S    
Cu6   O30   S    
Cu10  O46   S    
C31   C35   A    
C10   C50   S    
C32   C36   A    
C89   H25   S    
C110  O8    A    
C137  C141  A    
C100  O38   A    
C90   C124  A    
C101  O39   A    
C102  O40   A    
Cu8   O44   S    
C92   C126  A    
C6    C10   A    
Cu2   Cu4   S    
C170  F2    S    
C142  C150  S    
Cu11  Cu12  S    
C104  O44   A    
C111  C135  S    
Cu9   Cu10  S    
C105  C159  S    
C106  C160  S    
C41   N5    S    
C92   H28   S    
C67   C71   A    
C122  C128  A    
C25   C49   A    
C69   C81   S    
C58   C78   S    
Cu4   O20   S    
C168  C172  A    
N5    H61   S    
C15   H47   S    
C48   O28   A    
C148  C156  S    
C152  C162  A    
C28   H52   S    
Cu8   O36   S    
C55   H7    S    
N7    H65   S    
C56   C76   A    
C115  H19   S    
N13   H77   S    
C14   C18   A    
C72   C76   A    
C66   N14   S    
C99   O33   A    
C141  C149  S    
Cu7   O40   S    
C143  C147  A    
C94   C108  S    
C43   N7    S    
N14   H80   S    
C38   C42   A    
Cu2   O23   S    
C16   H48   S    
Cu11  O12   S    
Cu9   O45   S    
Cu9   O10   S    
Cu11  O47   S    
C20   C24   A    
C7    C175  A    
C2    C86   S    
C80   C96   T    
C16   C20   A    
C68   N16   S    
C111  O14   A    
Cu1   O2    S    
C124  C152  A    
C120  H13   S    
Cu1   O21   S    
C128  C132  S    
C29   N17   S    
C22   C174  A    
C32   N20   S    
Cu6   O37   S    
C1    C85   S    
C34   H2    S    
C63   C67   A    
C175  H43   S    
C107  O9    A    
C3    C87   S    
C162  H34   S    
C36   C40   A    
C62   H10   S    
N3    H57   S    
C39   C43   A    
C89   C123  A    
N5    H62   S    
C48   O24   A    
C114  H18   S    
C161  H33   S    
C163  C167  A    
Cu5   O41   S    
C139  C144  A    
Cu7   O35   S    
C166  H38   S    
C90   C170  A    
C3    O3    A    
N3    H58   S    
C173  H41   S    
C125  H31   S    
C2    O18   A    
C115  C120  A    
N20   H92   S    
Cu11  O15   S    
C14   H46   S    
Cu4   O27   S    
N6    H63   S    
Cu9   O5    S    
C54   C58   A    
N4    H59   S    
C34   C38   A    
C107  O5    A    
C130  C136  T    
C121  H16   S    
C44   N8    S    
C131  C133  T    
N12   H76   S    
C163  H35   S    
C46   O22   A    
C98   C134  S    
C105  O46   A    
C116  C119  A    
N10   H71   S    
C23   C153  S    
C106  O47   A    
N1    H54   S    
C93   C107  S    
C71   C75   A    
C28   C52   A    
C63   H11   S    
Cu12  O8    S    
N9    H69   S    
C11   C51   S    
C30   N18   S    
N16   H83   S    
C101  O35   A    
C102  O36   A    
N17   H85   S    
C8    C102  S    
C103  O41   A    
C171  F3    S    
