data_mof_unit_11827.cif
_audit_creation_date              2012-12-10T19:11:29-0500
_audit_creation_method            fapswitch 2.2
_symmetry_space_group_name_H-M    P1
_symmetry_Int_Tables_number       1
_space_group_crystal_system       triclinic
_cell_length_a                    10.70808
_cell_length_b                    9.702714
_cell_length_c                    10.498112
_cell_angle_alpha                 89.765092
_cell_angle_beta                  89.842466
_cell_angle_gamma                 90.442912
_cell_volume                      1090.68096318

loop_
_atom_site_label
_atom_site_type_symbol
_atom_type_description
_atom_site_fract_x
_atom_site_fract_y
_atom_site_fract_z
_atom_type_partial_charge
C1    C     C_R   0.258228 0.499499 0.492674 1.044621
C2    C     C_3   0.500131 0.501227 0.122131 0.018319
C3    C     C_3   0.076071 0.642472 0.442675 0.336261
C4    C     C_3   0.074614 0.471715 0.626631 0.277719
C5    C     C_3   0.932005 0.642441 0.428160 0.082550
C6    C     C_3   0.930109 0.487188 0.635152 0.018219
C7    C     C_3   0.072772 0.386321 0.394748 1.099361
C8    C     C_3   0.122213 0.498677 0.488606 -0.341928
C9    C     C_3   0.879737 0.501567 0.492399 -0.113860
C10   C     C_3   0.927725 0.373261 0.408124 0.022644
C11   C     C_3   0.371842 0.080202 0.481973 -0.361597
C12   C     C_3   0.371696 0.917690 0.482647 -0.412002
C13   C     C_3   0.576180 0.082279 0.391206 -0.286595
C14   C     C_3   0.575582 0.919926 0.390808 -0.271995
C15   C     C_3   0.550225 0.081209 0.618163 0.556395
C16   C     C_3   0.550279 0.918663 0.618141 0.564771
C17   C     C_R   0.500289 0.500378 0.257071 0.882359
C18   C     C_R   0.742612 0.500725 0.495636 0.914158
C19   C     C_R   0.499931 0.499630 0.742761 0.859953
C20   C     C_3   0.499360 0.631539 0.039734 -0.126942
C21   C     C_3   0.397413 0.433555 0.042901 -0.119350
C22   C     C_3   0.396701 0.563683 0.957739 -0.139872
C23   C     C_3   0.499727 0.498818 0.877615 0.014084
C24   C     C_3   0.602308 0.566513 0.956859 -0.180857
C25   C     C_3   0.500370 0.368539 0.959966 -0.150485
C26   C     C_3   0.603018 0.436385 0.041840 -0.209982
H1    H     H_    0.312855 0.615174 0.918454 0.144688
H2    H     H_    0.330958 0.117904 0.391138 0.254801
H3    H     H_    0.329440 0.878837 0.392864 0.250956
H4    H     H_    0.310390 0.117805 0.559836 0.228082
H5    H     H_    0.310935 0.879416 0.561522 0.168884
H6    H     H_    0.540134 0.120467 0.298415 0.163835
H7    H     H_    0.538289 0.882801 0.298233 0.158820
H8    H     H_    0.491655 0.116568 0.699186 0.007620
H9    H     H_    0.491751 0.881689 0.699252 0.010867
H10   H     H_    0.673591 0.121083 0.398099 0.206255
H11   H     H_    0.672641 0.881661 0.396404 0.202502
H12   H     H_    0.499023 0.738797 0.076191 0.142044
H13   H     H_    0.314184 0.379639 0.082868 0.195758
H14   H     H_    0.685672 0.620868 0.917969 0.147284
H15   H     H_    0.500871 0.261279 0.923517 0.157592
H16   H     H_    0.687216 0.384188 0.078949 0.144208
H17   H     H_    0.105643 0.719851 0.514696 0.082488
H18   H     H_    0.120357 0.547372 0.691501 0.093909
N1    N     N_3   0.499750 0.138610 0.497240 -0.114008
N2    N     N_3   0.499750 0.861390 0.497240 -0.101798
O1    O     O_R   0.314910 0.616040 0.499970 -0.641600
O2    O     O_R   0.314910 0.383960 0.499970 -0.546478
O3    O     O_R   0.500080 0.616020 0.313900 -0.632091
O4    O     O_R   0.500080 0.383980 0.313900 -0.645094
O5    O     O_R   0.685320 0.616040 0.499930 -0.576240
O6    O     O_R   0.685320 0.383960 0.499930 -0.574037
O7    O     O_R   0.500150 0.616060 0.686000 -0.621532
O8    O     O_R   0.500150 0.383940 0.686000 -0.612401
Zn1   Zn    Zn3+2 0.500150 0.654960 0.499940 0.967938
Zn2   Zn    Zn3+2 0.500150 0.345040 0.499940 0.993687
N3    N     N_3   0.871121 0.376125 0.279894 -0.420071
H19   H     H_    0.910800 0.299472 0.223163 0.220525
H20   H     H_    0.776243 0.351209 0.285822 0.171949
N4    N     N_3   0.893435 0.239436 0.467851 -0.363817
H21   H     H_    0.903169 0.160065 0.401462 0.183612
H22   H     H_    0.953195 0.213331 0.542237 0.302111
F1    F     F_    0.669666 0.131997 0.639239 -0.619857
F2    F     F_    0.669594 0.869624 0.639370 -0.626167
F3    F     F_    0.135259 0.681462 0.329906 -0.620739
F4    F     F_    0.112650 0.342380 0.667685 -0.641863
N5    N     N_3   0.881350 0.769000 0.487330 -0.377211
H23   H     H_    0.896179 0.853248 0.426515 0.174760
H24   H     H_    0.927420 0.797168 0.570684 0.228009
N6    N     N_3   0.901444 0.610547 0.710750 -0.492612
H25   H     H_    0.935105 0.598211 0.803567 0.185392
H26   H     H_    0.804786 0.621958 0.718732 0.229932
N7    N     N_3   0.898907 0.645583 0.291640 -0.349200
H27   H     H_    0.801830 0.650892 0.282445 0.169002
H28   H     H_    0.934132 0.734887 0.247919 0.235361
N8    N     N_3   0.874696 0.366790 0.701728 -0.341458
H29   H     H_    0.780476 0.384419 0.721670 0.208386
H30   H     H_    0.917142 0.355014 0.790744 0.233791
F5    F     F_    0.106507 0.423888 0.271389 -0.637555
F6    F     F_    0.127729 0.259467 0.417098 -0.685167

loop_
_geom_bond_atom_site_label_1
_geom_bond_atom_site_label_2
_ccdc_geom_bond_type
C7    C10   S    
C4    F4    S    
C6    N6    S    
C12   H3    S    
C1    C8    S    
N7    H27   S    
C13   H6    S    
C10   N4    S    
C4    C8    S    
C14   H7    S    
C18   O6    A    
C7    C8    S    
C14   N2    S    
C3    H17   S    
C7    F5    S    
N8    H30   S    
C16   H9    S    
N3    H20   S    
C15   C16   S    
N4    H22   S    
C17   O3    A    
C20   C24   S    
N1    Zn2   S    
N2    Zn1   S    
C23   C24   S    
N6    H25   S    
C9    C10   S    
C15   H8    S    
C5    N5    S    
C19   O7    A    
C13   C14   S    
C2    C17   S    
N7    H28   S    
C3    F3    S    
C6    C9    S    
C18   O5    A    
O7    Zn1   S    
O8    Zn2   S    
C2    C20   S    
N5    H23   S    
C10   N3    S    
N8    H29   S    
C11   H4    S    
C13   H10   S    
C4    C6    S    
C3    C8    S    
C25   H15   S    
C1    O1    A    
C4    H18   S    
C25   C26   S    
O3    Zn1   S    
O4    Zn2   S    
N4    H21   S    
N5    H24   S    
C19   C23   S    
C5    C9    S    
C20   H12   S    
C21   H13   S    
C2    C21   S    
C2    C26   S    
C19   O8    A    
C12   N2    S    
C20   C22   S    
C22   H1    S    
C12   H5    S    
C11   N1    S    
C15   N1    S    
C16   N2    S    
C26   H16   S    
O1    Zn1   S    
O2    Zn2   S    
C21   C25   S    
C24   C26   S    
C3    C5    S    
C17   O4    A    
C11   C12   S    
C1    O2    A    
C6    N8    S    
C14   H11   S    
C13   N1    S    
N3    H19   S    
C11   H2    S    
C24   H14   S    
O5    Zn1   S    
C23   C25   S    
C5    N7    S    
C9    C18   S    
C15   F1    S    
C22   C23   S    
N6    H26   S    
C16   F2    S    
C21   C22   S    
O6    Zn2   S    
C7    F6    S    
