data_mof_unit_59441.cif
_audit_creation_date              2012-10-26T19:40:45-0400
_audit_creation_method            fapswitch 2.2
_symmetry_space_group_name_H-M    P1
_symmetry_Int_Tables_number       1
_space_group_crystal_system       triclinic
_cell_length_a                    9.720623
_cell_length_b                    10.942158
_cell_length_c                    13.413974
_cell_angle_alpha                 90.389939
_cell_angle_beta                  72.493574
_cell_angle_gamma                 90.270338
_cell_volume                      1360.65155188

loop_
_atom_site_label
_atom_site_type_symbol
_atom_type_description
_atom_site_fract_x
_atom_site_fract_y
_atom_site_fract_z
_atom_type_partial_charge
C1    C     C_R   0.500598 0.734493 0.498826 0.565548
C2    C     C_R   0.373877 0.483679 0.814931 0.044767
C3    C     C_2   0.614170 0.067572 0.495271 -0.140572
C4    C     C_R   0.422376 0.493415 0.699988 0.597636
C5    C     C_2   0.495381 0.133554 0.503491 -0.069682
C6    C     C_2   0.613283 0.933653 0.498722 -0.138584
C7    C     C_2   0.499806 0.866359 0.494342 -0.105272
C8    C     C_2   0.071041 0.596118 0.517177 -0.051497
C9    C     C_2   0.910552 0.589360 0.537097 0.101686
C10   C     C_R   0.499618 0.265484 0.500038 0.587696
C11   C     C_R   0.577522 0.499544 0.299828 0.537470
C12   C     C_R   0.434706 0.479260 0.978784 0.018567
C13   C     C_R   0.789879 0.415717 0.024442 -0.124885
C14   C     C_R   0.621908 0.487445 0.185589 0.000205
C15   C     C_R   0.235858 0.527329 0.868650 -0.118990
C16   C     C_R   0.194750 0.542561 0.976052 -0.139788
C17   C     C_R   0.293489 0.522604 0.030494 -0.111678
C18   C     C_2   0.830856 0.692716 0.599348 0.288965
C19   C     C_1   0.841918 0.315221 0.817869 0.158038
C20   C     C_2   0.597095 0.282765 0.742046 0.260243
C21   C     C_R   0.467795 0.444902 0.872124 0.047779
C22   C     C_R   0.543137 0.468222 0.029557 0.018126
C23   C     C_R   0.681289 0.420697 0.974181 0.032410
C24   C     C_R   0.705177 0.372237 0.872711 -0.035379
C25   C     C_R   0.592892 0.373127 0.826545 0.019121
C26   C     C_R   0.518362 0.504262 0.134164 -0.119394
C27   C     C_R   0.759755 0.447440 0.129464 -0.141738
Cu1   Cu    Cu3+1 0.361370 0.499980 0.499980 0.967116
Cu2   Cu    Cu3+1 0.638630 0.500020 0.500020 0.989900
H1    H     H_    0.842340 0.435508 0.167655 0.128523
H2    H     H_    0.160644 0.553558 0.827255 0.144000
H3    H     H_    0.254136 0.540883 0.113095 0.104633
H4    H     H_    0.087678 0.575755 0.016866 0.122898
H5    H     H_    0.716746 0.112728 0.487029 0.140343
H6    H     H_    0.877102 0.783852 0.586381 0.048672
H7    H     H_    0.698927 0.254574 0.687282 0.121452
H8    H     H_    0.390384 0.092637 0.514989 0.107082
H9    H     H_    0.710849 0.889786 0.503674 0.143890
H10   H     H_    0.402735 0.906311 0.485446 0.095039
H11   H     H_    0.117788 0.684055 0.526302 0.134519
H12   H     H_    0.103946 0.417427 0.502531 0.215172
H13   H     H_    0.912222 0.437659 0.453229 0.187293
H14   H     H_    0.896986 0.382079 0.984535 0.138073
H15   H     H_    0.417489 0.543357 0.179204 0.123061
N1    N     N_2   0.152660 0.501340 0.501130 -0.352569
N2    N     N_2   0.846520 0.501370 0.501160 -0.348406
N3    N     N_1   0.950977 0.270038 0.774068 -0.290460
O1    O     O_R   0.382960 0.678040 0.499980 -0.511688
O2    O     O_2   0.486144 0.235051 0.735810 -0.511523
O3    O     O_R   0.617100 0.678080 0.500020 -0.470849
O4    O     O_R   0.325800 0.499940 0.650950 -0.489363
O5    O     O_R   0.559930 0.499980 0.650990 -0.438782
O6    O     O_R   0.382900 0.321920 0.499980 -0.492660
O7    O     O_R   0.617040 0.321960 0.500020 -0.510064
O8    O     O_R   0.440070 0.500020 0.349010 -0.500765
O9    O     O_R   0.674200 0.500060 0.349050 -0.510804
O10   O     O_2   0.720572 0.677107 0.670985 -0.464533

loop_
_geom_bond_atom_site_label_1
_geom_bond_atom_site_label_2
_ccdc_geom_bond_type
C12   C17   A    
C8    C9    S    
C2    C4    S    
Cu1   O6    S    
C6    H9    S    
C1    O1    A    
C15   H2    S    
C6    C7    D    
Cu2   O9    S    
C5    H8    S    
C16   H4    S    
C18   H6    S    
C18   O10   D    
C13   H14   S    
Cu2   N2    S    
C23   C24   A    
C3    C6    S    
C2    C21   A    
C19   C24   S    
C26   H15   S    
C9    N2    D    
C1    C7    S    
C14   C26   A    
C27   H1    S    
C2    C15   A    
C20   O2    D    
H13   N2    S    
C4    O5    A    
C10   O7    A    
C7    H10   S    
Cu1   Cu2   S    
C11   C14   S    
Cu1   O8    S    
Cu2   O3    S    
C22   C26   A    
C14   C27   A    
Cu1   O4    S    
C19   N3    T    
Cu1   N1    S    
Cu2   O7    S    
C4    O4    A    
C15   C16   A    
C20   H7    S    
C12   C22   A    
C9    C18   S    
C5    C10   S    
C11   O8    A    
C24   C25   A    
C13   C23   A    
C1    O3    A    
C17   H3    S    
C10   O6    A    
H12   N1    S    
C22   C23   A    
Cu1   O1    S    
C21   C25   A    
C8    H11   S    
C3    H5    S    
C8    N1    D    
C12   C21   A    
Cu2   O5    S    
C13   C27   A    
C11   O9    A    
C16   C17   A    
C3    C5    D    
C20   C25   S    
