data_mof_unit_35215.cif
_audit_creation_date              2012-12-10T20:39:59-0500
_audit_creation_method            fapswitch 2.2
_symmetry_space_group_name_H-M    P1
_symmetry_Int_Tables_number       1
_space_group_crystal_system       triclinic
_cell_length_a                    23.411515
_cell_length_b                    10.681122
_cell_length_c                    9.85634
_cell_angle_alpha                 89.754156
_cell_angle_beta                  89.719254
_cell_angle_gamma                 90.064345
_cell_volume                      2464.63479128

loop_
_atom_site_label
_atom_site_type_symbol
_atom_type_description
_atom_site_fract_x
_atom_site_fract_y
_atom_site_fract_z
_atom_type_partial_charge
C1    C     C_R   0.501776 0.259868 0.500185 0.882968
C2    C     C_R   0.970099 0.280885 0.592678 -0.140221
C3    C     C_R   0.029466 0.281332 0.595451 -0.147990
C4    C     C_R   0.060030 0.384128 0.543800 -0.004725
C5    C     C_R   0.030502 0.486674 0.487076 -0.021163
C6    C     C_R   0.060984 0.589901 0.435037 -0.116338
C7    C     C_R   0.031614 0.690466 0.376429 -0.147583
C8    C     C_R   0.972257 0.689820 0.368218 0.458319
C9    C     C_R   0.119658 0.387661 0.548024 0.525665
C10   C     C_R   0.120562 0.589059 0.441129 0.549491
C11   C     C_R   0.236799 0.575184 0.587853 -0.067573
C12   C     C_R   0.389566 0.502018 0.500374 0.858159
C13   C     C_R   0.296061 0.584248 0.586737 0.449269
C14   C     C_R   0.327657 0.503308 0.500946 -0.182817
C15   C     C_R   0.299419 0.418854 0.415979 -0.260510
C16   C     C_R   0.240302 0.413027 0.416279 -0.079787
C17   C     C_R   0.209076 0.491065 0.502124 0.197555
C18   C     C_R   0.761553 0.485319 0.371359 -0.101066
C19   C     C_R   0.702361 0.489061 0.373564 -0.209404
C20   C     C_R   0.673018 0.496792 0.497852 -0.040495
C21   C     C_R   0.703667 0.500571 0.619843 -0.214618
C22   C     C_R   0.762977 0.497080 0.617242 -0.088534
C23   C     C_R   0.501837 0.740043 0.499706 0.877011
C24   C     C_R   0.791835 0.489520 0.492995 0.314193
C25   C     C_R   0.512355 0.063014 0.622785 0.146193
C26   C     C_R   0.511101 0.128478 0.500396 -0.104819
C27   C     C_R   0.521045 0.065293 0.377948 -0.215705
C28   C     C_R   0.521092 0.935817 0.377602 -0.207247
C29   C     C_R   0.511177 0.871315 0.499684 -0.105478
C30   C     C_R   0.512315 0.935281 0.622329 0.129452
C31   C     C_3   0.472948 0.926854 0.741855 -0.445107
C32   C     C_3   0.473018 0.068671 0.742538 -0.498945
C33   C     C_R   0.450535 0.480523 0.072126 0.239503
C34   C     C_R   0.610727 0.499613 0.499559 0.874944
C35   C     C_R   0.547773 0.530616 0.071226 -0.142557
C36   C     C_R   0.547796 0.530484 0.927330 -0.139823
C37   C     C_R   0.450341 0.481387 0.929373 0.248565
C38   C     C_3   0.413039 0.367733 0.925644 -0.312653
C39   C     C_3   0.413498 0.367198 0.080233 -0.515953
C40   C     C_R   0.880839 0.590085 0.437984 0.513931
C41   C     C_R   0.880738 0.385624 0.538192 0.511898
C42   C     C_R   0.940272 0.383330 0.538439 0.007580
C43   C     C_R   0.970443 0.486456 0.483845 -0.062630
C44   C     C_R   0.940762 0.589636 0.427702 -0.143474
H1    H     H_    0.947682 0.200589 0.634374 0.200314
H2    H     H_    0.679707 0.485633 0.278131 0.155638
H3    H     H_    0.681946 0.506508 0.716886 0.154385
H4    H     H_    0.786588 0.500925 0.711358 0.142990
H5    H     H_    0.524674 0.114712 0.282052 0.172232
H6    H     H_    0.524747 0.887413 0.281581 0.175145
H7    H     H_    0.430688 0.885776 0.716185 0.217157
H8    H     H_    0.494120 0.885025 0.832023 0.209053
H9    H     H_    0.430748 0.109998 0.717448 0.201016
H10   H     H_    0.494417 0.108376 0.833156 0.205128
H11   H     H_    0.586589 0.553568 0.124632 0.153236
H12   H     H_    0.051258 0.201363 0.638937 0.198784
H13   H     H_    0.586641 0.553304 0.872887 0.155194
H14   H     H_    0.434921 0.285934 0.880321 0.137295
H15   H     H_    0.371629 0.387912 0.128710 0.228813
H16   H     H_    0.436189 0.285178 0.124127 0.195371
H17   H     H_    0.054709 0.769075 0.332929 0.216308
H18   H     H_    0.211949 0.636318 0.652684 0.173694
H19   H     H_    0.323230 0.356173 0.350736 0.167250
H20   H     H_    0.218635 0.348455 0.349477 0.165099
H21   H     H_    0.784032 0.479402 0.275310 0.139092
N1    N     N_R   0.852640 0.488266 0.489765 -0.358518
N2    N     N_R   0.148346 0.489244 0.497487 -0.347525
N3    N     N_R   0.499610 0.499140 0.142800 -0.116443
N4    N     N_R   0.499610 0.499180 0.857150 -0.129402
O1    O     O_R   0.500010 0.316790 0.614690 -0.619888
O2    O     O_2   0.850946 0.286516 0.586373 -0.545211
O3    O     O_2   0.148839 0.291199 0.602996 -0.544468
O4    O     O_2   0.150688 0.686576 0.390327 -0.540442
O5    O     O_R   0.500000 0.316760 0.385350 -0.623735
O6    O     O_R   0.416160 0.499980 0.614700 -0.620566
O7    O     O_R   0.416150 0.499940 0.385360 -0.600746
O8    O     O_R   0.500000 0.683240 0.614650 -0.617337
O9    O     O_R   0.499990 0.683210 0.385310 -0.616144
O10   O     O_R   0.583850 0.500060 0.614640 -0.627147
O11   O     O_R   0.583840 0.500020 0.385300 -0.629610
O12   O     O_2   0.850673 0.692207 0.401251 -0.522394
Zn1   Zn    Zn3+2 0.500000 0.500020 0.653130 0.952529
Zn2   Zn    Zn3+2 0.500000 0.499980 0.346870 0.954607
C45   C     C_2   0.355253 0.392879 0.864936 0.528218
H22   H     H_    0.339490 0.332390 0.785262 0.052283
O13   O     O_2   0.325901 0.480449 0.903395 -0.523499
O14   O     O_3   0.947062 0.787307 0.299130 -0.706284
H23   H     H_    0.918806 0.750214 0.236447 0.363569
O15   O     O_3   0.320658 0.674756 0.667411 -0.721521
H24   H     H_    0.359867 0.692497 0.634817 0.329002

loop_
_geom_bond_atom_site_label_1
_geom_bond_atom_site_label_2
_ccdc_geom_bond_type
C22   H4    S    
O14   H23   S    
C37   N4    A    
C41   C42   A    
C19   C20   A    
C9    O3    S    
O5    Zn2   S    
C11   H18   S    
C19   H2    S    
C7    C8    A    
C10   N2    A    
C18   H21   S    
C26   C27   A    
C29   C30   A    
C18   C24   A    
C1    O5    A    
C23   C29   S    
C28   C29   A    
C45   O13   D    
C5    C6    A    
C10   O4    S    
C15   C16   A    
C35   N3    A    
C18   C19   A    
C7    H17   S    
N4    Zn1   S    
C34   O11   A    
C38   H14   S    
C28   H6    S    
O9    Zn2   S    
C35   C36   A    
C16   C17   A    
C31   H8    S    
C24   N1    S    
C41   O2    S    
C20   C34   S    
C25   C32   S    
C5    C43   A    
C40   N1    A    
C21   C22   A    
O11   Zn2   S    
O7    Zn2   S    
C32   H10   S    
C13   O15   S    
C2    H1    S    
C17   N2    S    
C35   H11   S    
C45   H22   S    
C36   H13   S    
C25   C26   A    
C33   C37   A    
C43   C44   A    
C9    N2    A    
C37   C38   S    
C34   O10   A    
C3    H12   S    
C31   C32   S    
C30   C31   S    
C39   H15   S    
C33   C39   S    
C23   O8    A    
C41   N1    A    
C12   C14   S    
C12   O7    A    
C1    C26   S    
C22   C24   A    
C42   C43   A    
C3    C4    A    
C32   H9    S    
C36   N4    A    
C25   C30   A    
C11   C17   A    
C38   C45   S    
N3    Zn2   S    
C40   O12   S    
C8    C44   A    
C31   H7    S    
C4    C5    A    
C6    C10   A    
O10   Zn1   S    
O6    Zn1   S    
C6    C7    A    
C1    O1    A    
C8    O14   S    
C2    C3    A    
C4    C9    A    
C11   C13   A    
C38   C39   S    
O8    Zn1   S    
C2    C42   A    
C39   H16   S    
C23   O9    A    
O1    Zn1   S    
C40   C44   A    
C20   C21   A    
C12   O6    A    
C27   C28   A    
C15   H19   S    
C14   C15   A    
C16   H20   S    
O15   H24   S    
C13   C14   A    
C27   H5    S    
C33   N3    A    
C21   H3    S    
