data_mof_unit_47864.cif
_audit_creation_date              2012-12-10T16:44:41-0500
_audit_creation_method            fapswitch 2.2
_symmetry_space_group_name_H-M    P1
_symmetry_Int_Tables_number       1
_space_group_crystal_system       triclinic
_cell_length_a                    15.002778
_cell_length_b                    8.721645
_cell_length_c                    7.515715
_cell_angle_alpha                 103.076769
_cell_angle_beta                  94.262912
_cell_angle_gamma                 93.065442
_cell_volume                      952.765983274

loop_
_atom_site_label
_atom_site_type_symbol
_atom_type_description
_atom_site_fract_x
_atom_site_fract_y
_atom_site_fract_z
_atom_type_partial_charge
C1    C     C_R   0.496073 0.200253 0.453780 0.814411
C2    C     C_R   0.503927 0.799747 0.546220 0.814409
C3    C     C_R   0.033279 0.219296 0.346901 0.227320
C4    C     C_R   0.966721 0.780705 0.653092 0.227319
C5    C     C_2   0.489879 0.032637 0.429068 0.333321
C6    C     C_2   0.510121 0.967363 0.570932 0.333321
C7    C     C_R   0.329492 0.502031 0.502647 0.880717
C8    C     C_R   0.670508 0.497969 0.497353 0.880718
C9    C     C_R   0.818614 0.635467 0.574678 0.557945
C10   C     C_R   0.181385 0.364533 0.425319 0.557949
C11   C     C_R   0.766637 0.496948 0.491837 -0.214796
C12   C     C_R   0.233362 0.503052 0.508162 -0.214798
C13   C     C_R   0.805522 0.359422 0.408361 0.044762
C14   C     C_R   0.194478 0.640579 0.591638 0.044760
C15   C     C_R   0.899342 0.359705 0.414448 0.043490
C16   C     C_R   0.100658 0.640296 0.585547 0.043489
C17   C     C_R   0.952862 0.500149 0.497681 -0.030638
C18   C     C_R   0.047138 0.499852 0.502312 -0.030639
C19   C     C_R   0.912211 0.640653 0.575837 -0.063092
C20   C     C_R   0.087788 0.359348 0.424157 -0.063092
C21   C     C_R   0.940718 0.221830 0.341498 -0.163092
C22   C     C_R   0.059281 0.778171 0.658495 -0.163092
Cu1   Cu    Cu3+1 0.510010 0.517380 0.684380 1.145043
Cu2   Cu    Cu3+1 0.489990 0.482620 0.315620 1.145043
H1    H     H_    0.901892 0.112315 0.280878 0.202502
H2    H     H_    0.098107 0.887687 0.719114 0.202501
N1    N     N_2   0.474890 0.456420 0.038520 0.011697
N2    N     N_2   0.525110 0.543580 0.961480 0.011697
O1    O     O_R   0.506510 0.286130 0.619770 -0.567203
O2    O     O_R   0.493490 0.713870 0.380230 -0.567203
O3    O     O_R   0.489600 0.256770 0.308360 -0.518720
O4    O     O_R   0.510400 0.743230 0.691640 -0.518719
O5    O     O_R   0.378710 0.514640 0.655720 -0.589801
O6    O     O_R   0.621290 0.485360 0.344280 -0.589802
O7    O     O_R   0.361800 0.485290 0.344300 -0.552883
O8    O     O_R   0.638200 0.514710 0.655700 -0.552881
F1    F     F_    0.775723 0.763174 0.653706 -0.622342
F2    F     F_    0.224276 0.236825 0.346297 -0.622345
I1    I     I_    0.720490 0.152332 0.279850 -0.171728
I2    I     I_    0.279512 0.847667 0.720168 -0.171719
I3    I     I_    0.079604 0.991986 0.239876 -0.196121
I4    I     I_    0.920396 0.008015 0.760116 -0.196122
F3    F     F_    0.460540 0.945011 0.258466 -0.602244
F4    F     F_    0.539459 0.054989 0.741534 -0.602244
I5    I     I_    0.371155 0.295255 0.903196 0.031451
I6    I     I_    0.628844 0.704746 0.096804 0.031453

loop_
_geom_bond_atom_site_label_1
_geom_bond_atom_site_label_2
_ccdc_geom_bond_type
C1    O3    A    
Cu1   Cu2   S    
C4    C22   A    
Cu2   N1    S    
C2    O2    A    
C10   F2    S    
Cu1   O4    S    
N1    I5    S    
C1    O1    A    
C17   C18   A    
C5    F3    S    
Cu2   O3    S    
C3    C20   A    
C16   C18   A    
C6    F4    S    
Cu1   N2    S    
C7    O5    A    
N2    I6    S    
C2    C6    S    
C10   C12   A    
C8    C11   S    
C1    C5    S    
Cu1   O1    S    
C9    F1    S    
C17   C19   A    
C12   C14   A    
C18   C20   A    
C9    C11   A    
C13   C15   A    
C8    O8    A    
C5    C6    D    
C4    I4    S    
C14   C16   A    
C7    C12   S    
C3    C21   A    
C11   C13   A    
C13   I1    S    
Cu2   O2    S    
C14   I2    S    
Cu2   O7    S    
C15   C21   A    
C2    O4    A    
Cu1   O8    S    
C22   H2    S    
N1    N2    D    
C15   C17   A    
C21   H1    S    
C3    I3    S    
C16   C22   A    
C8    O6    A    
C4    C19   A    
C7    O7    A    
C9    C19   A    
Cu2   O6    S    
C10   C20   A    
Cu1   O5    S    
