data_mof_unit_57333.cif
_audit_creation_date              2012-12-10T17:46:25-0500
_audit_creation_method            fapswitch 2.2
_symmetry_space_group_name_H-M    P1
_symmetry_Int_Tables_number       1
_space_group_crystal_system       triclinic
_cell_length_a                    20.720911
_cell_length_b                    21.079294
_cell_length_c                    14.739279
_cell_angle_alpha                 90.001071
_cell_angle_beta                  127.893738
_cell_angle_gamma                 89.997314
_cell_volume                      5080.4405793

loop_
_atom_site_label
_atom_site_type_symbol
_atom_type_description
_atom_site_fract_x
_atom_site_fract_y
_atom_site_fract_z
_atom_type_partial_charge
C1    C     C_R   0.601978 0.912771 0.630358 0.818196
C2    C     C_R   0.713314 0.193798 0.123302 -0.182348
C3    C     C_R   0.696304 0.755297 0.934328 0.080079
C4    C     C_R   0.250398 0.704877 0.996445 0.084333
C5    C     C_R   0.799876 0.258438 0.060920 0.081022
C6    C     C_R   0.749770 0.705022 0.003761 0.085006
C7    C     C_R   0.248027 0.292806 0.993002 0.085557
C8    C     C_R   0.357139 0.779202 0.044561 -0.207065
C9    C     C_R   0.707271 0.174347 0.028414 -0.213948
C10   C     C_R   0.642990 0.779316 0.955565 -0.206119
C11   C     C_R   0.351877 0.216245 0.037870 -0.214153
C12   C     C_R   0.851659 0.283777 0.037808 -0.214294
C13   C     C_R   0.647400 0.758676 0.048586 -0.172720
C14   C     C_R   0.209312 0.672368 0.031463 -0.215217
C15   C     C_R   0.208524 0.326347 0.029523 -0.213300
C16   C     C_R   0.790865 0.672519 0.968770 -0.215271
C17   C     C_R   0.346716 0.236195 0.943970 -0.177992
C18   C     C_R   0.846622 0.263755 0.944040 -0.178225
C19   C     C_R   0.215122 0.692182 0.126059 -0.180265
C20   C     C_R   0.214594 0.306919 0.124441 -0.181472
C21   C     C_R   0.784997 0.692281 0.874113 -0.182084
C22   C     C_R   0.321897 0.997122 0.665949 -0.278019
C23   C     C_R   0.678072 0.004892 0.334080 -0.270910
C24   C     C_R   0.821951 0.504192 0.666008 -0.267814
C25   C     C_R   0.397761 0.086995 0.369369 0.821389
C26   C     C_R   0.178215 0.497533 0.334179 -0.261567
C27   C     C_R   0.351622 0.998163 0.603098 0.098123
C28   C     C_R   0.648350 0.002751 0.396912 0.102986
C29   C     C_R   0.851635 0.502360 0.603124 0.104555
C30   C     C_R   0.148415 0.498415 0.396964 0.109388
C31   C     C_R   0.488232 0.001239 0.775272 0.015998
C32   C     C_R   0.511813 0.999050 0.224737 0.011528
C33   C     C_R   0.988261 0.499213 0.775283 0.017892
C34   C     C_R   0.011825 0.501043 0.224734 0.014224
C35   C     C_R   0.461860 0.000571 0.844800 -0.019084
C36   C     C_R   0.398033 0.912760 0.369649 0.818882
C37   C     C_R   0.538180 0.000918 0.155224 -0.019255
C38   C     C_R   0.961937 0.500820 0.844853 -0.016689
C39   C     C_R   0.038271 0.500483 0.155277 -0.017295
C40   C     C_R   0.376490 0.998133 0.786487 0.161426
C41   C     C_R   0.623513 0.004060 0.213538 0.163264
C42   C     C_R   0.876567 0.503477 0.786553 0.161335
C43   C     C_R   0.123669 0.498425 0.213634 0.162054
C44   C     C_R   0.516263 0.001960 0.968677 0.082779
C45   C     C_R   0.483777 0.000013 0.031347 0.077653
C46   C     C_R   0.016390 0.500067 0.968753 0.087753
C47   C     C_R   0.603781 0.085745 0.632529 0.823567
C48   C     C_R   0.983880 0.501669 0.031408 0.084092
C49   C     C_R   0.398096 0.997281 0.968008 -0.234234
C50   C     C_R   0.601902 0.005467 0.031999 -0.239746
C51   C     C_R   0.898203 0.504609 0.968083 -0.241826
C52   C     C_R   0.102113 0.497826 0.032124 -0.249617
C53   C     C_R   0.345907 0.996565 0.848451 -0.172284
C54   C     C_R   0.654068 0.006526 0.151561 -0.183933
C55   C     C_R   0.846012 0.505541 0.848537 -0.181881
C56   C     C_R   0.154299 0.497166 0.151697 -0.190918
C57   C     C_R   0.666895 0.132116 0.711382 -0.099015
C58   C     C_R   0.103828 0.414290 0.632587 0.821345
C59   C     C_R   0.346418 0.857621 0.304363 -0.098389
C60   C     C_R   0.345303 0.141526 0.303206 -0.100293
C61   C     C_R   0.653634 0.857661 0.695674 -0.098248
C62   C     C_R   0.168723 0.630672 0.713765 -0.099431
C63   C     C_R   0.845095 0.358629 0.303009 -0.098807
C64   C     C_R   0.831326 0.630718 0.286315 -0.099622
C65   C     C_R   0.167048 0.367992 0.711542 -0.097932
C66   C     C_R   0.779478 0.201367 0.767868 0.155951
C67   C     C_R   0.262230 0.768968 0.279800 0.156824
C68   C     C_R   0.261564 0.230499 0.278539 0.156976
C69   C     C_R   0.895792 0.585452 0.366915 0.823643
C70   C     C_R   0.737773 0.768989 0.720223 0.156473
C71   C     C_R   0.284718 0.696920 0.774286 0.156669
C72   C     C_R   0.760798 0.269969 0.277878 0.156603
C73   C     C_R   0.715344 0.696986 0.225784 0.157250
C74   C     C_R   0.279463 0.298595 0.767743 0.156304
C75   C     C_R   0.719385 0.157737 0.691307 -0.191922
C76   C     C_R   0.305925 0.824041 0.337914 -0.191518
C77   C     C_R   0.305564 0.175658 0.337360 -0.189755
C78   C     C_R   0.694053 0.824052 0.662063 -0.190537
C79   C     C_R   0.222966 0.654803 0.695763 -0.189385
C80   C     C_R   0.897722 0.413039 0.369328 0.819647
C81   C     C_R   0.805119 0.324634 0.336973 -0.188940
C82   C     C_R   0.777076 0.654839 0.304297 -0.190116
C83   C     C_R   0.219354 0.342247 0.691219 -0.190986
C84   C     C_R   0.675598 0.149436 0.809552 -0.243759
C85   C     C_R   0.343200 0.835771 0.212434 -0.237367
C86   C     C_R   0.340423 0.162171 0.209450 -0.238084
C87   C     C_R   0.656938 0.835855 0.787692 -0.237318
C88   C     C_R   0.177533 0.647866 0.812154 -0.245735
C89   C     C_R   0.840182 0.338000 0.209234 -0.237611
C90   C     C_R   0.822551 0.647948 0.187974 -0.245828
C91   C     C_R   0.104222 0.585443 0.633108 0.822546
C92   C     C_R   0.176054 0.350858 0.810034 -0.243380
C93   C     C_R   0.737443 0.191051 0.890949 0.064121
C94   C     C_R   0.303444 0.778972 0.155778 0.067366
C95   C     C_R   0.300782 0.218860 0.152375 0.067195
C96   C     C_R   0.696701 0.779075 0.844382 0.067223
C97   C     C_R   0.240747 0.688175 0.895201 0.063371
C98   C     C_R   0.800259 0.281432 0.151939 0.067087
C99   C     C_R   0.759386 0.688303 0.104965 0.063476
C100  C     C_R   0.237931 0.309216 0.891363 0.064353
C101  C     C_R   0.788445 0.218882 0.867665 0.099305
C102  C     C_R   0.352716 0.758559 0.951525 -0.173339
C103  C     C_R   0.259908 0.746355 0.187457 0.101371
C104  C     C_R   0.258559 0.252415 0.185283 0.101936
C105  C     C_R   0.740185 0.746430 0.812665 0.101977
C106  C     C_R   0.293353 0.714673 0.873745 0.099896
C107  C     C_R   0.757714 0.248072 0.184549 0.101955
C108  C     C_R   0.706759 0.714786 0.126381 0.099900
C109  C     C_R   0.288635 0.281177 0.867737 0.099033
C110  C     C_R   0.747283 0.207594 0.992363 0.085610
C111  C     C_R   0.303857 0.755168 0.065853 0.080323
C112  C     C_R   0.300371 0.241799 0.061301 0.080952
Cu1   Cu    Cu3+1 0.526640 1.000000 0.436960 0.953524
Cu2   Cu    Cu3+1 0.473360 0.000000 0.563040 0.953017
Cu3   Cu    Cu3+1 0.026640 0.500000 0.436960 0.956376
Cu4   Cu    Cu3+1 0.973360 0.500000 0.563040 0.955924
H1    H     H_    0.395342 0.778715 0.940250 0.182148
H2    H     H_    0.630857 0.007695 0.991459 0.129468
H3    H     H_    0.869210 0.506454 0.008583 0.130495
H4    H     H_    0.131153 0.496623 0.991648 0.128426
H5    H     H_    0.370919 0.864798 0.184644 0.153709
H6    H     H_    0.631533 0.131207 0.819111 0.162343
H7    H     H_    0.629270 0.864904 0.815517 0.155014
H8    H     H_    0.367084 0.132355 0.181035 0.154585
H9    H     H_    0.867021 0.367734 0.180953 0.154769
H10   H     H_    0.132528 0.630681 0.820645 0.162379
H11   H     H_    0.132199 0.369230 0.819925 0.162058
H12   H     H_    0.681533 0.166129 0.146569 0.183179
H13   H     H_    0.867556 0.630754 0.179505 0.161630
H14   H     H_    0.308731 0.840210 0.410018 0.186847
H15   H     H_    0.713213 0.144478 0.615333 0.189879
H16   H     H_    0.691159 0.840182 0.589871 0.187668
H17   H     H_    0.309289 0.160159 0.410517 0.189075
H18   H     H_    0.808873 0.340122 0.410163 0.189146
H19   H     H_    0.217065 0.641408 0.620052 0.190466
H20   H     H_    0.213000 0.355405 0.615056 0.190121
H21   H     H_    0.782946 0.641405 0.379969 0.189616
H22   H     H_    0.405211 0.812653 0.100965 0.158579
H23   H     H_    0.604748 0.778815 0.059815 0.182067
H24   H     H_    0.672891 0.131445 0.987339 0.140646
H25   H     H_    0.594892 0.812742 0.899111 0.158867
H26   H     H_    0.399163 0.182036 0.093059 0.155978
H27   H     H_    0.899058 0.317874 0.093155 0.155704
H28   H     H_    0.174298 0.629758 0.989731 0.143312
H29   H     H_    0.174561 0.369459 0.988777 0.141438
H30   H     H_    0.825928 0.629948 0.010566 0.141495
H31   H     H_    0.280518 0.994583 0.803819 0.149510
H32   H     H_    0.719408 0.009319 0.196176 0.150786
H33   H     H_    0.780644 0.507902 0.803936 0.153027
H34   H     H_    0.387896 0.214801 0.931000 0.184782
H35   H     H_    0.219705 0.495512 0.196345 0.153906
H36   H     H_    0.448115 0.997202 0.187719 0.118788
H37   H     H_    0.551968 0.002360 0.812310 0.117333
H38   H     H_    0.948078 0.501989 0.187666 0.117372
H39   H     H_    0.051980 0.497639 0.812283 0.115739
H40   H     H_    0.690578 0.003738 0.489850 0.129123
H41   H     H_    0.309372 0.997219 0.510159 0.128943
H42   H     H_    0.190650 0.497595 0.489914 0.129450
H43   H     H_    0.809367 0.503211 0.510177 0.129428
H44   H     H_    0.256413 0.995378 0.620440 0.147614
H45   H     H_    0.888015 0.284984 0.931317 0.184829
H46   H     H_    0.743520 0.007368 0.379607 0.150661
H47   H     H_    0.756482 0.506304 0.620518 0.152166
H48   H     H_    0.243719 0.496039 0.379746 0.153974
H49   H     H_    0.182559 0.665068 0.148648 0.184302
H50   H     H_    0.183191 0.334796 0.148070 0.183280
H51   H     H_    0.817539 0.665150 0.851522 0.184042
H52   H     H_    0.369077 0.995736 0.008493 0.133107
I1    I     I_    0.361043 0.731615 0.734133 -0.372033
I2    I     I_    0.701955 0.223310 0.337397 -0.376638
I3    I     I_    0.638923 0.731596 0.265805 -0.372441
I4    I     I_    0.352199 0.261001 0.723466 -0.357501
I5    I     I_    0.852512 0.238771 0.723945 -0.361028
I6    I     I_    0.203093 0.722843 0.339289 -0.370945
I7    I     I_    0.203047 0.277380 0.338324 -0.377864
I8    I     I_    0.796730 0.722741 0.660582 -0.372250
N1    N     N_R   0.433280 1.000000 0.657760 -0.178179
N2    N     N_R   0.566720 0.000000 0.342240 -0.178724
N3    N     N_R   0.933280 0.500000 0.657760 -0.178928
N4    N     N_R   0.066720 0.500000 0.342240 -0.179385
O1    O     O_R   0.600040 0.935040 0.546740 -0.584489
O2    O     O_R   0.444990 0.064930 0.346780 -0.584450
O3    O     O_R   0.444990 0.935070 0.346780 -0.586966
O4    O     O_R   0.555010 0.064930 0.653220 -0.586600
O5    O     O_R   0.055010 0.435070 0.653220 -0.587567
O6    O     O_R   0.944990 0.564930 0.346780 -0.585798
O7    O     O_R   0.944990 0.435070 0.346780 -0.585902
O8    O     O_R   0.055010 0.564930 0.653220 -0.585400
O9    O     O_R   0.399960 0.064960 0.453260 -0.582895
O10   O     O_R   0.399960 0.935040 0.453260 -0.585199
O11   O     O_R   0.600040 0.064960 0.546740 -0.583588
O12   O     O_R   0.100040 0.435040 0.546740 -0.584727
O13   O     O_R   0.899960 0.564960 0.453260 -0.582784
O14   O     O_R   0.899960 0.435040 0.453260 -0.584136
O15   O     O_R   0.100040 0.564960 0.546740 -0.582206
O16   O     O_R   0.555010 0.935070 0.653220 -0.586379

loop_
_geom_bond_atom_site_label_1
_geom_bond_atom_site_label_2
_ccdc_geom_bond_type
C65   C92   A    
C91   O8    A    
C16   C21   A    
Cu2   O10   S    
C70   C78   A    
C24   C42   A    
C94   C111  A    
C34   N4    A    
C17   H34   S    
C64   C90   A    
C74   C83   A    
C96   C105  A    
C36   C59   S    
C74   C109  A    
C71   C79   A    
C67   C103  A    
C81   H18   S    
C29   H43   S    
C89   H9    S    
C95   C104  A    
C99   C108  A    
Cu4   O8    S    
C50   C54   A    
Cu2   O16   S    
C31   N1    A    
C68   C77   A    
C36   O10   A    
C13   H23   S    
C16   H30   S    
C38   C42   A    
C82   H21   S    
C95   C112  A    
C18   H45   S    
Cu2   O4    S    
C65   C83   A    
C33   N3    A    
C5    C110  A    
C67   I6    S    
C84   H6    S    
Cu3   Cu4   S    
C46   C52   A    
C2    C107  A    
C53   H31   S    
C91   O15   A    
C7    C112  A    
C8    H22   S    
C78   H16   S    
C24   C29   A    
C88   H10   S    
C61   C87   A    
C90   H13   S    
C19   C103  A    
C48   C51   A    
Cu1   O1    S    
C28   N2    A    
C51   H3    S    
C71   I1    S    
C66   I5    S    
C85   H5    S    
C3    C96   A    
C25   C60   S    
C73   I3    S    
C74   I4    S    
C72   C81   A    
C93   C110  A    
C23   H46   S    
Cu4   O14   S    
C3    C6    A    
C7    C15   A    
Cu1   N2    S    
C100  C109  A    
Cu2   O9    S    
C4    C97   A    
C87   C96   A    
C58   O5    A    
C37   C41   A    
C66   C101  A    
C32   N2    A    
C86   H8    S    
C77   H17   S    
C13   C108  A    
C33   H39   S    
C31   H37   S    
C68   I7    S    
C75   H15   S    
C26   C43   A    
C55   H33   S    
C14   H28   S    
C63   C80   S    
C34   H38   S    
C15   C20   A    
Cu1   O11   S    
C46   C48   A    
C60   C77   A    
Cu4   O13   S    
C7    C100  A    
C34   C39   A    
C68   C104  A    
C62   C79   A    
C1    O16   A    
C49   H52   S    
C8    C111  A    
C93   C101  A    
C15   H29   S    
Cu3   O6    S    
C60   C86   A    
C73   C108  A    
C39   C43   A    
C23   C28   A    
C62   C88   A    
C10   C13   A    
C98   C107  A    
C1    C61   S    
C10   H25   S    
C8    C102  A    
C59   C85   A    
C42   C55   A    
C47   C57   S    
Cu3   O7    S    
C85   C94   A    
C58   C65   S    
Cu1   O2    S    
C32   H36   S    
C72   C107  A    
C45   C49   A    
C61   C78   A    
Cu2   N1    S    
C22   C40   A    
C62   C91   S    
C63   C89   A    
C69   O13   A    
C57   C84   A    
C36   O3    A    
C32   C37   A    
C56   H35   S    
C35   C44   A    
C64   C82   A    
C83   H20   S    
C102  H1    S    
C5    C12   A    
Cu3   O12   S    
C52   H4    S    
C4    C111  A    
C63   C81   A    
C94   C103  A    
C26   C30   A    
C22   C27   A    
C58   O12   A    
C31   C35   A    
Cu4   N3    S    
C24   H47   S    
C97   C106  A    
C37   C45   A    
C92   H11   S    
C90   C99   A    
C80   O14   A    
C25   O2    A    
C92   C100  A    
C54   H32   S    
Cu1   Cu2   S    
C44   C50   A    
C9    C110  A    
C30   H42   S    
Cu3   O15   S    
C11   C17   A    
C1    O1    A    
C11   C112  A    
C50   H2    S    
C14   C19   A    
C64   C69   S    
C44   C45   A    
Cu3   N4    S    
C47   O4    A    
C70   C105  A    
C17   C109  A    
C27   N1    A    
C47   O11   A    
C20   C104  A    
C27   H41   S    
C79   H19   S    
Cu4   O5    S    
C33   C38   A    
C21   H51   S    
C12   H27   S    
C89   C98   A    
C20   H50   S    
C6    C99   A    
C57   C75   A    
C35   C40   A    
C23   C41   A    
C88   C97   A    
C3    C10   A    
C25   O9    A    
C87   H7    S    
Cu1   O3    S    
C22   H44   S    
C49   C53   A    
C66   C75   A    
C59   C76   A    
C26   H48   S    
C9    H24   S    
C80   O7    A    
C73   C82   A    
C102  C106  A    
C51   C55   A    
C84   C93   A    
C4    C14   A    
C11   H26   S    
C41   C54   A    
C38   C46   A    
C86   C95   A    
C6    C16   A    
C43   C56   A    
C5    C98   A    
C40   C53   A    
C29   N3    A    
C71   C106  A    
C12   C18   A    
C28   H40   S    
C30   N4    A    
C67   C76   A    
C19   H49   S    
C2    C9    A    
C70   I8    S    
C69   O6    A    
C18   C101  A    
C21   C105  A    
C76   H14   S    
C52   C56   A    
C72   I2    S    
C39   C48   A    
C2    H12   S    
