data_mof_unit_42391.cif
_audit_creation_date              2012-10-26T21:13:34-0400
_audit_creation_method            fapswitch 2.2
_symmetry_space_group_name_H-M    P1
_symmetry_Int_Tables_number       1
_space_group_crystal_system       triclinic
_cell_length_a                    9.041614
_cell_length_b                    10.843756
_cell_length_c                    9.608258
_cell_angle_alpha                 90.404066
_cell_angle_beta                  88.989928
_cell_angle_gamma                 90.888699
_cell_volume                      941.760861717

loop_
_atom_site_label
_atom_site_type_symbol
_atom_type_description
_atom_site_fract_x
_atom_site_fract_y
_atom_site_fract_z
_atom_type_partial_charge
C1    C     C_R   0.497395 0.262563 0.499820 0.546619
C2    C     C_R   0.627341 0.520424 0.924623 0.130190
C3    C     C_3   0.729789 0.628466 0.917288 -0.230660
C4    C     C_R   0.220917 0.500039 0.500715 0.549748
C5    C     C_3   0.737799 0.622889 0.075514 -0.005165
C6    C     C_R   0.488457 0.737410 0.500334 0.544519
C7    C     C_R   0.779074 0.500262 0.499315 0.554831
C8    C     C_1   0.065647 0.500237 0.501066 -0.080797
C9    C     C_1   0.934359 0.500308 0.499106 -0.084048
C10   C     C_R   0.482030 0.064233 0.624051 0.024691
C11   C     C_R   0.478288 0.129762 0.500210 -0.025124
C12   C     C_R   0.426059 0.936504 0.377791 -0.033970
C13   C     C_R   0.436947 0.066030 0.379041 -0.147700
C14   C     C_3   0.989327 0.683843 0.140956 -0.326204
C15   C     C_3   0.378959 0.873906 0.244983 -0.381002
C16   C     C_3   0.345302 0.806195 0.868698 -0.284168
C17   C     C_3   0.526569 0.143628 0.870657 -0.339214
C18   C     C_3   0.745440 0.099010 0.705700 -0.410820
C19   C     C_3   0.247188 0.394615 0.867008 -0.350149
C20   C     C_R   0.460151 0.870522 0.500914 -0.014604
C21   C     C_R   0.464979 0.938134 0.625813 0.014440
C22   C     C_3   0.555001 0.926210 0.754672 0.048328
C23   C     C_3   0.584092 0.066617 0.745995 0.031424
C24   C     C_R   0.629004 0.516999 0.070861 0.164850
C25   C     C_R   0.379700 0.461826 0.078001 -0.008162
C26   C     C_R   0.380102 0.456576 0.930158 0.066830
Cu1   Cu    Cu3+1 0.499990 0.499980 0.640670 0.896492
Cu2   Cu    Cu3+1 0.500010 0.500020 0.359330 0.914689
H1    H     H_    0.418079 0.116490 0.284156 0.135945
H2    H     H_    0.994586 0.746810 0.050203 0.142967
H3    H     H_    0.288654 0.805967 0.267312 0.141910
H4    H     H_    0.336160 0.941173 0.169506 0.117827
H5    H     H_    0.474349 0.827414 0.194812 0.146529
H6    H     H_    0.530516 0.883315 0.965746 0.231921
H7    H     H_    0.281128 0.805606 0.968080 0.113059
H8    H     H_    0.386979 0.712530 0.850532 0.195699
H9    H     H_    0.268501 0.831761 0.785246 0.157160
H10   H     H_    0.553361 0.242660 0.855865 0.162478
H11   H     H_    0.404817 0.132643 0.884763 0.144946
H12   H     H_    0.674380 0.711576 0.880694 0.109068
H13   H     H_    0.581118 0.114445 0.967447 0.122476
H14   H     H_    0.782348 0.045442 0.612656 0.116068
H15   H     H_    0.757254 0.198752 0.681765 0.157693
H16   H     H_    0.818918 0.077513 0.793419 0.120218
H17   H     H_    0.166332 0.464746 0.835813 0.153447
H18   H     H_    0.280028 0.332608 0.780307 0.180257
H19   H     H_    0.188611 0.334017 0.943538 0.069669
H20   H     H_    0.695395 0.705085 0.132558 0.137998
H21   H     H_    0.654414 0.868687 0.738386 0.115212
H22   H     H_    0.282531 0.432055 0.136495 0.134447
H23   H     H_    0.834983 0.606495 0.861362 0.155134
H24   H     H_    0.887378 0.515196 0.189304 0.283764
H25   H     H_    0.100871 0.644877 0.155189 0.148823
H26   H     H_    0.957495 0.736453 0.236217 0.144325
N1    N     N_R   0.500920 0.500930 0.147930 -0.259907
N2    N     N_R   0.500930 0.500890 0.852020 -0.246568
N3    N     N_2   0.883845 0.584763 0.117235 -0.525145
N4    N     N_2   0.467368 0.893729 0.878586 -0.531688
O1    O     O_R   0.500000 0.319640 0.618810 -0.512679
O2    O     O_R   0.500020 0.319680 0.381230 -0.501505
O3    O     O_R   0.288380 0.499980 0.618770 -0.514141
O4    O     O_R   0.288400 0.500020 0.381190 -0.510508
O5    O     O_R   0.499980 0.680320 0.618770 -0.506183
O6    O     O_R   0.500000 0.680360 0.381190 -0.503211
O7    O     O_R   0.711600 0.499980 0.618810 -0.497594
O8    O     O_R   0.711620 0.500020 0.381230 -0.495771

loop_
_geom_bond_atom_site_label_1
_geom_bond_atom_site_label_2
_ccdc_geom_bond_type
C6    O5    A    
C22   N4    S    
Cu2   O8    S    
C19   H17   S    
C4    O3    A    
C15   H3    S    
Cu1   O7    S    
C18   H16   S    
C10   C23   S    
C7    O7    A    
C6    C20   S    
C1    C11   S    
C12   C15   S    
C5    N3    S    
C16   H9    S    
C4    C8    S    
C10   C11   A    
C12   C20   A    
C1    O1    A    
C2    C3    S    
C16   N4    S    
C19   H18   S    
C15   H4    S    
C10   C21   A    
C25   C26   A    
Cu1   O1    S    
C18   H15   S    
C16   H8    S    
C24   N1    A    
C11   C13   A    
C17   C23   S    
C5    C24   S    
Cu1   O5    S    
C14   H2    S    
C22   H21   S    
Cu2   O6    S    
C13   H1    S    
C14   H26   S    
Cu2   N1    S    
C3    H12   S    
C19   H19   S    
C17   H10   S    
Cu2   O2    S    
C16   H7    S    
C2    C24   A    
C5    H20   S    
C17   H13   S    
H24   N3    S    
C18   C23   S    
C4    O4    A    
C14   H25   S    
C12   C13   A    
C19   C26   S    
C7    C9    S    
C17   H11   S    
C1    O2    A    
C6    O6    A    
Cu1   Cu2   S    
H6    N4    S    
C14   N3    S    
C3    H23   S    
Cu1   N2    S    
C2    N2    A    
Cu1   O3    S    
C18   H14   S    
C3    C5    S    
C20   C21   A    
C21   C22   S    
C25   H22   S    
C15   H5    S    
C22   C23   S    
C25   N1    A    
Cu2   O4    S    
C8    C9    T    
C7    O8    A    
C26   N2    A    
