data_mof_unit_52094.cif
_audit_creation_date              2012-12-10T16:57:11-0500
_audit_creation_method            fapswitch 2.2
_symmetry_space_group_name_H-M    P1
_symmetry_Int_Tables_number       1
_space_group_crystal_system       triclinic
_cell_length_a                    15.889267
_cell_length_b                    10.904572
_cell_length_c                    9.816448
_cell_angle_alpha                 89.966875
_cell_angle_beta                  89.141621
_cell_angle_gamma                 90.684051
_cell_volume                      1700.54074007

loop_
_atom_site_label
_atom_site_type_symbol
_atom_type_description
_atom_site_fract_x
_atom_site_fract_y
_atom_site_fract_z
_atom_type_partial_charge
C1    C     C_R   0.495158 0.265945 0.499990 0.741631
C2    C     C_3   0.946452 0.457945 0.652610 0.494597
C3    C     C_3   0.916332 0.499406 0.504982 -0.316891
C4    C     C_3   0.952086 0.631708 0.470396 0.208481
C5    C     C_3   0.047993 0.637267 0.502057 0.210357
C6    C     C_1   0.824049 0.499534 0.499665 0.247215
C7    C     C_1   0.175966 0.502776 0.503097 0.156607
C8    C     C_1   0.251404 0.501308 0.502954 -0.072456
C9    C     C_2   0.501263 0.933997 0.391142 -0.078175
C10   C     C_2   0.512415 0.866065 0.502192 -0.214224
C11   C     C_2   0.510124 0.066987 0.398738 -0.276599
C12   C     C_R   0.340701 0.500093 0.500972 0.830032
C13   C     C_2   0.476372 0.135562 0.499417 0.253554
C14   C     C_2   0.432595 0.506060 0.924247 0.006129
C15   C     C_2   0.433995 0.481346 0.075952 0.015440
C16   C     C_R   0.503006 0.734204 0.500076 0.845229
C17   C     C_R   0.659319 0.500058 0.499076 0.801022
C18   C     C_3   0.045763 0.439559 0.637862 -0.001716
C19   C     C_3   0.050902 0.433957 0.368105 0.717446
C20   C     C_3   0.954163 0.408739 0.392905 0.054107
C21   C     C_1   0.748660 0.499878 0.497674 -0.047759
C22   C     C_3   0.083786 0.502513 0.501834 -0.331650
Cu1   Cu    Cu3+1 0.500020 0.500020 0.638630 1.060958
Cu2   Cu    Cu3+1 0.499980 0.499980 0.361370 1.083525
H1    H     H_    0.945875 0.644576 0.358689 0.205851
H2    H     H_    0.490694 0.892147 0.292378 0.209345
H3    H     H_    0.529231 0.908637 0.598032 0.201592
H4    H     H_    0.548911 0.109837 0.319486 0.174765
H5    H     H_    0.372973 0.529225 0.879210 0.160185
H6    H     H_    0.546573 0.446842 0.885656 0.265141
H7    H     H_    0.375533 0.449849 0.123175 0.107782
H8    H     H_    0.052580 0.340524 0.626915 0.145326
H9    H     H_    0.948510 0.315347 0.429897 0.167529
H10   H     H_    0.056153 0.672284 0.605724 0.243381
N1    N     N_2   0.499090 0.498660 0.846910 -0.229107
N2    N     N_2   0.499070 0.498630 0.153040 -0.006670
O1    O     O_R   0.500010 0.321960 0.617040 -0.572071
O2    O     O_R   0.499990 0.321920 0.382900 -0.596557
O3    O     O_R   0.379450 0.500030 0.617120 -0.580163
O4    O     O_R   0.379420 0.499980 0.382980 -0.603913
O5    O     O_R   0.500010 0.678080 0.617100 -0.544491
O6    O     O_R   0.499990 0.678040 0.382960 -0.525805
O7    O     O_R   0.620580 0.500020 0.617020 -0.536090
O8    O     O_R   0.620550 0.499970 0.382880 -0.516452
S1    S     S_3+6 0.895048 0.313050 0.709273 0.058112
O9    O     O_2   0.894819 0.212025 0.605565 -0.335257
O10   O     O_2   0.938697 0.265658 0.832981 -0.161861
O11   O     O_3   0.794282 0.341084 0.753187 -0.474055
H11   H     H_    0.774134 0.266012 0.800921 0.390570
S2    S     S_3+6 0.108702 0.464838 0.789206 0.051097
O12   O     O_2   0.063066 0.417766 0.913388 -0.151912
O13   O     O_2   0.188601 0.393028 0.775336 -0.315010
O14   O     O_3   0.134039 0.613524 0.812528 -0.487821
H12   H     H_    0.188769 0.626143 0.764688 0.358454
S3    S     S_3+6 0.913362 0.568893 0.785264 0.174037
O15   O     O_2   0.825435 0.611273 0.758715 -0.228143
O16   O     O_2   0.911200 0.506960 0.921451 -0.093887
O17   O     O_3   0.975092 0.694169 0.799249 -0.451138
H13   H     H_    0.951212 0.740540 0.877174 0.400456
S4    S     S_3+6 0.396760 0.082815 0.616003 0.037419
O18   O     O_2   0.347056 0.977950 0.556995 -0.223864
O19   O     O_2   0.436462 0.041683 0.746124 -0.283819
O20   O     O_3   0.330092 0.197906 0.650924 -0.506860
H14   H     H_    0.352247 0.238296 0.733562 0.376950
S5    S     S_3+6 0.581366 0.596030 0.094053 0.132993
O21   O     O_2   0.650178 0.520165 0.031223 -0.260472
O22   O     O_2   0.550722 0.687580 0.991919 -0.259086
O23   O     O_3   0.625386 0.678848 0.219005 -0.505222
H15   H     H_    0.674991 0.720045 0.176135 0.355641
O24   O     O_3   0.056983 0.517435 0.255594 -0.534386
C23   C     C_3   0.134414 0.513710 0.181843 0.135929
H16   H     H_    0.143697 0.424344 0.130226 0.200724
H17   H     H_    0.189060 0.535304 0.246003 0.102949
H18   H     H_    0.133239 0.584620 0.100965 0.217415
O25   O     O_3   0.092934 0.322932 0.327118 -0.589759
C24   C     C_3   0.109453 0.233305 0.426294 -0.257714
H19   H     H_    0.051367 0.194155 0.473320 0.193411
H20   H     H_    0.155701 0.265656 0.501861 0.197286
H21   H     H_    0.140248 0.155685 0.373399 0.227705
S6    S     S_3+6 0.895069 0.398710 0.236958 0.123566
O26   O     O_2   0.947555 0.337398 0.128933 -0.091079
O27   O     O_2   0.817293 0.321406 0.261767 -0.282672
O28   O     O_3   0.867064 0.538822 0.183187 -0.474850
H22   H     H_    0.806024 0.544914 0.203507 0.364599
S7    S     S_3+6 0.100691 0.757432 0.403220 0.033429
O29   O     O_2   0.194381 0.740659 0.396578 -0.307485
O30   O     O_2   0.067491 0.765474 0.260983 -0.240884
O31   O     O_3   0.080713 0.890958 0.482465 -0.479181
H23   H     H_    0.130060 0.944395 0.461674 0.384642
O32   O     O_3   0.909556 0.725085 0.544338 -0.502811
C25   C     C_3   0.864252 0.802439 0.457263 -0.089729
H24   H     H_    0.816604 0.749615 0.398797 0.104654
H25   H     H_    0.907637 0.853146 0.386743 0.207366
H26   H     H_    0.830352 0.870873 0.520300 0.203119

loop_
_geom_bond_atom_site_label_1
_geom_bond_atom_site_label_2
_ccdc_geom_bond_type
C10   H3    S    
S3    O15   D    
C2    C18   S    
Cu2   O6    S    
C19   C20   S    
C24   H21   S    
C3    C6    S    
C4    H1    S    
C7    C8    T    
C13   S4    S    
O14   H12   S    
Cu2   N2    S    
H6    N1    S    
S4    O20   S    
C24   H20   S    
C2    S3    S    
S7    O29   D    
S7    O31   S    
Cu1   O7    S    
S4    O19   D    
C5    C22   S    
O23   H15   S    
S5    O22   D    
Cu2   O2    S    
Cu1   Cu2   S    
O24   C23   S    
C9    C10   D    
C1    O1    A    
C5    S7    S    
S7    O30   D    
S6    O28   S    
C9    H2    S    
C4    O32   S    
S1    O10   D    
C2    S1    S    
S2    O14   S    
C20   S6    S    
C19   C22   S    
C24   H19   S    
S6    O27   D    
C25   H24   S    
C23   H17   S    
N2    S5    S    
C4    C5    S    
O17   H13   S    
Cu1   O1    S    
C6    C21   T    
C17   C21   S    
S4    O18   D    
C12   O4    A    
O25   C24   S    
C17   O7    A    
C25   H25   S    
S2    O13   D    
O28   H22   S    
C8    C12   S    
S5    O23   S    
C5    H10   S    
S2    O12   D    
C3    C20   S    
C9    C11   S    
C1    O2    A    
C20   H9    S    
O11   H11   S    
Cu1   N1    S    
S3    O16   D    
Cu2   O8    S    
C1    C13   S    
C14   H5    S    
C3    C4    S    
C16   O6    A    
C15   N2    D    
C14   N1    D    
C18   S2    S    
S1    O11   S    
C18   C22   S    
S6    O26   D    
C23   H18   S    
C15   H7    S    
C7    C22   S    
Cu1   O5    S    
C12   O3    A    
C19   O25   S    
C2    C3    S    
C17   O8    A    
C23   H16   S    
C10   C16   S    
C25   H26   S    
C11   C13   D    
O32   C25   S    
C11   H4    S    
Cu1   O3    S    
Cu2   O4    S    
O20   H14   S    
S1    O9    D    
C18   H8    S    
O31   H23   S    
S5    O21   D    
S3    O17   S    
C14   C15   S    
C19   O24   S    
C16   O5    A    
