data_mof_unit_7475.cif
_audit_creation_date              2012-12-10T17:00:01-0500
_audit_creation_method            fapswitch 2.2
_symmetry_space_group_name_H-M    P1
_symmetry_Int_Tables_number       1
_space_group_crystal_system       triclinic
_cell_length_a                    14.923225
_cell_length_b                    15.232522
_cell_length_c                    10.056673
_cell_angle_alpha                 87.179497
_cell_angle_beta                  87.850413
_cell_angle_gamma                 90.290676
_cell_volume                      2281.63542021

loop_
_atom_site_label
_atom_site_type_symbol
_atom_type_description
_atom_site_fract_x
_atom_site_fract_y
_atom_site_fract_z
_atom_type_partial_charge
C1    C     C_R   0.375449 0.886455 0.504624 0.867929
C2    C     C_R   0.378941 0.116509 0.499119 0.841003
C3    C     C_R   0.875449 0.386455 0.504624 0.867931
C4    C     C_R   0.878941 0.616509 0.499119 0.841005
C5    C     C_R   0.620729 0.116910 0.495814 0.898162
C6    C     C_R   0.623541 0.886506 0.500164 0.961862
C7    C     C_R   0.120729 0.616910 0.495814 0.898162
C8    C     C_R   0.123541 0.386506 0.500164 0.961862
C9    C     C_2   0.738876 0.804891 0.390722 -0.054613
C10   C     C_2   0.680168 0.253403 0.410034 -0.051318
C11   C     C_2   0.238875 0.304890 0.390722 -0.054614
C12   C     C_2   0.180168 0.753403 0.410034 -0.051317
C13   C     C_2   0.703677 0.836091 0.501830 -0.218976
C14   C     C_2   0.691114 0.179502 0.483364 -0.152066
C15   C     C_2   0.203677 0.336091 0.501830 -0.218976
C16   C     C_2   0.191114 0.679502 0.483364 -0.152066
C17   C     C_2   0.308981 0.240947 0.402728 -0.328752
C18   C     C_2   0.249874 0.819395 0.407689 -0.273581
C19   C     C_2   0.808982 0.740948 0.402729 -0.328751
C20   C     C_2   0.749874 0.319395 0.407688 -0.273586
C21   C     C_2   0.303431 0.173187 0.493593 0.295065
C22   C     C_2   0.291425 0.838805 0.518947 0.253959
C23   C     C_2   0.803431 0.673187 0.493593 0.295061
C24   C     C_2   0.791425 0.338806 0.518946 0.253956
C25   C     C_2   0.570791 0.988919 0.922137 -0.171700
C26   C     C_2   0.070791 0.488919 0.922137 -0.171700
C27   C     C_2   0.571904 0.009267 0.066613 0.398142
C28   C     C_2   0.071903 0.509267 0.066613 0.398143
H1    H     H_    0.715190 0.823598 0.292590 0.202607
H2    H     H_    0.621748 0.264213 0.350075 0.180461
H3    H     H_    0.215189 0.323597 0.292590 0.202606
H4    H     H_    0.121747 0.764214 0.350076 0.180461
H5    H     H_    0.732876 0.820894 0.597663 0.180421
H6    H     H_    0.751384 0.165940 0.537433 0.175020
H7    H     H_    0.232876 0.320895 0.597662 0.180422
H8    H     H_    0.251384 0.665940 0.537432 0.175020
H9    H     H_    0.368565 0.251629 0.338143 0.169300
H10   H     H_    0.273530 0.845086 0.309869 0.188087
H11   H     H_    0.868566 0.751631 0.338145 0.169300
H12   H     H_    0.773531 0.345085 0.309868 0.188088
H13   H     H_    0.633190 0.972720 0.870691 0.195379
H14   H     H_    0.133190 0.472720 0.870691 0.195379
H15   H     H_    0.444638 0.023120 0.899931 0.179815
H16   H     H_    0.944638 0.523120 0.899931 0.179814
H17   H     H_    0.445755 0.971854 0.109231 0.136743
H18   H     H_    0.945755 0.471854 0.109231 0.136742
N1    N     N_2   0.501330 0.000000 0.852150 -0.201540
N2    N     N_2   0.001330 0.500000 0.852150 -0.201540
N3    N     N_2   0.501360 0.000000 0.147810 -0.233140
N4    N     N_2   0.001360 0.500000 0.147810 -0.233140
O1    O     O_R   0.409520 0.909540 0.613040 -0.557551
O2    O     O_R   0.409520 0.090460 0.613040 -0.569122
O3    O     O_R   0.909520 0.409540 0.613040 -0.557552
O4    O     O_R   0.909520 0.590460 0.613040 -0.569122
O5    O     O_R   0.409560 0.909540 0.386900 -0.639102
O6    O     O_R   0.409560 0.090460 0.386900 -0.633780
O7    O     O_R   0.909560 0.409540 0.386900 -0.639102
O8    O     O_R   0.909560 0.590460 0.386900 -0.633780
O9    O     O_R   0.590440 0.090460 0.613100 -0.579815
O10   O     O_R   0.590440 0.909540 0.613100 -0.617888
O11   O     O_R   0.090440 0.590460 0.613100 -0.579815
O12   O     O_R   0.090440 0.409540 0.613100 -0.617888
O13   O     O_R   0.590480 0.090460 0.386960 -0.549279
O14   O     O_R   0.590480 0.909540 0.386960 -0.580942
O15   O     O_R   0.090480 0.590460 0.386960 -0.549280
O16   O     O_R   0.090480 0.409540 0.386960 -0.580943
Zn1   Zn    Zn3+2 0.499970 0.000000 0.650990 1.052669
Zn2   Zn    Zn3+2 0.999970 0.500000 0.650990 1.052669
Zn3   Zn    Zn3+2 0.500030 0.000000 0.349010 1.038240
Zn4   Zn    Zn3+2 0.000030 0.500000 0.349010 1.038239
S1    S     S_3+6 0.202962 0.135065 0.579549 0.049982
O17   O     O_2   0.199379 0.168172 0.717960 -0.278030
O18   O     O_2   0.121178 0.164863 0.507409 -0.292521
O19   O     O_3   0.203301 0.024797 0.589618 -0.518004
H19   H     H_    0.143331 0.007641 0.628181 0.420438
S2    S     S_3+6 0.242802 0.818650 0.684474 0.076495
O20   O     O_2   0.142643 0.808522 0.681597 -0.253449
O21   O     O_2   0.281648 0.736024 0.746174 -0.278008
O22   O     O_3   0.265370 0.902568 0.781408 -0.474507
H20   H     H_    0.307584 0.878998 0.847763 0.373552
S3    S     S_3+6 0.702962 0.635064 0.579545 0.049985
O23   O     O_2   0.699376 0.668170 0.717957 -0.278017
O24   O     O_2   0.621178 0.664862 0.507403 -0.292531
O25   O     O_3   0.703301 0.524796 0.589613 -0.517997
H21   H     H_    0.643323 0.507639 0.628151 0.420428
S4    S     S_3+6 0.742801 0.318652 0.684473 0.076498
O26   O     O_2   0.642642 0.308523 0.681596 -0.253450
O27   O     O_2   0.781647 0.236025 0.746175 -0.278008
O28   O     O_3   0.765368 0.402570 0.781405 -0.474493
H22   H     H_    0.807582 0.379001 0.847762 0.373550
S5    S     S_3+6 0.674680 0.053531 0.116386 0.079858
O29   O     O_2   0.660629 0.147807 0.148535 -0.242361
O30   O     O_2   0.709430 0.003447 0.235685 -0.323651
O31   O     O_3   0.752870 0.051335 0.991568 -0.493534
H23   H     H_    0.775474 0.990253 0.994482 0.352036
S6    S     S_3+6 0.174680 0.553531 0.116386 0.079858
O32   O     O_2   0.160629 0.647807 0.148535 -0.242361
O33   O     O_2   0.209430 0.503447 0.235685 -0.323651
O34   O     O_3   0.252870 0.551335 0.991568 -0.493534
H24   H     H_    0.275474 0.490253 0.994482 0.352037

loop_
_geom_bond_atom_site_label_1
_geom_bond_atom_site_label_2
_ccdc_geom_bond_type
C8    O16   A    
S2    O22   S    
C22   S2    S    
S3    O23   D    
C21   S1    S    
C19   H11   S    
S2    O21   D    
O13   Zn3   S    
C20   H12   S    
S4    O27   D    
C7    O15   A    
C6    O14   A    
O15   Zn4   S    
S6    O34   S    
C5    O13   A    
C15   H7    S    
O3    Zn2   S    
C9    C13   D    
C7    O11   A    
O9    Zn1   S    
C28   N4    D    
O25   H21   S    
C9    C19   S    
C12   C16   D    
O10   Zn1   S    
C10   C20   S    
S6    O33   D    
C27   S5    S    
O7    Zn4   S    
C25   N1    D    
C26   N2    D    
C11   H3    S    
C1    C22   S    
N3    Zn3   S    
C12   H4    S    
C3    C24   S    
C11   C15   D    
N1    Zn1   S    
S3    O24   D    
O19   H19   S    
C5    O9    A    
C6    O10   A    
S2    O20   D    
C10   C14   D    
C25   H13   S    
S5    O29   D    
S1    O18   D    
C4    C23   S    
S4    O26   D    
O8    Zn4   S    
C17   H9    S    
C17   C21   D    
C19   C23   D    
C13   H5    S    
S5    O30   D    
C10   H2    S    
O34   H24   S    
H17   N3    S    
S6    O32   D    
C2    C21   S    
O1    Zn1   S    
O14   Zn3   S    
N2    Zn2   S    
C1    O1    A    
C5    C14   S    
O5    Zn3   S    
O2    Zn1   S    
C2    O2    A    
C3    O7    A    
C7    C16   S    
C8    C15   S    
C12   C18   S    
S3    O25   S    
C26   H14   S    
C11   C17   S    
C23   S3    S    
C4    O4    A    
C18   C22   D    
S4    O28   S    
C14   H6    S    
S1    O19   S    
C9    H1    S    
C25   C27   S    
H18   N4    S    
C26   C28   S    
O12   Zn2   S    
C28   S6    S    
C18   H10   S    
S1    O17   D    
C2    O6    A    
C16   H8    S    
S5    O31   S    
C3    O3    A    
O11   Zn2   S    
O16   Zn4   S    
C24   S4    S    
C1    O5    A    
N4    Zn4   S    
O31   H23   S    
O22   H20   S    
H16   N2    S    
O4    Zn2   S    
O6    Zn3   S    
C4    O8    A    
O28   H22   S    
H15   N1    S    
C20   C24   D    
C27   N3    D    
C8    O12   A    
C6    C13   S    
