data_mof_unit_61270.cif
_audit_creation_date              2013-03-05T16:36:28-0500
_audit_creation_method            fapswitch 2.2
_symmetry_space_group_name_H-M    P1
_symmetry_Int_Tables_number       1
_space_group_crystal_system       triclinic
_cell_length_a                    35.537465
_cell_length_b                    35.54277
_cell_length_c                    47.158316
_cell_angle_alpha                 90.010334
_cell_angle_beta                  90.019437
_cell_angle_gamma                 90.032062
_cell_volume                      59565.6526156

loop_
_atom_site_label
_atom_site_type_symbol
_atom_site_description
_atom_site_fract_x
_atom_site_fract_y
_atom_site_fract_z
_atom_type_partial_charge
O1    O     O_R   0.555440 0.968650 0.000000 -0.608022
O2    O     O_R   0.031350 0.555440 0.000000 -0.608452
O3    O     O_R   0.444560 0.031350 0.000000 -0.608113
O4    O     O_R   0.968650 0.444560 0.000000 -0.608395
O5    O     O_R   0.555440 0.031350 0.000000 -0.608543
O6    O     O_R   0.031350 0.444560 0.000000 -0.608404
O7    O     O_R   0.444560 0.968650 0.000000 -0.608663
O8    O     O_R   0.968650 0.555440 0.000000 -0.608378
O9    O     O_R   0.055440 0.468650 0.500000 -0.608403
O10   O     O_R   0.531350 0.055440 0.500000 -0.608559
O11   O     O_R   0.944560 0.531350 0.500000 -0.608308
O12   O     O_R   0.468650 0.944560 0.500000 -0.608326
O13   O     O_R   0.055440 0.531350 0.500000 -0.608421
O14   O     O_R   0.531350 0.944560 0.500000 -0.608538
O15   O     O_R   0.944560 0.468650 0.500000 -0.608508
O16   O     O_R   0.468650 0.055440 0.500000 -0.608755
C1    C     C_R   0.573293 0.000012 0.000009 0.969284
C2    C     C_R   0.000011 0.573290 0.999993 0.970040
C3    C     C_R   0.426719 0.999988 0.000008 0.968971
C4    C     C_R   0.999996 0.426693 0.999973 0.970480
C5    C     C_R   0.073306 0.500002 0.500017 0.970221
C6    C     C_R   0.500010 0.073277 0.499999 0.970958
C7    C     C_R   0.926694 0.499983 0.499978 0.970150
C8    C     C_R   0.499990 0.926700 0.499998 0.970637
O17   O     O_R   0.499980 0.968650 0.958070 -0.588003
O18   O     O_R   0.031350 0.499980 0.958070 -0.588507
O19   O     O_R   0.500020 0.031350 0.958070 -0.587919
O20   O     O_R   0.968650 0.500020 0.958070 -0.588440
O21   O     O_R   0.499980 0.031350 0.041930 -0.588412
O22   O     O_R   0.031350 0.500020 0.041930 -0.588399
O23   O     O_R   0.500020 0.968650 0.041930 -0.588492
O24   O     O_R   0.968650 0.499980 0.041930 -0.588448
O25   O     O_R   0.999980 0.468650 0.458070 -0.588391
O26   O     O_R   0.531350 0.999980 0.458070 -0.588479
O27   O     O_R   0.000020 0.531350 0.458070 -0.588286
O28   O     O_R   0.468650 0.000020 0.458070 -0.588440
O29   O     O_R   0.999980 0.531350 0.541930 -0.588423
O30   O     O_R   0.531350 0.000020 0.541930 -0.588673
O31   O     O_R   0.000020 0.468650 0.541930 -0.588424
O32   O     O_R   0.468650 0.999980 0.541930 -0.588664
C9    C     C_R   0.500002 0.999997 0.944599 0.995251
C10   C     C_R   0.999994 0.499994 0.944600 0.997225
C11   C     C_R   0.500005 0.000003 0.055398 0.997325
C12   C     C_R   0.000007 0.499986 0.055399 0.997827
C13   C     C_R   0.000010 0.499996 0.444602 0.997269
C14   C     C_R   0.499994 1.000000 0.444601 0.997352
C15   C     C_R   0.999992 0.500003 0.555397 0.997728
C16   C     C_R   0.500006 0.000001 0.555397 0.998147
Zn1   Zn    Zn3+2 0.500000 0.958160 0.000000 1.131952
Zn2   Zn    Zn3+2 0.041840 0.500000 0.000000 1.131755
Zn3   Zn    Zn3+2 0.500000 0.041840 0.000000 1.132219
Zn4   Zn    Zn3+2 0.958160 0.500000 0.000000 1.131757
Zn5   Zn    Zn3+2 0.000000 0.458160 0.500000 1.131872
Zn6   Zn    Zn3+2 0.541840 0.000000 0.500000 1.131552
Zn7   Zn    Zn3+2 0.000000 0.541840 0.500000 1.131915
Zn8   Zn    Zn3+2 0.458160 0.000000 0.500000 1.131594
C17   C     C_R   0.525193 0.022184 0.690135 0.529295
C18   C     C_R   0.977452 0.524869 0.690139 0.529244
C19   C     C_R   0.474897 0.977831 0.690118 0.529287
C20   C     C_R   0.022247 0.475020 0.690125 0.529332
C21   C     C_R   0.524856 0.977532 0.309870 0.529303
C22   C     C_R   0.977709 0.474967 0.309868 0.529335
C23   C     C_R   0.475125 0.022459 0.309855 0.529311
C24   C     C_R   0.022681 0.524707 0.309857 0.529234
C25   C     C_R   0.025108 0.522165 0.190132 0.529357
C26   C     C_R   0.477648 0.024947 0.190132 0.529339
C27   C     C_R   0.975235 0.477339 0.190141 0.529209
C28   C     C_R   0.522471 0.975123 0.190143 0.529287
C29   C     C_R   0.024737 0.477429 0.809852 0.529264
C30   C     C_R   0.477282 0.975397 0.809843 0.529417
C31   C     C_R   0.975024 0.522377 0.809864 0.529341
C32   C     C_R   0.522804 0.024637 0.809860 0.529272
N1    N     N_R   0.500044 0.000008 0.676207 -0.339166
N2    N     N_R   0.999855 0.499959 0.676213 -0.339133
N3    N     N_R   0.499983 0.999993 0.323781 -0.339162
N4    N     N_R   0.000183 0.499863 0.323782 -0.339127
N5    N     N_R   0.000150 0.499761 0.176217 -0.339135
N6    N     N_R   0.500062 0.000035 0.176219 -0.339159
N7    N     N_R   0.999895 0.499908 0.823777 -0.339135
N8    N     N_R   0.500043 0.000017 0.823769 -0.339172
C33   C     C_R   0.475715 0.975312 0.719986 -0.064977
C34   C     C_R   0.024769 0.475851 0.719995 -0.065037
C35   C     C_R   0.524376 0.024707 0.720003 -0.064982
C36   C     C_R   0.974921 0.523990 0.720005 -0.065014
C37   C     C_R   0.476005 0.024994 0.279989 -0.064993
C38   C     C_R   0.025222 0.523798 0.279992 -0.065024
C39   C     C_R   0.524012 0.975018 0.280000 -0.064998
C40   C     C_R   0.975202 0.475781 0.279997 -0.065040
C41   C     C_R   0.976123 0.474811 0.220007 -0.065035
C42   C     C_R   0.524981 0.975971 0.220012 -0.064998
C43   C     C_R   0.024288 0.524688 0.220001 -0.065027
C44   C     C_R   0.475110 0.024087 0.219999 -0.064992
C45   C     C_R   0.975865 0.524899 0.779996 -0.065025
C46   C     C_R   0.525311 0.023753 0.779993 -0.064997
C47   C     C_R   0.023852 0.474903 0.779984 -0.065033
C48   C     C_R   0.474777 0.976276 0.779975 -0.065009
C49   C     C_R   0.500046 0.000011 0.735003 -0.084641
C50   C     C_R   0.999847 0.499914 0.735010 -0.084690
C51   C     C_R   0.500018 0.000012 0.264985 -0.084631
C52   C     C_R   0.000213 0.499777 0.264985 -0.084690
C53   C     C_R   0.000210 0.499757 0.235014 -0.084673
C54   C     C_R   0.500037 0.000024 0.235014 -0.084640
C55   C     C_R   0.999853 0.499904 0.764981 -0.084681
C56   C     C_R   0.500045 0.000013 0.764974 -0.084636
C57   C     C_R   0.452432 0.949779 0.735156 0.166577
C58   C     C_R   0.050527 0.452834 0.735169 0.166668
C59   C     C_R   0.547660 0.050241 0.735191 0.166507
C60   C     C_R   0.949152 0.546977 0.735187 0.166716
C61   C     C_R   0.453084 0.050826 0.264807 0.166570
C62   C     C_R   0.051082 0.546707 0.264814 0.166745
C63   C     C_R   0.546955 0.949201 0.264828 0.166611
C64   C     C_R   0.949370 0.452814 0.264819 0.166627
C65   C     C_R   0.953129 0.449028 0.235187 0.166748
C66   C     C_R   0.550746 0.952975 0.235197 0.166626
C67   C     C_R   0.047323 0.550459 0.235178 0.166507
C68   C     C_R   0.449329 0.047075 0.235169 0.166567
C69   C     C_R   0.952929 0.550729 0.764823 0.166551
C70   C     C_R   0.551393 0.046419 0.764824 0.166563
C71   C     C_R   0.046760 0.449066 0.764802 0.166756
C72   C     C_R   0.448697 0.953606 0.764787 0.166524
O33   O     O_2   0.551279 0.040826 0.674839 -0.534318
O34   O     O_2   0.958590 0.550789 0.674848 -0.534317
O35   O     O_2   0.448810 0.959188 0.674806 -0.534353
O36   O     O_2   0.041112 0.449125 0.674816 -0.534448
O37   O     O_2   0.550705 0.958593 0.325179 -0.534323
O38   O     O_2   0.958747 0.449129 0.325178 -0.534451
O39   O     O_2   0.449256 0.041386 0.325146 -0.534255
O40   O     O_2   0.041629 0.550593 0.325148 -0.534280
O41   O     O_2   0.051010 0.541044 0.174825 -0.534381
O42   O     O_2   0.458777 0.050846 0.174828 -0.534286
O43   O     O_2   0.949300 0.458458 0.174847 -0.534331
O44   O     O_2   0.541357 0.949230 0.174845 -0.534339
O45   O     O_2   0.050600 0.458487 0.825145 -0.534392
O46   O     O_2   0.458037 0.949753 0.825137 -0.534289
O47   O     O_2   0.949185 0.541320 0.825171 -0.534346
O48   O     O_2   0.542047 0.050284 0.825170 -0.534233
C73   C     C_R   0.999662 0.073048 0.000027 0.897187
C74   C     C_R   0.926927 0.000025 0.999985 0.898619
C75   C     C_R   0.000015 0.926916 0.000005 0.902063
C76   C     C_R   0.073099 0.999982 0.999992 0.901245
C77   C     C_R   0.499999 0.573065 0.500002 0.894840
C78   C     C_R   0.426954 0.500347 0.499978 0.897395
C79   C     C_R   0.500001 0.426881 0.499997 0.900186
C80   C     C_R   0.573046 0.500341 0.500022 0.897410
C81   C     C_R   0.525089 0.976214 0.868915 0.060151
C82   C     C_R   0.023477 0.525256 0.868907 0.060235
C83   C     C_R   0.474991 0.023811 0.868909 0.060191
C84   C     C_R   0.976405 0.474607 0.868931 0.060377
C85   C     C_R   0.525423 0.023502 0.131076 0.060322
C86   C     C_R   0.023528 0.474449 0.131034 0.060504
C87   C     C_R   0.474672 0.976536 0.131077 0.060225
C88   C     C_R   0.976613 0.525194 0.131115 0.060270
C89   C     C_R   0.025460 0.476424 0.368963 0.060426
C90   C     C_R   0.523506 0.025334 0.368931 0.060226
C91   C     C_R   0.974818 0.523451 0.368886 0.060332
C92   C     C_R   0.476450 0.974667 0.368915 0.060336
C93   C     C_R   0.025278 0.523463 0.631102 0.060374
C94   C     C_R   0.523344 0.974498 0.631065 0.060414
C95   C     C_R   0.974493 0.476533 0.631040 0.060456
C96   C     C_R   0.476728 0.025521 0.631067 0.060320
C97   C     C_R   0.525012 0.976289 0.898717 0.252812
C98   C     C_R   0.023423 0.525206 0.898709 0.252581
C99   C     C_R   0.475044 0.023711 0.898705 0.252837
C100  C     C_R   0.976508 0.474701 0.898733 0.252551
C101  C     C_R   0.525332 0.023419 0.101274 0.252582
C102  C     C_R   0.023420 0.474582 0.101232 0.252382
C103  C     C_R   0.474731 0.976607 0.101276 0.252661
C104  C     C_R   0.976657 0.525179 0.101313 0.252453
C105  C     C_R   0.025344 0.476536 0.398765 0.252464
C106  C     C_R   0.523430 0.025264 0.398732 0.252530
C107  C     C_R   0.974846 0.523405 0.398688 0.252442
C108  C     C_R   0.476530 0.974742 0.398718 0.252493
C109  C     C_R   0.025241 0.523396 0.601300 0.252390
C110  C     C_R   0.523270 0.974582 0.601264 0.252466
C111  C     C_R   0.974604 0.476616 0.601238 0.252374
C112  C     C_R   0.476782 0.025431 0.601265 0.252452
C113  C     C_R   0.500019 0.999995 0.913524 -0.333542
C114  C     C_R   0.999976 0.499966 0.913528 -0.333407
C115  C     C_R   0.500022 0.000011 0.086470 -0.333332
C116  C     C_R   0.000027 0.499916 0.086468 -0.333448
C117  C     C_R   0.000068 0.499981 0.413531 -0.333415
C118  C     C_R   0.499983 0.000003 0.413530 -0.333376
C119  C     C_R   0.999945 0.500006 0.586465 -0.333389
C120  C     C_R   0.500020 0.000005 0.586463 -0.333236
C121  C     C_R   0.500044 0.000017 0.854151 0.245447
C122  C     C_R   0.999927 0.499922 0.854158 0.245270
C123  C     C_R   0.500054 0.000023 0.145838 0.245238
C124  C     C_R   0.000091 0.499796 0.145836 0.245284
C125  C     C_R   0.000156 0.499917 0.354162 0.245329
C126  C     C_R   0.499979 0.999998 0.354162 0.245283
C127  C     C_R   0.999871 0.499990 0.645832 0.245270
C128  C     C_R   0.500040 0.000010 0.645828 0.245161
C129  C     C_R   0.826509 0.027294 0.015996 0.305450
C130  C     C_R   0.973759 0.826325 0.016563 0.305504
C131  C     C_R   0.173590 0.973858 0.017079 0.305834
C132  C     C_R   0.028039 0.173516 0.014425 0.305179
C133  C     C_R   0.826342 0.973413 0.983785 0.305186
C134  C     C_R   0.971743 0.173494 0.984640 0.298941
C135  C     C_R   0.173767 0.025460 0.982870 0.305755
C136  C     C_R   0.026668 0.826446 0.983481 0.305636
C137  C     C_R   0.326458 0.528260 0.515181 0.299004
C138  C     C_R   0.475009 0.326231 0.517727 0.306302
C139  C     C_R   0.673415 0.471600 0.514258 0.305277
C140  C     C_R   0.527339 0.673564 0.515704 0.305117
C141  C     C_R   0.326539 0.471674 0.485719 0.305263
C142  C     C_R   0.472559 0.673510 0.484338 0.305114
C143  C     C_R   0.673588 0.528175 0.484799 0.298967
C144  C     C_R   0.525065 0.326265 0.482273 0.306353
C145  C     C_R   0.866079 0.027364 0.016203 0.009008
C146  C     C_R   0.973623 0.865880 0.016881 0.006641
C147  C     C_R   0.134028 0.973791 0.017282 0.007653
C148  C     C_R   0.027664 0.133958 0.015182 0.003621
C149  C     C_R   0.865902 0.973243 0.983488 0.006762
C150  C     C_R   0.971044 0.133956 0.984948 0.007026
C151  C     C_R   0.134216 0.025590 0.982487 0.005975
C152  C     C_R   0.026755 0.866008 0.983264 0.007603
C153  C     C_R   0.365998 0.528953 0.514963 0.006815
C154  C     C_R   0.474908 0.365777 0.518044 0.006765
C155  C     C_R   0.633849 0.472012 0.514950 0.004108
C156  C     C_R   0.527488 0.634000 0.515931 0.008904
C157  C     C_R   0.366106 0.472050 0.485044 0.004220
C158  C     C_R   0.472454 0.633946 0.484091 0.008797
C159  C     C_R   0.634049 0.528904 0.485035 0.006898
C160  C     C_R   0.525127 0.365812 0.481942 0.006668
C161  C     C_R   0.885696 0.000178 0.999922 -0.128824
C162  C     C_R   0.000109 0.885669 0.000032 -0.131477
C163  C     C_R   0.114370 0.999824 0.999947 -0.132835
C164  C     C_R   0.999290 0.114219 0.000126 -0.117954
C165  C     C_R   0.385786 0.500631 0.499910 -0.117565
C166  C     C_R   0.500010 0.385580 0.499993 -0.134591
C167  C     C_R   0.614215 0.500602 0.500091 -0.117572
C168  C     C_R   0.499981 0.614282 0.500007 -0.126152
O49   O     O_R   0.000020 0.055270 0.976310 -0.607775
O50   O     O_R   0.944730 0.000020 0.976310 -0.614765
O51   O     O_R   0.999980 0.944730 0.976310 -0.612520
O52   O     O_R   0.055270 0.999980 0.976310 -0.613211
O53   O     O_R   0.000020 0.944730 0.023690 -0.613062
O54   O     O_R   0.944730 0.999980 0.023690 -0.611976
O55   O     O_R   0.999980 0.055270 0.023690 -0.611855
O56   O     O_R   0.055270 0.000020 0.023690 -0.612516
O57   O     O_R   0.500020 0.555270 0.476310 -0.614048
O58   O     O_R   0.444730 0.500020 0.476310 -0.611615
O59   O     O_R   0.499980 0.444730 0.476310 -0.613101
O60   O     O_R   0.555270 0.499980 0.476310 -0.608275
O61   O     O_R   0.500020 0.444730 0.523690 -0.613100
O62   O     O_R   0.444730 0.499980 0.523690 -0.608250
O63   O     O_R   0.499980 0.555270 0.523690 -0.614116
O64   O     O_R   0.555270 0.500020 0.523690 -0.611585
C169  C     C_R   0.807048 0.000338 0.999943 -0.202033
C170  C     C_R   0.000200 0.807012 0.999979 -0.201791
C171  C     C_R   0.193044 0.999689 0.000048 -0.201565
C172  C     C_R   0.000191 0.192887 0.999220 -0.201550
C173  C     C_R   0.307116 0.499688 0.500707 -0.201640
C174  C     C_R   0.500049 0.306892 0.500005 -0.201377
C175  C     C_R   0.692883 0.499589 0.499261 -0.201631
C176  C     C_R   0.499938 0.692919 0.500026 -0.202257
C177  C     C_1   0.766780 0.000326 0.000008 0.185584
C178  C     C_1   0.000196 0.766747 0.999932 0.184228
C179  C     C_1   0.233300 0.999712 0.000136 0.182352
C180  C     C_1   0.000404 0.233159 0.999030 0.188791
C181  C     C_1   0.266845 0.499484 0.500837 0.189221
C182  C     C_1   0.500067 0.266645 0.500011 0.179771
C183  C     C_1   0.733154 0.499355 0.499119 0.189233
C184  C     C_1   0.499924 0.733191 0.500029 0.186914
C185  C     C_1   0.733107 0.000275 0.000037 0.168327
C186  C     C_1   0.000168 0.733077 0.999917 0.167518
C187  C     C_1   0.266967 0.999770 0.000164 0.166253
C188  C     C_1   0.000455 0.266835 0.999026 0.171101
C189  C     C_1   0.233168 0.499461 0.500826 0.171393
C190  C     C_1   0.500074 0.232986 0.500015 0.164801
C191  C     C_1   0.766831 0.499320 0.499123 0.171398
C192  C     C_1   0.499921 0.766865 0.500029 0.169221
C193  C     C_R   0.673126 0.029894 0.013226 0.286518
C194  C     C_R   0.970420 0.673157 0.013155 0.286636
C195  C     C_R   0.326951 0.970212 0.013391 0.286662
C196  C     C_R   0.030215 0.326771 0.012260 0.285977
C197  C     C_R   0.673185 0.970422 0.986891 0.286675
C198  C     C_R   0.970376 0.326815 0.986364 0.286920
C199  C     C_R   0.326849 0.029539 0.986897 0.286883
C200  C     C_R   0.029783 0.673106 0.986700 0.286666
C201  C     C_R   0.173227 0.529591 0.513502 0.286908
C202  C     C_R   0.470267 0.173063 0.513095 0.286739
C203  C     C_R   0.826785 0.469632 0.512320 0.285982
C204  C     C_R   0.529749 0.826834 0.513104 0.286442
C205  C     C_R   0.173197 0.469741 0.487631 0.285986
C206  C     C_R   0.470129 0.826812 0.486938 0.286573
C207  C     C_R   0.826790 0.529468 0.486446 0.286922
C208  C     C_R   0.529855 0.173071 0.486940 0.286849
C209  C     C_R   0.633884 0.030092 0.012240 -0.174101
C210  C     C_R   0.970103 0.633923 0.012197 -0.174563
C211  C     C_R   0.366180 0.969978 0.012357 -0.173738
C212  C     C_R   0.030273 0.366023 0.011613 -0.174623
C213  C     C_R   0.633945 0.970083 0.987861 -0.175351
C214  C     C_R   0.969967 0.366055 0.987643 -0.174745
C215  C     C_R   0.366082 0.029872 0.987827 -0.175331
C216  C     C_R   0.030022 0.633872 0.987705 -0.174443
C217  C     C_R   0.133981 0.530013 0.512270 -0.174850
C218  C     C_R   0.469978 0.133843 0.512117 -0.173430
C219  C     C_R   0.866042 0.469631 0.511649 -0.174528
C220  C     C_R   0.530025 0.866075 0.512122 -0.173969
C221  C     C_R   0.133942 0.469706 0.488318 -0.174637
C222  C     C_R   0.469894 0.866055 0.487899 -0.174728
C223  C     C_R   0.866035 0.529925 0.487694 -0.175041
C224  C     C_R   0.530106 0.133849 0.487905 -0.174040
H1    H     H_    0.618572 0.052991 0.022071 0.231713
H2    H     H_    0.947205 0.618662 0.022095 0.231527
H3    H     H_    0.381505 0.947119 0.022233 0.231874
H4    H     H_    0.053262 0.381283 0.021407 0.231147
H5    H     H_    0.618685 0.947138 0.978013 0.231653
H6    H     H_    0.946869 0.381367 0.978073 0.231510
H7    H     H_    0.381324 0.052760 0.977901 0.231636
H8    H     H_    0.052896 0.618568 0.977834 0.231766
H9    H     H_    0.118695 0.553114 0.521854 0.231308
H10   H     H_    0.447006 0.118565 0.521903 0.231375
H11   H     H_    0.881324 0.446667 0.521423 0.231216
H12   H     H_    0.553004 0.881367 0.521899 0.231405
H13   H     H_    0.118648 0.446722 0.478552 0.231250
H14   H     H_    0.446930 0.881332 0.478115 0.231451
H15   H     H_    0.881333 0.553033 0.478114 0.231344
H16   H     H_    0.553064 0.118576 0.478117 0.231469
C225  C     C_R   0.614303 0.000056 0.000041 -0.150211
C226  C     C_R   0.000044 0.614291 0.999964 -0.150134
C227  C     C_R   0.385731 0.999948 0.000063 -0.150494
C228  C     C_R   0.000036 0.385661 0.999785 -0.149448
C229  C     C_R   0.114339 0.499951 0.500160 -0.149417
C230  C     C_R   0.500031 0.114252 0.500006 -0.150051
C231  C     C_R   0.885660 0.499889 0.499817 -0.149448
C232  C     C_R   0.499969 0.885681 0.500005 -0.149641
C233  C     C_R   0.692874 0.000194 0.000057 -0.147826
C234  C     C_R   0.000120 0.692848 0.999918 -0.147679
C235  C     C_R   0.307188 0.999848 0.000163 -0.147370
C236  C     C_R   0.000386 0.307073 0.999165 -0.148412
C237  C     C_R   0.192931 0.499567 0.500696 -0.148473
C238  C     C_R   0.500068 0.192774 0.500019 -0.146979
C239  C     C_R   0.807068 0.499437 0.499249 -0.148468
C240  C     C_R   0.499930 0.807103 0.500026 -0.148034
Zn9   Zn    Zn3+2 0.000000 1.000000 0.968380 0.998156
Zn10  Zn    Zn3+2 0.000000 0.000000 0.031620 0.994660
Zn11  Zn    Zn3+2 0.500000 0.500000 0.468380 0.999149
Zn12  Zn    Zn3+2 0.500000 0.500000 0.531620 0.999169
C241  C     C_3   0.434185 0.916287 0.720571 -0.729306
H17   H     H_    0.427771 0.893161 0.735618 0.225096
H18   H     H_    0.407701 0.924993 0.709951 0.273212
H19   H     H_    0.453925 0.903546 0.705057 0.262865
C242  C     C_3   0.084177 0.434930 0.720585 -0.729672
H20   H     H_    0.107375 0.428748 0.735632 0.225083
H21   H     H_    0.075702 0.408365 0.709965 0.273193
H22   H     H_    0.096732 0.454798 0.705070 0.262786
C243  C     C_3   0.565911 0.083729 0.720621 -0.729126
H23   H     H_    0.572330 0.106856 0.735676 0.225120
H24   H     H_    0.592394 0.075018 0.710012 0.273168
H25   H     H_    0.546172 0.096471 0.705100 0.262940
C244  C     C_3   0.915480 0.564858 0.720603 -0.729606
H26   H     H_    0.892271 0.570975 0.735646 0.225096
H27   H     H_    0.923920 0.591456 0.710025 0.273222
H28   H     H_    0.902958 0.545003 0.705053 0.262761
C245  C     C_3   0.435281 0.084530 0.279391 -0.729202
H29   H     H_    0.429213 0.107755 0.264351 0.225124
H30   H     H_    0.408663 0.076151 0.289969 0.273174
H31   H     H_    0.455172 0.097000 0.294942 0.262894
C246  C     C_3   0.084823 0.564496 0.279402 -0.729631
H32   H     H_    0.108063 0.570526 0.264363 0.225101
H33   H     H_    0.076492 0.591129 0.289971 0.273223
H34   H     H_    0.097254 0.544616 0.294960 0.262750
C247  C     C_3   0.564747 0.915489 0.279410 -0.729376
H35   H     H_    0.570841 0.892278 0.264361 0.225108
H36   H     H_    0.591349 0.923866 0.290028 0.273197
H37   H     H_    0.544838 0.903002 0.294927 0.262833
C248  C     C_3   0.915662 0.434985 0.279400 -0.729626
H38   H     H_    0.892451 0.428832 0.264350 0.225082
H39   H     H_    0.924054 0.408413 0.290026 0.273198
H40   H     H_    0.903161 0.454889 0.294907 0.262798
C249  C     C_3   0.935249 0.415335 0.220606 -0.729691
H41   H     H_    0.929145 0.392123 0.235652 0.225105
H42   H     H_    0.908642 0.423735 0.210021 0.273190
H43   H     H_    0.955105 0.402840 0.205061 0.262760
C250  C     C_3   0.584425 0.935104 0.220628 -0.729393
H44   H     H_    0.607621 0.928960 0.235685 0.225114
H45   H     H_    0.575986 0.908522 0.210016 0.273177
H46   H     H_    0.596963 0.954976 0.205110 0.262847
C251  C     C_3   0.065258 0.584105 0.220591 -0.729306
H47   H     H_    0.071471 0.607302 0.235634 0.225117
H48   H     H_    0.091814 0.575632 0.209978 0.273165
H49   H     H_    0.045393 0.596653 0.205070 0.262891
C252  C     C_3   0.415671 0.064962 0.220572 -0.729236
H50   H     H_    0.392460 0.071107 0.235606 0.225112
H51   H     H_    0.424127 0.091546 0.209982 0.273186
H52   H     H_    0.403142 0.045099 0.205030 0.262889
C253  C     C_3   0.935131 0.584430 0.779415 -0.729337
H53   H     H_    0.929024 0.607646 0.764375 0.225121
H54   H     H_    0.908533 0.576040 0.790018 0.273162
H55   H     H_    0.955040 0.596917 0.794944 0.262879
C254  C     C_3   0.585313 0.063861 0.779413 -0.729225
H56   H     H_    0.608595 0.069709 0.764370 0.225110
H57   H     H_    0.577241 0.090548 0.790020 0.273202
H58   H     H_    0.597572 0.043831 0.794939 0.262883
C255  C     C_3   0.064532 0.415339 0.779378 -0.729750
H59   H     H_    0.070575 0.392115 0.764328 0.225095
H60   H     H_    0.091161 0.423690 0.789971 0.273187
H61   H     H_    0.044633 0.402883 0.794915 0.262759
C256  C     C_3   0.414777 0.936164 0.779355 -0.729166
H62   H     H_    0.391497 0.930311 0.764298 0.225128
H63   H     H_    0.422850 0.909480 0.789963 0.273155
H64   H     H_    0.402514 0.956196 0.794877 0.262931
C257  C     C_3   0.552704 0.951376 0.853220 -0.674453
H65   H     H_    0.546019 0.921369 0.857310 0.271546
H66   H     H_    0.552287 0.955530 0.829945 0.210280
H67   H     H_    0.581769 0.957433 0.860575 0.256617
C258  C     C_3   0.048004 0.553144 0.853188 -0.674056
H68   H     H_    0.078091 0.546789 0.857242 0.271601
H69   H     H_    0.043795 0.552692 0.829917 0.210141
H70   H     H_    0.041676 0.582136 0.860549 0.256639
C259  C     C_3   0.447394 0.048675 0.853212 -0.674546
H71   H     H_    0.454037 0.078674 0.857385 0.271515
H72   H     H_    0.447877 0.044603 0.829929 0.210407
H73   H     H_    0.418317 0.042565 0.860500 0.256631
C260  C     C_3   0.951852 0.446696 0.853237 -0.674414
H74   H     H_    0.921773 0.453056 0.857300 0.271659
H75   H     H_    0.956024 0.447115 0.829964 0.210169
H76   H     H_    0.958194 0.417715 0.860611 0.256437
C261  C     C_3   0.553385 0.047982 0.146783 -0.673982
H77   H     H_    0.547082 0.078073 0.142730 0.271646
H78   H     H_    0.552957 0.043791 0.170053 0.210175
H79   H     H_    0.582358 0.041592 0.139409 0.256565
C262  C     C_3   0.047994 0.446469 0.146700 -0.674427
H80   H     H_    0.078094 0.452789 0.142658 0.271665
H81   H     H_    0.043806 0.446849 0.169971 0.210172
H82   H     H_    0.041579 0.417512 0.139284 0.256404
C263  C     C_3   0.446724 0.952062 0.146784 -0.673902
H83   H     H_    0.453020 0.921969 0.142726 0.271614
H84   H     H_    0.447178 0.956257 0.170055 0.210117
H85   H     H_    0.417744 0.958453 0.139415 0.256691
C264  C     C_3   0.952182 0.553114 0.146867 -0.674086
H86   H     H_    0.922074 0.546815 0.142824 0.271640
H87   H     H_    0.956411 0.552637 0.170135 0.210118
H88   H     H_    0.958589 0.582100 0.139523 0.256609
C265  C     C_3   0.053377 0.451893 0.353298 -0.674553
H89   H     H_    0.046998 0.421813 0.357361 0.271648
H90   H     H_    0.052980 0.456061 0.330025 0.210179
H91   H     H_    0.082359 0.458252 0.360697 0.256416
C266  C     C_3   0.548035 0.053241 0.353231 -0.673888
H92   H     H_    0.578121 0.046890 0.357292 0.271612
H93   H     H_    0.543839 0.052806 0.329959 0.210120
H94   H     H_    0.541694 0.082225 0.360603 0.256703
C267  C     C_3   0.946947 0.547951 0.353137 -0.674488
H95   H     H_    0.953309 0.578038 0.357192 0.271691
H96   H     H_    0.947421 0.543741 0.329867 0.210206
H97   H     H_    0.917943 0.541600 0.360473 0.256383
C268  C     C_3   0.451919 0.946759 0.353200 -0.674127
H98   H     H_    0.421834 0.953111 0.357248 0.271648
H99   H     H_    0.456113 0.947192 0.329930 0.210185
H100  H     H_    0.458260 0.917776 0.360569 0.256524
C269  C     C_3   0.053232 0.547914 0.646844 -0.674368
H101  H     H_    0.046952 0.578013 0.642801 0.271713
H102  H     H_    0.052768 0.543704 0.670112 0.210159
H103  H     H_    0.082212 0.541514 0.639492 0.256387
C270  C     C_3   0.547615 0.946392 0.646774 -0.673884
H104  H     H_    0.577759 0.952536 0.642764 0.271736
H105  H     H_    0.543376 0.946815 0.670039 0.210124
H106  H     H_    0.541048 0.917466 0.639365 0.256488
C271  C     C_3   0.946503 0.452072 0.646716 -0.674430
H107  H     H_    0.952804 0.421976 0.642678 0.271677
H108  H     H_    0.946899 0.456284 0.669987 0.210150
H109  H     H_    0.917541 0.458464 0.639306 0.256404
C272  C     C_3   0.452468 0.053631 0.646777 -0.673573
H110  H     H_    0.422321 0.047488 0.642760 0.271704
H111  H     H_    0.456720 0.053210 0.670043 0.210106
H112  H     H_    0.459032 0.082555 0.639375 0.256640
N9    N     N_R   0.551732 0.953739 0.913979 0.227173
O65   O     O_R   0.576554 0.969716 0.930308 -0.403091
O66   O     O_R   0.550840 0.917242 0.912045 -0.332978
N10   N     N_R   0.045699 0.552197 0.913964 0.226888
O67   O     O_R   0.029480 0.576713 0.930387 -0.404181
O68   O     O_R   0.082197 0.551884 0.911907 -0.333066
N11   N     N_R   0.448326 0.046266 0.913952 0.227010
O69   O     O_R   0.423337 0.030279 0.930117 -0.402679
O70   O     O_R   0.449417 0.082772 0.912194 -0.332818
N12   N     N_R   0.954249 0.447737 0.914012 0.226830
O71   O     O_R   0.970486 0.423249 0.930450 -0.404479
O72   O     O_R   0.917747 0.448060 0.911968 -0.333121
N13   N     N_R   0.552345 0.045629 0.086005 0.226781
O73   O     O_R   0.576809 0.029354 0.069571 -0.404304
O74   O     O_R   0.552100 0.082124 0.088058 -0.333020
N14   N     N_R   0.045605 0.447603 0.085921 0.226780
O75   O     O_R   0.029312 0.423220 0.069402 -0.403889
O76   O     O_R   0.082104 0.447825 0.087999 -0.333255
N15   N     N_R   0.447696 0.954399 0.086010 0.226801
O77   O     O_R   0.423201 0.970678 0.069596 -0.404294
O78   O     O_R   0.447940 0.917903 0.088053 -0.333040
N16   N     N_R   0.954448 0.552223 0.086085 0.226847
O79   O     O_R   0.970719 0.576691 0.069641 -0.403985
O80   O     O_R   0.917952 0.551994 0.088177 -0.333069
N17   N     N_R   0.052290 0.454299 0.414072 0.226831
O81   O     O_R   0.076760 0.470545 0.430546 -0.403783
O82   O     O_R   0.051953 0.417803 0.412033 -0.333204
N18   N     N_R   0.545691 0.052249 0.414006 0.226894
O83   O     O_R   0.529462 0.076733 0.430451 -0.403838
O84   O     O_R   0.582191 0.051949 0.411955 -0.333051
N19   N     N_R   0.947862 0.545681 0.413915 0.226855
O85   O     O_R   0.923329 0.529474 0.430340 -0.404069
O86   O     O_R   0.948234 0.582175 0.411857 -0.332990
N20   N     N_R   0.454262 0.947766 0.413978 0.226864
O87   O     O_R   0.470485 0.923287 0.430432 -0.404021
O88   O     O_R   0.417763 0.948079 0.411912 -0.333058
N21   N     N_R   0.052289 0.545605 0.586063 0.226769
O89   O     O_R   0.076735 0.529338 0.569607 -0.404272
O90   O     O_R   0.052082 0.582097 0.588153 -0.333042
N22   N     N_R   0.545320 0.947459 0.585990 0.226615
O91   O     O_R   0.528904 0.923125 0.569500 -0.404529
O92   O     O_R   0.581816 0.947466 0.588100 -0.333068
N23   N     N_R   0.947595 0.454410 0.585936 0.226774
O93   O     O_R   0.923211 0.470677 0.569420 -0.403917
O94   O     O_R   0.947784 0.417919 0.588025 -0.333199
N24   N     N_R   0.454725 0.052555 0.585994 0.226643
O95   O     O_R   0.471135 0.076889 0.569515 -0.404263
O96   O     O_R   0.418230 0.052549 0.588095 -0.333020
N25   N     N_R   0.805864 0.054648 0.032023 0.224405
O97   O     O_R   0.806769 0.054057 0.059598 -0.307839
O98   O     O_R   0.786800 0.080667 0.018997 -0.301213
N26   N     N_R   0.946980 0.805532 0.033032 0.224239
O99   O     O_R   0.948796 0.805902 0.060585 -0.308386
O100  O     O_R   0.920067 0.787154 0.020455 -0.299948
N27   N     N_R   0.194248 0.947586 0.034084 0.224024
O101  O     O_R   0.193800 0.950296 0.061594 -0.309379
O102  O     O_R   0.212347 0.920081 0.022055 -0.298967
N28   N     N_R   0.056580 0.194247 0.029218 0.224925
O103  O     O_R   0.057811 0.193798 0.056790 -0.306236
O104  O     O_R   0.081348 0.213609 0.015089 -0.302685
N29   N     N_R   0.805529 0.946198 0.967719 0.224440
O105  O     O_R   0.806038 0.947148 0.940143 -0.307727
O106  O     O_R   0.786808 0.919881 0.980700 -0.300648
N30   N     N_R   0.942613 0.194110 0.970381 0.232237
O107  O     O_R   0.938382 0.191148 0.943071 -0.309182
O108  O     O_R   0.919567 0.215038 0.984880 -0.303731
N31   N     N_R   0.194604 0.051591 0.965861 0.223879
O109  O     O_R   0.194757 0.048383 0.938380 -0.308917
O110  O     O_R   0.212152 0.079522 0.977832 -0.298749
N32   N     N_R   0.053535 0.805775 0.967018 0.224299
O111  O     O_R   0.051974 0.806445 0.939460 -0.308648
O112  O     O_R   0.080234 0.787148 0.979616 -0.299948
N33   N     N_R   0.305787 0.557503 0.529254 0.232325
O113  O     O_R   0.308513 0.561848 0.556568 -0.308684
O114  O     O_R   0.284933 0.580446 0.514598 -0.303947
N34   N     N_R   0.449547 0.305454 0.535333 0.223496
O115  O     O_R   0.454136 0.304958 0.562700 -0.309914
O116  O     O_R   0.420596 0.288732 0.524088 -0.297357
N35   N     N_R   0.694052 0.442889 0.528904 0.225013
O117  O     O_R   0.693423 0.441294 0.556462 -0.306146
O118  O     O_R   0.713599 0.418397 0.514661 -0.302823
N36   N     N_R   0.555043 0.694311 0.531348 0.224526
O119  O     O_R   0.555104 0.693462 0.558928 -0.307022
O120  O     O_R   0.580630 0.713545 0.517968 -0.301838
N37   N     N_R   0.305856 0.442972 0.471067 0.225013
O121  O     O_R   0.306504 0.441359 0.443509 -0.306144
O122  O     O_R   0.286257 0.418500 0.485304 -0.302886
N38   N     N_R   0.444837 0.694203 0.468700 0.224534
O123  O     O_R   0.444777 0.693355 0.441119 -0.307063
O124  O     O_R   0.419244 0.713399 0.482085 -0.301757
N39   N     N_R   0.694306 0.557397 0.470722 0.232324
O125  O     O_R   0.691562 0.561743 0.443411 -0.308678
O126  O     O_R   0.715213 0.580327 0.485373 -0.304024
N40   N     N_R   0.550544 0.305524 0.464670 0.223487
O127  O     O_R   0.545937 0.304972 0.437306 -0.309981
O128  O     O_R   0.579515 0.288876 0.475916 -0.297276
C273  C     C_3   0.887349 0.057080 0.032869 -0.706629
H113  H     H_    0.869301 0.080725 0.039866 0.274584
H114  H     H_    0.900206 0.044140 0.051965 0.258668
H115  H     H_    0.909793 0.069741 0.019641 0.203313
C274  C     C_3   0.944761 0.886882 0.034534 -0.697230
H116  H     H_    0.921216 0.868807 0.041720 0.273947
H117  H     H_    0.958591 0.899010 0.053558 0.257146
H118  H     H_    0.931791 0.909860 0.022050 0.202049
C275  C     C_3   0.112883 0.945255 0.035157 -0.696784
H119  H     H_    0.130942 0.921975 0.042813 0.273660
H120  H     H_    0.100455 0.959439 0.053907 0.257251
H121  H     H_    0.090145 0.931876 0.022617 0.202633
C276  C     C_3   0.057805 0.112822 0.031493 -0.700398
H122  H     H_    0.082180 0.130662 0.037321 0.274712
H123  H     H_    0.045548 0.101084 0.051245 0.257339
H124  H     H_    0.069313 0.089498 0.018586 0.199548
C277  C     C_3   0.886930 0.943909 0.966303 -0.697788
H125  H     H_    0.868850 0.920205 0.959414 0.274168
H126  H     H_    0.899155 0.957230 0.947119 0.257266
H127  H     H_    0.909856 0.931255 0.979029 0.201186
C278  C     C_3   0.938775 0.113971 0.970178 -0.722207
H128  H     H_    0.911555 0.126190 0.977166 0.259146
H129  H     H_    0.941540 0.117373 0.946883 0.275918
H130  H     H_    0.937102 0.083530 0.974794 0.212671
C279  C     C_3   0.113340 0.053620 0.963995 -0.694924
H131  H     H_    0.131448 0.076872 0.956331 0.273432
H132  H     H_    0.101469 0.038937 0.945244 0.257093
H133  H     H_    0.090197 0.067099 0.975972 0.203988
C280  C     C_3   0.055905 0.887188 0.965989 -0.698325
H134  H     H_    0.079419 0.869140 0.958740 0.274150
H135  H     H_    0.042355 0.899726 0.947011 0.257162
H136  H     H_    0.068867 0.909862 0.978834 0.201533
C281  C     C_3   0.385916 0.561246 0.529750 -0.723778
H137  H     H_    0.373918 0.588455 0.522526 0.259006
H138  H     H_    0.382147 0.558690 0.553026 0.276336
H139  H     H_    0.416443 0.562731 0.525438 0.213442
C282  C     C_3   0.447474 0.386667 0.537029 -0.693960
H140  H     H_    0.424640 0.368511 0.545316 0.273168
H141  H     H_    0.462781 0.398786 0.555402 0.256968
H142  H     H_    0.433387 0.409591 0.525193 0.205213
C283  C     C_3   0.612563 0.441616 0.530886 -0.701257
H143  H     H_    0.630375 0.417230 0.536679 0.274980
H144  H     H_    0.600533 0.453583 0.550637 0.257229
H145  H     H_    0.589441 0.430207 0.517691 0.199116
C284  C     C_3   0.557511 0.612832 0.532325 -0.707151
H146  H     H_    0.581283 0.630929 0.539053 0.274751
H147  H     H_    0.544904 0.600019 0.551563 0.258799
H148  H     H_    0.569926 0.590350 0.519023 0.202899
C285  C     C_3   0.387344 0.441622 0.469124 -0.701348
H149  H     H_    0.369487 0.417250 0.463324 0.274994
H150  H     H_    0.399419 0.453564 0.449378 0.257207
H151  H     H_    0.410427 0.430202 0.482335 0.199100
C286  C     C_3   0.442462 0.612720 0.467676 -0.707108
H152  H     H_    0.418662 0.630763 0.460969 0.274716
H153  H     H_    0.455088 0.599967 0.448424 0.258842
H154  H     H_    0.430080 0.590187 0.480952 0.202936
C287  C     C_3   0.614183 0.561214 0.470267 -0.723641
H155  H     H_    0.626247 0.588413 0.477488 0.258997
H156  H     H_    0.617920 0.558651 0.446988 0.276297
H157  H     H_    0.583664 0.562730 0.474601 0.213327
C288  C     C_3   0.552529 0.386740 0.462941 -0.693993
H158  H     H_    0.575365 0.368620 0.454639 0.273170
H159  H     H_    0.537194 0.398823 0.444576 0.256956
H160  H     H_    0.566613 0.409695 0.474767 0.205278
N41   N     N_R   0.692347 0.059493 0.028120 0.238269
O129  O     O_R   0.678890 0.093536 0.027841 -0.299069
O130  O     O_R   0.719265 0.051390 0.045784 -0.285735
N42   N     N_R   0.940973 0.692431 0.028133 0.237733
O131  O     O_R   0.906834 0.679174 0.027808 -0.299399
O132  O     O_R   0.949323 0.719072 0.045972 -0.284763
N43   N     N_R   0.307756 0.940746 0.028422 0.237342
O133  O     O_R   0.321067 0.906646 0.028125 -0.299877
O134  O     O_R   0.281139 0.949056 0.046276 -0.284281
N44   N     N_R   0.060114 0.307485 0.026741 0.238602
O135  O     O_R   0.094110 0.321098 0.026272 -0.299035
O136  O     O_R   0.052393 0.280266 0.044232 -0.286377
N45   N     N_R   0.692465 0.940915 0.971978 0.238071
O137  O     O_R   0.679188 0.906789 0.972343 -0.299092
O138  O     O_R   0.719168 0.949173 0.954178 -0.285395
N46   N     N_R   0.940628 0.307608 0.971599 0.240107
O139  O     O_R   0.906607 0.321127 0.971969 -0.297854
O140  O     O_R   0.948491 0.280438 0.954094 -0.290299
N47   N     N_R   0.307544 0.058938 0.971896 0.237045
O141  O     O_R   0.320691 0.093114 0.972285 -0.299675
O142  O     O_R   0.281077 0.050506 0.953929 -0.283758
N48   N     N_R   0.059284 0.692324 0.971717 0.237857
O143  O     O_R   0.093370 0.678965 0.971985 -0.299460
O144  O     O_R   0.051030 0.719073 0.953958 -0.285139
N49   N     N_R   0.192479 0.559338 0.528230 0.240164
O145  O     O_R   0.178982 0.593363 0.527841 -0.297684
O146  O     O_R   0.219668 0.551479 0.545724 -0.290274
N50   N     N_R   0.440701 0.192306 0.527949 0.236264
O147  O     O_R   0.406531 0.179146 0.527336 -0.300604
O148  O     O_R   0.448945 0.218702 0.546018 -0.282626
N51   N     N_R   0.807518 0.439690 0.526778 0.238751
O149  O     O_R   0.821208 0.405743 0.526346 -0.298982
O150  O     O_R   0.780181 0.447323 0.544183 -0.286758
N52   N     N_R   0.559396 0.807600 0.527910 0.238537
O151  O     O_R   0.593467 0.821029 0.527536 -0.298852
O152  O     O_R   0.551340 0.780687 0.545583 -0.285993
N53   N     N_R   0.192446 0.439810 0.473164 0.238774
O153  O     O_R   0.178752 0.405850 0.473603 -0.298946
O154  O     O_R   0.219765 0.447463 0.455742 -0.286802
N54   N     N_R   0.440459 0.807554 0.472146 0.238499
O155  O     O_R   0.406404 0.820986 0.472511 -0.298834
O156  O     O_R   0.448481 0.780604 0.454496 -0.286060
N55   N     N_R   0.807556 0.559187 0.471706 0.240189
O157  O     O_R   0.821060 0.593225 0.472098 -0.297637
O158  O     O_R   0.780381 0.551289 0.454198 -0.290335
N56   N     N_R   0.559445 0.192321 0.472098 0.236226
O159  O     O_R   0.593599 0.179158 0.472705 -0.300598
O160  O     O_R   0.551237 0.218734 0.454050 -0.282699

loop_
_geom_bond_atom_site_label_1
_geom_bond_atom_site_label_2
_geom_bond_distance
_ccdc_geom_bond_type
C260  H75   1.107605 S    
C245  H29   1.109637 S    
C218  H10   1.083572 S    
C75   O53   1.283827 A    
C133  N29   1.433650 S    
C262  H80   1.109454 S    
C108  N20   1.436383 S    
N37   O122  1.300874 A    
C133  C149  1.405946 A    
C279  H131  1.107890 S    
C20   N2    1.360151 A    
N44   O135  1.301362 A    
C185  C233  1.429781 S    
C65   C249  1.519604 S    
C111  C119  1.409709 A    
N51   O150  1.300696 A    
C288  H158  1.107874 S    
C73   C164  1.463391 S    
O18   Zn2   2.012058 S    
C273  H113  1.107782 S    
C253  H54   1.110157 S    
N43   O134  1.300615 A    
O56   Zn10  1.999559 S    
C84   C122  1.411924 A    
C76   O56   1.284871 A    
C58   C242  1.519619 S    
O25   C13   1.282538 A    
C196  C236  1.412050 A    
O62   Zn12  1.999314 S    
C270  H104  1.109460 S    
O24   Zn4   2.012054 S    
C154  C282  1.518049 S    
C91   C125  1.411965 A    
C107  N19   1.436382 S    
C94   C110  1.405394 A    
C47   C55   1.420647 A    
C78   O62   1.284182 A    
C96   C112  1.405379 A    
C28   C42   1.411694 A    
C17   C35   1.411697 A    
O3    C3    1.282103 A    
C19   N1    1.360164 A    
O30   C16   1.282401 A    
C44   C54   1.420670 A    
C248  H40   1.110427 S    
C206  C240  1.412031 A    
C271  H108  1.107601 S    
O55   Zn10  1.999790 S    
C46   C56   1.420663 A    
C259  H72   1.107630 S    
C25   C43   1.411714 A    
C196  N44   1.437222 S    
C23   C37   1.411691 A    
C34   C50   1.420678 A    
C110  N22   1.436386 S    
C193  C209  1.395364 A    
C206  N54   1.437152 S    
C244  H27   1.110162 S    
N38   O124  1.300823 A    
C139  C175  1.402959 A    
C220  H12   1.083534 S    
C246  H34   1.110431 S    
C41   C65   1.421164 A    
C18   O34   1.348551 S    
N21   O90   1.300763 A    
C13   C117  1.465244 S    
C213  H5    1.083531 S    
N3    C126  1.432698 S    
C177  C185  1.196676 T    
C102  N14   1.436455 S    
C249  H43   1.110434 S    
O17   C9    1.282649 A    
C16   C120  1.465025 S    
C274  H118  1.107449 S    
C47   C71   1.421168 A    
N9    O65   1.300915 A    
C22   C40   1.411715 A    
C275  H119  1.107869 S    
C6    C230  1.456354 S    
C152  C162  1.418225 A    
O16   C6    1.281850 A    
C275  H121  1.108115 S    
C93   C127  1.411964 A    
O27   C13   1.282588 A    
C94   C128  1.411985 A    
N11   O70   1.300756 A    
C246  H33   1.110158 S    
N55   O157  1.301377 A    
C133  C169  1.402649 A    
N14   O76   1.300765 A    
C276  H124  1.106919 S    
C197  N45   1.436918 S    
C142  N38   1.433819 S    
N40   O127  1.300897 A    
O13   C5    1.282692 A    
N15   O78   1.300762 A    
C278  H128  1.110670 S    
C57   C241  1.519601 S    
C242  H22   1.110433 S    
C132  N28   1.434152 S    
C44   C68   1.421209 A    
C150  C278  1.517605 S    
C249  H41   1.109643 S    
C84   C260  1.513777 S    
C175  C183  1.431176 S    
O26   Zn6   2.012058 S    
O60   Zn11  1.999311 S    
O7    C3    1.281957 A    
C176  C184  1.431375 S    
C75   O51   1.284432 A    
C253  H53   1.109625 S    
C270  H106  1.110438 S    
C257  H67   1.110407 S    
N16   O79   1.300764 A    
C97   C113  1.409770 A    
C134  C150  1.405569 A    
C131  N27   1.433409 S    
C172  C180  1.431417 S    
O31   C15   1.282525 A    
C254  H56   1.109640 S    
C279  H133  1.107078 S    
C173  C181  1.431166 S    
C88   C264  1.513787 S    
C112  C120  1.409601 A    
C48   C56   1.420663 A    
N52   O152  1.300682 A    
C41   C53   1.420646 A    
C66   C250  1.519617 S    
C215  C227  1.397351 A    
C107  C117  1.409672 A    
N50   O147  1.301337 A    
C29   C47   1.411687 A    
C32   O48   1.348549 S    
C207  C239  1.412345 A    
C31   C45   1.411728 A    
O8    C2    1.282130 A    
C70   C254  1.519606 S    
C286  H152  1.107766 S    
N34   O115  1.300902 A    
C255  H60   1.110158 S    
C105  N17   1.436425 S    
C247  H35   1.109636 S    
O9    C5    1.282219 A    
C138  C174  1.401333 A    
C81   C97   1.405432 A    
C10   C114  1.465322 S    
C199  C215  1.394948 A    
C80   O60   1.284200 A    
O11   C7    1.282669 A    
C262  H82   1.110435 S    
N42   O132  1.300616 A    
O22   C12   1.282419 A    
C190  C238  1.429239 S    
C79   C166  1.467952 S    
C277  H125  1.107850 S    
C274  H117  1.109757 S    
N48   O143  1.301351 A    
C208  C238  1.411559 A    
C181  C189  1.196795 T    
C132  C148  1.406509 A    
C7    C231  1.458264 S    
C39   C63   1.421188 A    
C243  H25   1.110429 S    
N26   O100  1.300783 A    
C205  C221  1.395410 A    
C30   O46   1.348552 S    
O5    Zn3   2.005367 S    
C195  C211  1.395026 A    
C258  H68   1.109463 S    
C287  H155  1.110676 S    
C209  H1    1.083527 S    
C252  H51   1.110158 S    
C143  C159  1.405396 A    
C283  H143  1.107730 S    
C197  C233  1.411916 A    
C267  H97   1.110430 S    
O32   Zn8   2.012054 S    
C80   C167  1.463054 S    
C27   N5    1.360159 A    
C45   C55   1.420674 A    
C31   N7    1.360148 A    
C284  H146  1.107764 S    
C209  C225  1.397671 A    
C266  H92   1.109460 S    
C89   C125  1.411954 A    
C263  H83   1.109460 S    
C77   C168  1.464977 S    
C204  N52   1.437140 S    
C90   C106  1.405390 A    
C134  N30   1.435702 S    
O23   C11   1.282576 A    
C222  H14   1.083531 S    
C75   C162  1.466050 S    
C135  C151  1.405665 A    
C153  C281  1.517614 S    
N54   O155  1.301354 A    
C89   C265  1.513780 S    
C203  C239  1.412047 A    
C207  C223  1.395962 A    
C86   C124  1.411958 A    
N36   O119  1.301011 A    
C140  C176  1.403044 A    
C87   C103  1.405379 A    
C198  C214  1.396078 A    
C104  N16   1.436397 S    
O14   C8    1.282242 A    
N37   O121  1.301059 A    
C42   C54   1.420668 A    
C106  N18   1.436377 S    
C21   C39   1.411702 A    
C201  N49   1.437697 S    
C250  H46   1.110432 S    
C251  H49   1.110430 S    
C130  C170  1.402415 A    
C57   C72   1.410242 A    
C111  N23   1.436454 S    
O26   C14   1.282442 A    
O29   C15   1.282560 A    
O8    Zn4   2.005236 S    
C59   C70   1.410249 A    
C222  C232  1.397667 A    
O59   Zn11  1.999793 S    
C136  C170  1.402543 A    
C42   C66   1.421198 A    
C92   C268  1.513770 S    
C158  C168  1.417486 A    
C194  C234  1.411846 A    
C106  C118  1.409676 A    
C146  C162  1.418393 A    
C268  H99   1.107601 S    
C267  H95   1.109455 S    
C82   C258  1.513780 S    
C45   C69   1.421216 A    
C43   C53   1.420701 A    
N14   O75   1.300789 A    
C280  H135  1.109716 S    
O19   Zn3   2.012127 S    
N29   O105  1.301004 A    
C241  H18   1.110159 S    
C24   N4    1.360154 A    
C254  H58   1.110423 S    
C33   C57   1.421198 A    
C210  H2    1.083548 S    
C198  N46   1.437699 S    
C84   C100  1.405424 A    
C223  H15   1.083516 S    
C100  N12   1.436353 S    
C85   C101  1.405422 A    
N10   O67   1.300758 A    
C247  H37   1.110431 S    
C26   C44   1.411695 A    
C38   C62   1.421158 A    
C264  H87   1.107593 S    
C78   O58   1.282768 A    
C92   C108  1.405430 A    
C81   C257  1.513740 S    
C81   C121  1.411870 A    
C282  H142  1.107442 S    
C40   C64   1.421243 A    
O58   Zn11  1.999564 S    
C73   O55   1.282528 A    
C277  H127  1.107419 S    
C30   C48   1.411685 A    
O16   Zn8   2.005236 S    
N33   O113  1.300824 A    
C37   C51   1.420658 A    
C203  C219  1.395446 A    
C130  C146  1.405986 A    
C281  H137  1.110674 S    
C69   C253  1.519620 S    
C132  C172  1.402901 A    
N18   O84   1.300766 A    
N13   O73   1.300760 A    
C85   C261  1.513763 S    
N30   O107  1.300826 A    
C258  H70   1.110434 S    
C194  C210  1.395261 A    
C195  N43   1.436819 S    
N47   O142  1.300551 A    
C273  H114  1.109678 S    
N46   O140  1.300846 A    
C269  H102  1.107598 S    
C283  H145  1.107229 S    
C200  C216  1.395329 A    
C101  C115  1.409656 A    
N28   O104  1.300868 A    
C29   N7    1.360136 A    
C86   C262  1.513775 S    
C102  C116  1.409713 A    
C89   C105  1.405406 A    
N23   O93   1.300823 A    
C178  C186  1.196721 T    
C256  H64   1.110423 S    
C100  C114  1.409700 A    
C18   N2    1.360135 A    
C217  C229  1.397746 A    
O21   Zn3   2.012254 S    
C263  H85   1.110436 S    
C151  C279  1.517931 S    
C98   C114  1.409661 A    
N44   O136  1.300667 A    
C91   C267  1.513783 S    
C60   C69   1.410263 A    
O61   Zn12  1.999661 S    
C68   C252  1.519618 S    
C155  C167  1.418180 A    
C59   C243  1.519603 S    
C208  N56   1.436533 S    
N27   O101  1.300966 A    
C140  N36   1.433802 S    
C261  H79   1.110432 S    
O12   C8    1.282270 A    
O1    C1    1.282312 A    
C138  N34   1.432985 S    
C138  C154  1.405676 A    
C195  C235  1.411629 A    
N24   O95   1.300774 A    
C282  H140  1.107878 S    
C32   C46   1.411690 A    
C32   N8    1.360115 A    
C83   C99   1.405159 A    
C255  H59   1.109640 S    
C46   C70   1.421161 A    
C200  C234  1.411822 A    
C23   N3    1.360138 A    
C142  C158  1.406270 A    
C52   C53   1.413377 A    
C272  H111  1.107596 S    
C79   O59   1.284743 A    
C34   C58   1.421221 A    
C90   C126  1.411943 A    
N12   O71   1.300759 A    
C204  C240  1.412012 A    
C90   C266  1.513791 S    
C250  H45   1.110162 S    
N1    C128  1.432632 S    
C149  C161  1.417943 A    
N2    C127  1.432722 S    
O29   Zn7   2.012254 S    
C134  C172  1.403022 A    
C174  C182  1.430494 S    
C141  N37   1.434231 S    
C268  H98   1.109457 S    
N15   O77   1.300751 A    
N5    C124  1.432690 S    
N6    C123  1.432707 S    
C266  H93   1.107594 S    
C288  H159  1.109750 S    
C249  H42   1.110157 S    
C265  H89   1.109462 S    
C92   C126  1.411947 A    
N22   O91   1.300772 A    
N45   O138  1.300641 A    
C103  C115  1.409636 A    
C259  H71   1.109468 S    
N7    C122  1.432717 S    
C58   C71   1.410258 A    
C247  H36   1.110160 S    
C270  H105  1.107605 S    
N35   O117  1.301053 A    
C198  C236  1.412332 A    
C88   C124  1.411986 A    
C112  N24   1.436383 S    
C12   C116  1.465193 S    
N23   O94   1.300761 A    
C244  H26   1.109639 S    
C141  C173  1.402958 A    
N47   O141  1.301340 A    
O10   C6    1.281864 A    
C87   C123  1.411938 A    
C82   C98   1.405411 A    
C11   C115  1.465275 S    
N32   O111  1.300976 A    
C243  H23   1.109625 S    
C145  C161  1.417749 A    
C140  C156  1.406266 A    
O15   Zn5   2.005371 S    
C156  C284  1.517466 S    
N45   O137  1.301350 A    
C37   C61   1.421185 A    
C152  C280  1.517696 S    
N49   O146  1.300835 A    
N25   O97   1.300999 A    
C71   C255  1.519614 S    
C271  H109  1.110439 S    
O5    C1    1.282160 A    
C261  H78   1.107602 S    
C82   C122  1.411951 A    
C50   C55   1.413382 A    
C194  N42   1.436809 S    
O49   Zn9   1.999656 S    
C205  N53   1.437362 S    
C180  C188  1.196946 T    
C22   O38   1.348557 S    
C28   O44   1.348550 S    
C97   N9    1.436192 S    
C154  C166  1.419820 A    
C61   C68   1.410254 A    
C171  C179  1.430629 S    
C191  C239  1.429949 S    
C276  H123  1.109790 S    
C213  C225  1.397498 A    
C99   C113  1.409703 A    
N40   O128  1.300700 A    
N55   O158  1.300836 A    
C103  N15   1.436297 S    
O51   Zn9   1.999793 S    
N53   O154  1.300694 A    
C38   C52   1.420640 A    
C93   C269  1.513771 S    
C67   C251  1.519622 S    
N56   O160  1.300506 A    
N9    O66   1.300781 A    
O22   Zn2   2.012302 S    
C184  C192  1.196892 T    
N17   O81   1.300779 A    
O21   C11   1.282575 A    
C28   N6    1.360138 A    
C262  H81   1.107599 S    
N19   O86   1.300779 A    
N16   O80   1.300765 A    
O23   Zn1   2.012121 S    
C24   C38   1.411655 A    
C183  C191  1.196800 T    
C88   C104  1.405414 A    
C159  C167  1.418670 A    
C256  H62   1.109640 S    
N20   O88   1.300769 A    
C265  H90   1.107593 S    
C281  H139  1.105040 S    
C19   O35   1.348553 S    
C26   N6    1.360140 A    
C27   O43   1.348565 S    
C146  C274  1.517736 S    
C221  C229  1.397733 A    
C95   C127  1.411958 A    
C25   N5    1.360172 A    
C96   C128  1.411982 A    
C203  N51   1.437371 S    
C255  H61   1.110430 S    
C224  C230  1.397432 A    
O3    Zn3   2.004961 S    
C271  H107  1.109460 S    
O50   Zn9   1.999564 S    
C30   N8    1.360109 A    
C204  C220  1.395537 A    
C207  N55   1.437690 S    
C192  C240  1.430141 S    
C99   N11   1.436088 S    
C258  H69   1.107598 S    
C74   C161  1.465246 S    
C188  C236  1.430191 S    
O28   Zn8   2.012307 S    
C160  C166  1.419838 A    
C182  C190  1.196331 T    
C254  H57   1.110151 S    
C63   C247  1.519616 S    
O30   Zn6   2.012302 S    
C189  C237  1.429939 S    
C145  C273  1.517564 S    
C268  H100  1.110428 S    
O52   Zn9   1.999311 S    
C223  C231  1.397737 A    
C147  C275  1.517830 S    
C105  C117  1.409697 A    
O63   Zn12  1.999790 S    
C40   C52   1.420699 A    
N48   O144  1.300647 A    
C130  N26   1.433530 S    
N50   O148  1.300507 A    
N30   O108  1.300945 A    
C85   C123  1.411937 A    
C285  H151  1.107241 S    
C211  H3    1.083529 S    
C201  C237  1.412354 A    
C74   O50   1.283477 A    
C144  C160  1.405696 A    
C201  C217  1.395988 A    
C287  H157  1.105058 S    
C244  H28   1.110433 S    
O11   Zn7   2.004961 S    
N38   O123  1.300999 A    
C273  H115  1.108067 S    
N25   O98   1.300815 A    
N56   O159  1.301339 A    
C9    C113  1.465426 S    
N20   O87   1.300762 A    
C242  H21   1.110157 S    
C219  C231  1.397744 A    
O6    Zn2   2.005239 S    
N35   O118  1.300878 A    
C252  H50   1.109630 S    
C206  C222  1.395577 A    
C19   C33   1.411690 A    
C169  C177  1.431027 S    
C266  H94   1.110433 S    
C279  H132  1.109774 S    
C25   O41   1.348554 S    
C212  C228  1.397695 A    
C158  C286  1.517476 S    
O6    C4    1.282204 A    
C193  N41   1.437106 S    
N54   O156  1.300684 A    
C104  C116  1.409643 A    
N29   O106  1.300802 A    
N36   O120  1.300823 A    
O28   C14   1.282461 A    
N27   O102  1.300761 A    
C14   C118  1.465251 S    
O31   Zn5   2.012121 S    
C61   C245  1.519615 S    
C137  C173  1.402948 A    
C36   C60   1.421176 A    
C43   C67   1.421246 A    
C220  C232  1.397666 A    
C63   C66   1.410256 A    
C261  H77   1.109455 S    
O17   Zn1   2.012258 S    
C49   C56   1.413391 A    
C179  C187  1.196416 T    
C217  H9    1.083512 S    
C148  C164  1.418324 A    
C143  N39   1.435720 S    
C51   C54   1.413378 A    
C205  C237  1.412024 A    
C109  C119  1.409657 A    
C35   C49   1.420673 A    
C157  C165  1.418164 A    
C251  H48   1.110159 S    
C109  N21   1.436403 S    
N41   O129  1.301361 A    
C62   C67   1.410258 A    
C93   C109  1.405428 A    
O13   Zn7   2.005367 S    
C83   C259  1.513754 S    
C77   O57   1.283788 A    
C269  H103  1.110431 S    
C186  C234  1.429861 S    
O57   Zn11  1.999656 S    
C157  C285  1.517853 S    
N51   O149  1.301365 A    
C218  C230  1.397424 A    
C148  C276  1.517880 S    
C142  C176  1.403035 A    
C210  C226  1.397495 A    
C101  N13   1.436330 S    
C260  H74   1.109453 S    
C285  H150  1.109772 S    
C280  H134  1.107842 S    
N43   O133  1.301347 A    
N39   O126  1.300946 A    
C241  H17   1.109624 S    
C83   C121  1.411839 A    
C284  H148  1.107718 S    
C286  H153  1.109691 S    
N21   O89   1.300795 A    
C202  C238  1.411544 A    
O4    Zn4   2.005649 S    
N31   O110  1.300749 A    
C278  H130  1.105232 S    
C221  H13   1.083553 S    
N10   O68   1.300759 A    
C251  H47   1.109623 S    
C287  H156  1.109597 S    
C31   O47   1.348545 S    
C224  H16   1.083560 S    
C257  H66   1.107636 S    
C17   N1    1.360164 A    
N19   O85   1.300773 A    
C259  H73   1.110417 S    
C137  N33   1.435722 S    
C27   C41   1.411653 A    
C8    C232  1.457915 S    
C20   O36   1.348548 S    
C159  C287  1.517612 S    
O20   C10   1.282464 A    
C277  H126  1.109756 S    
O32   C16   1.282394 A    
C64   C248  1.519617 S    
C143  C175  1.402958 A    
N4    C125  1.432690 S    
C136  C152  1.406184 A    
C20   C34   1.411715 A    
C4    C228  1.458418 S    
C21   N3    1.360143 A    
N46   O139  1.301376 A    
C216  H8    1.083523 S    
C131  C171  1.402072 A    
C2    C226  1.457265 S    
N8    C121  1.432773 S    
C74   O54   1.284308 A    
C76   O52   1.283828 A    
C282  H141  1.109749 S    
C150  C164  1.418645 A    
C151  C163  1.419125 A    
C212  H4    1.083558 S    
C219  H11   1.083554 S    
C288  H160  1.107440 S    
C153  C165  1.418693 A    
O64   Zn12  1.999559 S    
C264  H88   1.110438 S    
O15   C7    1.282246 A    
C243  H24   1.110159 S    
C216  C226  1.397614 A    
C193  C233  1.411864 A    
C208  C224  1.394824 A    
O54   Zn10  1.999314 S    
C144  C174  1.401331 A    
C64   C65   1.410264 A    
C256  H63   1.110151 S    
C39   C51   1.420663 A    
C281  H138  1.109599 S    
O25   Zn5   2.012258 S    
C200  N48   1.436954 S    
C215  H7    1.083552 S    
C160  C288  1.518057 S    
C86   C102  1.405439 A    
N34   O116  1.300700 A    
C156  C168  1.417463 A    
C263  H84   1.107600 S    
O27   Zn7   2.012127 S    
O7    Zn1   2.005371 S    
N41   O130  1.300679 A    
N11   O69   1.301007 A    
C94   C270  1.513768 S    
N26   O99   1.300978 A    
C78   C165  1.463046 S    
C24   O40   1.348567 S    
C139  N35   1.434231 S    
C79   O61   1.284753 A    
C87   C263  1.513775 S    
C245  H30   1.110160 S    
N24   O96   1.300757 A    
C131  C147  1.405991 A    
C18   C36   1.411690 A    
C253  H55   1.110431 S    
O19   C9    1.282626 A    
C129  C145  1.406231 A    
N39   O125  1.300828 A    
C214  H6    1.083498 S    
C62   C246  1.519605 S    
C211  C227  1.397557 A    
N31   O109  1.300975 A    
C272  H110  1.109463 S    
O24   C12   1.282461 A    
C197  C213  1.395311 A    
C98   N10   1.436334 S    
N12   O72   1.300772 A    
C96   C272  1.513772 S    
C15   C119  1.465140 S    
C250  H44   1.109634 S    
O12   Zn8   2.005649 S    
C135  C171  1.401842 A    
O14   Zn6   2.005239 S    
C214  C228  1.397831 A    
C276  H122  1.107761 S    
C129  C169  1.402838 A    
C80   O64   1.282754 A    
O2    Zn2   2.005646 S    
C77   O63   1.283809 A    
C155  C283  1.517863 S    
C73   O49   1.284604 A    
O53   Zn10  1.999661 S    
C260  H76   1.110431 S    
N42   O131  1.301348 A    
C202  C218  1.394787 A    
N22   O92   1.300757 A    
C248  H38   1.109626 S    
C241  H19   1.110434 S    
C149  C277  1.517651 S    
O18   C10   1.282482 A    
C108  C118  1.409680 A    
C110  C120  1.409605 A    
C76   C163  1.466690 S    
C29   O45   1.348555 S    
C22   N4    1.360175 A    
N52   O151  1.301356 A    
C1    C225  1.457388 S    
C48   C72   1.421161 A    
C135  N31   1.433261 S    
C199  C235  1.411697 A    
O2    C2    1.282052 A    
C275  H120  1.109719 S    
C21   O37   1.348552 S    
C3    C227  1.456591 S    
C286  H154  1.107700 S    
O4    C4    1.282566 A    
C199  N47   1.436589 S    
C245  H31   1.110431 S    
C267  H96   1.107606 S    
C246  H32   1.109643 S    
N32   O112  1.300788 A    
C272  H112  1.110435 S    
C285  H149  1.107731 S    
C139  C155  1.406546 A    
C36   C50   1.420651 A    
C252  H52   1.110433 S    
N17   O82   1.300763 A    
C284  H147  1.109697 S    
C137  C153  1.405398 A    
C72   C256  1.519612 S    
N33   O114  1.300945 A    
C187  C235  1.429368 S    
N49   O145  1.301374 A    
C242  H20   1.109628 S    
O20   Zn4   2.012307 S    
C274  H116  1.107869 S    
C278  H129  1.109614 S    
C33   C49   1.420667 A    
C202  N50   1.436517 S    
C141  C157  1.406528 A    
N18   O83   1.300761 A    
N13   O74   1.300762 A    
C265  H91   1.110439 S    
C35   C59   1.421203 A    
C95   C271  1.513777 S    
C257  H65   1.109450 S    
C269  H101  1.109455 S    
O10   Zn6   2.005646 S    
C129  N25   1.433751 S    
C147  C163  1.418818 A    
C280  H136  1.108081 S    
C136  N32   1.433603 S    
C60   C244  1.519612 S    
C17   O33   1.348555 S    
C196  C212  1.395451 A    
C91   C107  1.405418 A    
O9    Zn5   2.004957 S    
C283  H144  1.109769 S    
C264  H86   1.109457 S    
N28   O103  1.301058 A    
C95   C111  1.405427 A    
C248  H39   1.110156 S    
N53   O153  1.301363 A    
O1    Zn1   2.004957 S    
C170  C178  1.431117 S    
C23   O39   1.348551 S    
C5    C229  1.458253 S    
C26   O42   1.348549 S    
C144  N40   1.432982 S    
