data_mof_unit_8649.cif
_audit_creation_date              2012-12-10T16:41:52-0500
_audit_creation_method            fapswitch 2.2
_symmetry_space_group_name_H-M    P1
_symmetry_Int_Tables_number       1
_space_group_crystal_system       triclinic
_cell_length_a                    10.906488
_cell_length_b                    8.706737
_cell_length_c                    7.45554
_cell_angle_alpha                 102.57959
_cell_angle_beta                  95.524547
_cell_angle_gamma                 93.040871
_cell_volume                      685.773345616

loop_
_atom_site_label
_atom_site_type_symbol
_atom_type_description
_atom_site_fract_x
_atom_site_fract_y
_atom_site_fract_z
_atom_type_partial_charge
C1    C     C_R   0.498702 0.200162 0.454705 0.882703
C2    C     C_2   0.542715 0.966614 0.570418 -0.032240
C3    C     C_R   0.265098 0.499617 0.498930 0.808912
C4    C     C_R   0.514317 0.799783 0.546145 0.815098
C5    C     C_R   0.734783 0.506682 0.501208 0.739231
C6    C     C_2   0.921986 0.486775 0.353871 -0.312552
C7    C     C_2   0.867406 0.531063 0.508286 0.261356
C8    C     C_2   0.054768 0.517148 0.353642 0.204980
C9    C     C_2   0.131975 0.482606 0.490528 -0.316509
C10   C     C_2   0.495234 0.033001 0.434942 -0.383505
Cu1   Cu    Cu3+1 0.513740 0.517380 0.684380 0.939175
Cu2   Cu    Cu3+1 0.486260 0.482620 0.315620 0.928172
H1    H     H_    0.867356 0.438378 0.221790 0.155877
H2    H     H_    0.095549 0.429158 0.594941 0.167855
H3    H     H_    0.443782 0.962265 0.309195 0.145705
H4    H     H_    0.403196 0.376599 0.947807 0.218623
H5    H     H_    0.596850 0.623350 0.052174 0.224325
N1    N     N_2   0.465540 0.456420 0.038510 -0.220931
N2    N     N_2   0.534460 0.543580 0.961490 -0.215313
O1    O     O_R   0.508930 0.286130 0.619780 -0.578897
O2    O     O_R   0.485720 0.256780 0.308360 -0.589025
O3    O     O_R   0.333540 0.514670 0.655670 -0.588736
O4    O     O_R   0.310330 0.485320 0.344250 -0.566610
O5    O     O_R   0.514280 0.743220 0.691640 -0.592290
O6    O     O_R   0.491070 0.713870 0.380220 -0.593095
O7    O     O_R   0.689670 0.514680 0.655750 -0.559032
O8    O     O_R   0.666460 0.485330 0.344330 -0.610812
O9    O     O_3   0.935090 0.604665 0.675164 -0.611148
C11   C     C_3   0.938286 0.770353 0.695930 0.065519
H6    H     H_    0.860159 0.815214 0.772449 0.157056
H7    H     H_    0.931663 0.807401 0.561073 0.117556
C12   C     C_3   0.060421 0.845153 0.806461 -0.315585
H8    H     H_    0.070767 0.810157 0.941117 0.221901
H9    H     H_    0.138345 0.801737 0.728666 0.218554
C13   C     C_3   0.067296 0.024922 0.842514 -0.960628
H10   H     H_    0.053705 0.064222 0.710339 0.258461
H11   H     H_    0.159505 0.073933 0.914655 0.256844
H12   H     H_    0.995886 0.071516 0.932028 0.259597
C14   C     C_3   0.094326 0.596164 0.203984 -0.368449
C15   C     C_3   0.104585 0.475298 0.024810 -0.754400
H13   H     H_    0.165137 0.381931 0.049648 0.252352
H14   H     H_    0.011816 0.419153 0.963177 0.251491
H15   H     H_    0.144659 0.535514 0.924862 0.248400
H16   H     H_    0.023972 0.678063 0.175387 0.182948
H17   H     H_    0.181603 0.672052 0.249503 0.205496
C16   C     C_3   0.629667 0.051862 0.741076 -0.347960
C17   C     C_3   0.750021 0.119801 0.688924 -0.812881
H18   H     H_    0.798190 0.024415 0.606681 0.221221
H19   H     H_    0.733450 0.209095 0.606106 0.261587
H20   H     H_    0.810901 0.177237 0.816464 0.235711
H21   H     H_    0.583682 0.144041 0.832251 0.233796
H22   H     H_    0.656607 0.968913 0.829390 0.190098

loop_
_geom_bond_atom_site_label_1
_geom_bond_atom_site_label_2
_ccdc_geom_bond_type
C2    C4    S    
C9    H2    S    
C1    O2    A    
C14   H16   S    
C3    C9    S    
C8    C14   S    
C11   C12   S    
C6    C7    D    
Cu1   O3    S    
C3    O4    A    
C17   H18   S    
Cu2   O6    S    
C14   H17   S    
C12   H8    S    
C15   H14   S    
C4    O6    A    
C17   H19   S    
C2    C16   S    
C6    H1    S    
Cu2   O4    S    
Cu1   N2    S    
C11   H6    S    
C16   H21   S    
H4    N1    S    
C15   H13   S    
H5    N2    S    
C17   H20   S    
C10   H3    S    
C4    O5    A    
Cu1   O1    S    
C1    C10   S    
Cu2   O8    S    
C5    O7    A    
C2    C10   D    
C12   C13   S    
C16   H22   S    
Cu1   O5    S    
C13   H12   S    
C11   H7    S    
N1    N2    D    
Cu2   N1    S    
C14   C15   S    
C5    C7    S    
C16   C17   S    
O9    C11   S    
C3    O3    A    
C6    C8    S    
Cu1   O7    S    
C13   H11   S    
C5    O8    A    
Cu2   O2    S    
C15   H15   S    
C7    O9    S    
C13   H10   S    
Cu1   Cu2   S    
C8    C9    D    
C1    O1    A    
C12   H9    S    
