data_mof_unit_49103.cif
_audit_creation_date              2013-03-05T16:03:58-0500
_audit_creation_method            fapswitch 2.2
_symmetry_space_group_name_H-M    P1
_symmetry_Int_Tables_number       1
_space_group_crystal_system       triclinic
_cell_length_a                    8.350219
_cell_length_b                    14.49026
_cell_length_c                    26.834106
_cell_angle_alpha                 92.667915
_cell_angle_beta                  94.974483
_cell_angle_gamma                 87.888883
_cell_volume                      3229.35095908

loop_
_atom_site_label
_atom_site_type_symbol
_atom_site_description
_atom_site_fract_x
_atom_site_fract_y
_atom_site_fract_z
_atom_type_partial_charge
P1    P     P_3+3 0.090020 0.577590 0.608380 0.446531
O1    O     O_2   0.918080 0.549800 0.616640 -0.376065
O2    O     O_3   0.150070 0.549720 0.556460 -0.380749
O3    O     O_3   0.658250 0.379560 0.591530 -0.366972
O4    O     O_2   0.817420 0.443488 0.674399 -0.402507
O5    O     O_3   0.077933 0.699285 0.612403 -0.584189
O6    O     O_3   0.693990 0.288900 0.685024 -0.545169
C1    C     C_3   0.549148 0.188585 0.731213 -0.921278
H1    H     H_    0.664997 0.151061 0.741194 0.249492
H2    H     H_    0.529571 0.240750 0.761811 0.274953
P2    P     P_3+3 0.614340 0.285150 0.467650 0.490090
P3    P     P_3+3 0.087750 0.211258 0.570015 0.432341
O7    O     O_2   0.790750 0.271170 0.482550 -0.357990
O8    O     O_3   0.062300 0.331660 0.568480 -0.392439
O9    O     O_2   0.929292 0.167115 0.548224 -0.383095
O10   O     O_3   0.596600 0.261636 0.402763 -0.578668
O11   O     O_3   0.107937 0.180054 0.632697 -0.576697
C2    C     C_3   0.076352 0.258598 0.663333 0.428895
H3    H     H_    0.958932 0.291078 0.650863 0.199625
H4    H     H_    0.171664 0.309586 0.662176 0.053079
C3    C     C_3   0.070133 0.231182 0.717114 -0.894153
H5    H     H_    0.977120 0.179112 0.719341 0.251690
H6    H     H_    0.188278 0.201595 0.731612 0.260864
C4    C     C_3   0.174363 0.263549 0.347603 0.369503
H7    H     H_    0.235676 0.312882 0.325948 0.082404
H8    H     H_    0.264182 0.207292 0.357083 0.110732
C5    C     C_3   0.035550 0.222093 0.314589 -1.028518
H9    H     H_    0.954569 0.278052 0.299289 0.274014
H10   H     H_    0.082769 0.180946 0.282791 0.251584
H11   H     H_    0.966746 0.176450 0.336409 0.266801
Ba1   Ba    Ba6+2 0.849670 0.455410 0.524690 1.551699
C6    C     C_3   0.996496 0.731968 0.654236 0.305324
H12   H     H_    0.943834 0.677186 0.674567 0.064532
H13   H     H_    0.894049 0.777958 0.640859 0.115380
C7    C     C_3   0.109519 0.785236 0.692401 -0.436934
H14   H     H_    0.228783 0.749072 0.696432 0.224502
H15   H     H_    0.059582 0.784898 0.729489 0.171081
C8    C     C_3   0.655838 0.333981 0.378147 0.406551
H16   H     H_    0.786711 0.338342 0.388543 0.106398
H17   H     H_    0.590453 0.399857 0.387265 0.137429
C9    C     C_3   0.628740 0.313890 0.321906 -0.992658
H18   H     H_    0.678687 0.244113 0.311885 0.266644
H19   H     H_    0.687370 0.366110 0.301368 0.246182
H20   H     H_    0.498562 0.316408 0.309878 0.252563
P4    P     P_3+3 0.099670 0.422330 0.391610 0.494592
O12   O     O_2   0.271610 0.450170 0.383330 -0.354126
O13   O     O_3   0.039630 0.450200 0.443530 -0.399523
O14   O     O_3   0.531440 0.620360 0.408460 -0.359370
O15   O     O_3   0.120047 0.301367 0.392769 -0.522539
P5    P     P_3+3 0.107828 0.790343 0.427617 0.497400
O16   O     O_3   0.643350 0.612530 0.521650 -0.396359
O17   O     O_3   0.127390 0.668260 0.431510 -0.389962
O18   O     O_2   0.262907 0.830289 0.454322 -0.348596
O19   O     O_3   0.128737 0.812659 0.365212 -0.434511
Ba2   Ba    Ba6+2 0.340150 0.544510 0.475310 1.555417
P6    P     P_3+3 0.658636 0.395806 0.657127 0.420977
C10   C     C_3   0.554013 0.236991 0.681900 0.694844
H21   H     H_    0.442416 0.280928 0.677339 0.003639
H22   H     H_    0.450629 0.138756 0.728552 0.219291
O20   O     O_3   0.546340 0.387390 0.478340 -0.380983
C11   C     C_3   0.524133 0.679710 0.623803 0.417780
H23   H     H_    0.393228 0.679561 0.612624 0.123663
H24   H     H_    0.580721 0.611413 0.613896 0.125239
C12   C     C_3   0.549501 0.697051 0.680365 -1.080239
H25   H     H_    0.522919 0.770744 0.690712 0.275958
H26   H     H_    0.469024 0.654221 0.699637 0.241267
H27   H     H_    0.675677 0.679505 0.693823 0.255409
P7    P     P_3+3 0.581933 0.729266 0.535974 0.440228
O21   O     O_2   0.398940 0.728800 0.517420 -0.352845
O22   O     O_3   0.593938 0.751178 0.600816 -0.597260
H28   H     H_    0.039784 0.293090 0.740865 0.257939
C13   C     C_3   0.002052 0.772954 0.334957 0.490448
H29   H     H_    0.028210 0.697767 0.328690 0.106630
H30   H     H_    0.885734 0.783806 0.351782 -0.086607
C14   C     C_3   0.987156 0.819192 0.284967 -0.885081
H31   H     H_    0.096196 0.802822 0.264889 0.283134
H32   H     H_    0.879631 0.794817 0.261705 0.241925
H33   H     H_    0.973698 0.895329 0.290828 0.227290
P8    P     P_3+3 0.537484 0.610734 0.343043 0.479660
C15   C     C_3   0.552330 0.781560 0.325138 0.341413
H34   H     H_    0.643163 0.766146 0.297855 -0.050266
O23   O     O_2   0.426633 0.531601 0.323208 -0.374199
O24   O     O_3   0.439378 0.711315 0.320474 -0.472166
H35   H     H_    0.612663 0.787392 0.363828 0.039767
H36   H     H_    0.563693 0.923323 0.303111 0.028536
C16   C     C_3   0.471414 0.875005 0.312740 0.073137
H37   H     H_    0.383345 0.866608 0.279520 0.151954
C17   C     C_R   0.937106 0.430364 0.173992 0.538875
O25   O     O_2   0.909476 0.359518 0.194232 -0.600888
N1    N     N_R   0.931468 0.514356 0.200837 -0.166090
C18   C     C_R   0.961993 0.594636 0.177717 0.520543
C19   C     C_2   0.766118 0.570233 0.268366 -0.193794
C20   C     C_3   0.748899 0.588793 0.323960 0.075137
C21   C     C_1   0.969752 0.474417 0.340242 0.236249
C22   C     C_2   0.004287 0.471585 0.292575 -0.237254
C23   C     C_2   0.894710 0.518921 0.253320 0.182282
C24   C     C_R   0.003769 0.507429 0.099464 -0.072730
C25   C     C_R   0.972364 0.425998 0.122949 -0.073728
C26   C     C_R   0.966369 0.342760 0.094106 -0.179900
C27   C     C_R   0.996721 0.592414 0.127003 -0.035870
C28   C     C_2   0.836867 0.515547 0.354560 -0.395456
H38   H     H_    0.113582 0.436507 0.281675 0.146194
H39   H     H_    0.928680 0.281341 0.110823 0.166832
C29   C     C_2   0.344074 0.473912 0.643522 -0.441517
C30   C     C_R   0.120002 0.416181 0.973572 0.044335
C31   C     C_R   0.089224 0.585198 0.972425 0.043734
C32   C     C_R   0.125712 0.499293 0.947896 0.083648
C33   C     C_R   0.190561 0.335826 0.951869 -0.203398
C34   C     C_R   0.238191 0.333413 0.903127 -0.100126
C35   C     C_R   0.224908 0.412851 0.874809 -0.044820
C36   C     C_R   0.172091 0.496626 0.897685 -0.075374
C37   C     C_R   0.167941 0.577966 0.870753 -0.047500
C38   C     C_R   0.211543 0.574038 0.820805 0.517739
N2    N     N_R   0.260168 0.490994 0.798079 -0.161391
C39   C     C_R   0.268378 0.411006 0.824808 0.515537
C40   C     C_2   0.449092 0.459978 0.733108 -0.240595
C41   C     C_3   0.491792 0.472196 0.679802 0.169154
C42   C     C_1   0.214994 0.519174 0.657824 0.278226
C43   C     C_2   0.179460 0.521909 0.705342 -0.271446
C44   C     C_2   0.300582 0.488618 0.746025 0.177780
O26   O     O_2   0.311658 0.337891 0.804946 -0.627896
C45   C     C_R   0.055080 0.417710 0.021420 -0.006333
C46   C     C_R   0.041326 0.504201 0.048364 0.050129
C47   C     C_R   0.061762 0.587955 0.024271 0.062055
C48   C     C_R   0.995873 0.338234 0.043056 0.182484
H40   H     H_    0.541700 0.438402 0.761496 0.159314
H41   H     H_    0.288559 0.269166 0.888012 0.162668
H42   H     H_    0.220303 0.275857 0.973405 0.126434
O27   O     O_2   0.960364 0.668408 0.201474 -0.626192
C49   C     C_R   0.024530 0.673877 0.103349 -0.094713
H43   H     H_    0.686590 0.606796 0.241225 0.143276
H44   H     H_    0.021799 0.740254 0.123654 0.161591
C50   C     C_R   0.083879 0.665549 0.944244 -0.212735
C51   C     C_R   0.120951 0.661738 0.894444 -0.092171
O28   O     O_2   0.208071 0.644973 0.797751 -0.623215
C52   C     C_R   0.055257 0.671895 0.053121 -0.213126
H45   H     H_    0.047215 0.732464 0.959422 0.125188
H46   H     H_    0.114336 0.725428 0.874641 0.159803
H47   H     H_    0.060494 0.544686 0.714973 0.165984
H48   H     H_    0.078422 0.737430 0.038174 0.124475
H49   H     H_    0.791167 0.498651 0.389156 0.109929
H50   H     H_    0.334949 0.426060 0.611092 0.157143
C53   C     C_R   0.678253 0.066089 0.471437 -0.143949
C54   C     C_R   0.503399 0.198381 0.498067 0.251427
C55   C     C_R   0.361757 0.228888 0.518829 -0.443789
C56   C     C_R   0.263026 0.166621 0.538379 0.279104
C57   C     C_R   0.306986 0.072609 0.538262 -0.360406
C58   C     C_R   0.449111 0.039925 0.517946 0.073166
C59   C     C_R   0.545032 0.102077 0.495656 -0.008523
H51   H     H_    0.327842 0.301728 0.519799 0.183917
C60   C     C_R   0.636263 0.911142 0.498778 -0.050905
C61   C     C_R   0.725296 0.971317 0.471876 0.016492
C62   C     C_R   0.691320 0.818287 0.504151 0.211054
C63   C     C_R   0.842452 0.791848 0.488260 -0.217766
C64   C     C_R   0.923561 0.845350 0.456327 0.114496
C65   C     C_R   0.861152 0.936086 0.446750 0.030297
C66   C     C_R   0.496942 0.946178 0.520349 -0.121669
H52   H     H_    0.229599 0.025186 0.553682 0.162860
H53   H     H_    0.748540 0.112725 0.453273 0.180472
H54   H     H_    0.426170 0.901624 0.540317 0.163613
C67   C     C_3   0.553362 0.166831 0.637040 -0.384291
C68   C     C_3   0.694141 0.096113 0.639610 -0.767482
H55   H     H_    0.810015 0.131351 0.644918 0.293838
H56   H     H_    0.685287 0.048629 0.670456 0.229085
H57   H     H_    0.691966 0.053897 0.603993 0.248495
H58   H     H_    0.439149 0.129295 0.633946 0.183190
H59   H     H_    0.558184 0.205713 0.602727 0.191316
C69   C     C_3   0.126811 0.886685 0.680241 -0.280587
C70   C     C_3   0.216567 0.897848 0.633894 -0.775692
H60   H     H_    0.331336 0.856767 0.636064 0.263281
H61   H     H_    0.141428 0.876310 0.599425 0.257328
H62   H     H_    0.244977 0.971670 0.632025 0.234345
H63   H     H_    0.006401 0.922091 0.675298 0.194280
H64   H     H_    0.195018 0.921798 0.712705 0.199340
O29   O     O_3   0.391828 0.912630 0.353260 -0.645721
H65   H     H_    0.475725 0.937577 0.378267 0.317102
C71   C     C_3   0.930795 0.254276 0.012275 -0.372032
C72   C     C_3   0.799658 0.281857 0.971811 -0.841191
H66   H     H_    0.703143 0.324259 0.988751 0.256272
H67   H     H_    0.849326 0.321581 0.942705 0.264144
H68   H     H_    0.745901 0.218737 0.953333 0.243395
H69   H     H_    0.024898 0.210251 0.995956 0.180358
H70   H     H_    0.874457 0.206996 0.036637 0.184515
C73   C     C_3   0.932076 0.992833 0.408240 -0.390595
C74   C     C_3   0.074282 0.047874 0.430931 -0.719653
H71   H     H_    0.169356 0.000919 0.447759 0.275104
H72   H     H_    0.125815 0.085374 0.401320 0.240358
H73   H     H_    0.035506 0.098934 0.459853 0.254420
H74   H     H_    0.969901 0.948593 0.376821 0.227653
H75   H     H_    0.840062 0.039794 0.389588 0.170028
C75   C     C_3   0.912135 0.700516 0.501990 -0.235299
C76   C     C_3   0.862939 0.631632 0.459096 -0.548549
H76   H     H_    0.762120 0.586940 0.457011 0.245485
H77   H     H_    0.853176 0.662430 0.421792 0.153711
H78   H     H_    0.957777 0.582252 0.464600 0.276302
H79   H     H_    0.044083 0.705272 0.510175 0.216959
H80   H     H_    0.883570 0.679138 0.538775 0.216712

loop_
_geom_bond_atom_site_label_1
_geom_bond_atom_site_label_2
_geom_bond_distance
_ccdc_geom_bond_type
C11   O22   1.399634 S    
C1    H1    1.110425 S    
O14   Ba2   2.790545 S    
C26   H39   1.083794 S    
C63   C75   1.475551 S    
C9    H18   1.109786 S    
C50   H45   1.078302 S    
P1    C42   1.834456 S    
C39   O26   1.220563 D    
C5    H10   1.110258 S    
C2    C3    1.520241 S    
C70   H61   1.110639 S    
P6    C41   1.872739 S    
O4    P6    1.543136 D    
O5    C6    1.416339 S    
C57   C58   1.405946 A    
C4    C5    1.520817 S    
P1    Ba1   3.363884 S    
O8    Ba1   2.710798 S    
C52   H48   1.078201 S    
C67   C68   1.529856 S    
C65   C73   1.521807 S    
C46   C47   1.423877 A    
C26   C48   1.410866 A    
H36   C16   1.114373 S    
C33   C34   1.398242 A    
C69   H64   1.111843 S    
C30   C32   1.419338 A    
C75   H80   1.096358 S    
P5    O19   1.744882 S    
C3    H28   1.110492 S    
C60   C66   1.411421 A    
O14   P8    1.759398 S    
O13   Ba2   2.943627 S    
C7    H15   1.112182 S    
C4    H8    1.110365 S    
P1    O1    1.542309 D    
C15   O24   1.407006 S    
C1    H22   1.109942 S    
C8    H16   1.107534 S    
C27   C49   1.402032 A    
C74   H72   1.108388 S    
C31   C32   1.416383 A    
C71   H69   1.101327 S    
C24   C25   1.406737 A    
C19   C23   1.362797 D    
C73   C74   1.521874 S    
C2    H4    1.109058 S    
C16   O29   1.401628 S    
C70   H60   1.108008 S    
P3    C56   1.837314 S    
C11   H24   1.111843 S    
C42   C43   1.332497 D    
C15   C16   1.528472 S    
C75   H79   1.108672 S    
C28   H49   1.075581 S    
C34   H41   1.083361 S    
C31   C50   1.414827 A    
C36   C37   1.408760 A    
C21   C28   1.318326 D    
P7    O21   1.565673 D    
O12   Ba2   2.790494 S    
C30   C45   1.435321 A    
P5    O17   1.777630 S    
C60   C61   1.426022 A    
C4    H7    1.108159 S    
C18   C27   1.414457 A    
P2    C54   1.848703 S    
C29   C42   1.317351 D    
C67   H58   1.110212 S    
O17   Ba2   2.711554 S    
C15   H35   1.114938 S    
O16   P7    1.783761 S    
P2    Ba1   3.431459 S    
C62   C63   1.401325 A    
C8    H17   1.110029 S    
C40   H40   1.085458 S    
Ba2   O20   2.803307 S    
O3    P6    1.764744 S    
C5    H11   1.110269 S    
C9    H19   1.108553 S    
C11   H23   1.108187 S    
O2    Ba2   2.800372 S    
O6    P6    1.755899 S    
C13   C14   1.520646 S    
P4    C21   1.850341 S    
C37   C38   1.417113 A    
C55   C56   1.393869 A    
C68   H56   1.109681 S    
P4    O13   1.552213 S    
C69   H63   1.112166 S    
C30   C33   1.409928 A    
P5    O18   1.543075 D    
C47   C52   1.412961 A    
P1    O5    1.761378 S    
O3    Ba1   2.791053 S    
C12   H27   1.108132 S    
C61   C65   1.435301 A    
C19   H43   1.085479 S    
C58   C59   1.413072 A    
C8    C9    1.522592 S    
C13   H30   1.109127 S    
P7    C62   1.884687 S    
C20   C28   1.503118 S    
C16   H37   1.110435 S    
C2    H3    1.103899 S    
C74   H73   1.107711 S    
O10   C8    1.392580 S    
P4    O12   1.542655 D    
N1    C23   1.465201 S    
C35   C36   1.408220 A    
C6    H12   1.108496 S    
O1    Ba1   2.789985 S    
P1    O2    1.552246 S    
C7    H14   1.107356 S    
C6    H13   1.109848 S    
Ba1   O20   2.908145 S    
P3    O11   1.754459 S    
C11   C12   1.524573 S    
C49   H44   1.083623 S    
C14   H31   1.110334 S    
C6    C7    1.532231 S    
C54   C59   1.425516 A    
C1    C10   1.530518 S    
C68   H57   1.109659 S    
P2    O10   1.753136 S    
O29   H65   0.993133 S    
P3    O9    1.547634 D    
P4    O15   1.756229 S    
P5    C64   1.911642 S    
O11   C2    1.403233 S    
O19   C13   1.400566 S    
Ba2   O21   2.892822 S    
C33   H42   1.075497 S    
C53   H53   1.071534 S    
C14   H32   1.107342 S    
C63   C64   1.412512 A    
C67   H59   1.105996 S    
C56   C57   1.397665 A    
C1    H2    1.108434 S    
C69   C70   1.524436 S    
C17   N1    1.386515 Am   
C71   C72   1.529618 S    
C66   H54   1.080913 S    
C3    H6    1.107350 S    
C48   C71   1.528044 S    
C50   C51   1.395812 A    
C9    H20   1.106537 S    
C29   H50   1.086330 S    
P2    O20   1.589406 S    
C64   C65   1.422683 A    
C24   C27   1.408387 A    
C7    C69   1.535179 S    
C38   N2    1.386862 Am   
C4    O15   1.410711 S    
C53   C61   1.414669 A    
C73   H75   1.109229 S    
C32   C36   1.432268 A    
O7    Ba1   2.892615 S    
C49   C52   1.392528 A    
C55   H51   1.082398 S    
Ba1   O16   2.803943 S    
C15   H34   1.108949 S    
C51   H46   1.083502 S    
P8    O23   1.546238 D    
C72   H67   1.108598 S    
C43   C44   1.506329 S    
C22   H38   1.084015 S    
N2    C39   1.387629 Am   
C18   O27   1.219136 D    
C68   H55   1.105873 S    
C29   C41   1.503858 S    
C74   H71   1.106225 S    
C54   C55   1.399114 A    
C43   H47   1.083963 S    
C76   H76   1.076975 S    
C45   C48   1.435873 A    
C76   H78   1.052963 S    
P3    O8    1.751722 S    
P8    C20   1.892100 S    
C24   C46   1.431177 A    
C71   H70   1.112107 S    
C34   C35   1.404304 A    
C12   H25   1.110071 S    
O2    Ba1   2.942729 S    
P8    O24   1.752208 S    
P2    O7    1.501406 D    
N1    C18   1.385486 Am   
C13   H29   1.111185 S    
C37   C51   1.402835 A    
C19   C20   1.521692 S    
C70   H62   1.108515 S    
C40   C41   1.523558 S    
O16   Ba2   2.907137 S    
C58   C66   1.404524 A    
C60   C62   1.415454 A    
C21   C22   1.333847 D    
C75   C76   1.526799 S    
C14   H33   1.110080 S    
C17   C25   1.423815 A    
C72   H68   1.110546 S    
C40   C44   1.361412 D    
C53   C59   1.408155 A    
C10   C67   1.538846 S    
C17   O25   1.221954 D    
P4    Ba2   3.364649 S    
P7    O22   1.749018 S    
C25   C26   1.402540 A    
C38   O28   1.222283 D    
C31   C47   1.428015 A    
C22   C23   1.507026 S    
C45   C46   1.423404 A    
C73   H74   1.096575 S    
Ba1   O13   2.799961 S    
Ba1   Ba2   4.656906 S    
C10   H21   1.110156 S    
C3    H5    1.109730 S    
C57   H52   1.080070 S    
C35   C39   1.418842 A    
O6    C10   1.407439 S    
N2    C44   1.463764 S    
C12   H26   1.106823 S    
C72   H66   1.111168 S    
C5    H9    1.107145 S    
C76   H77   1.110231 S    
