data_mof_unit_16971.cif
_audit_creation_date              2012-10-26T20:42:28-0400
_audit_creation_method            fapswitch 2.2
_symmetry_space_group_name_H-M    P1
_symmetry_Int_Tables_number       1
_space_group_crystal_system       triclinic
_cell_length_a                    10.829449
_cell_length_b                    9.510431
_cell_length_c                    10.933055
_cell_angle_alpha                 89.925185
_cell_angle_beta                  90.310851
_cell_angle_gamma                 90.024468
_cell_volume                      1126.00752288

loop_
_atom_site_label
_atom_site_type_symbol
_atom_type_description
_atom_site_fract_x
_atom_site_fract_y
_atom_site_fract_z
_atom_type_partial_charge
C1    C     C_R   0.262030 0.499928 0.499655 0.549532
C2    C     C_R   0.936111 0.372636 0.509193 -0.149060
C3    C     C_R   0.871761 0.499955 0.499768 0.018124
C4    C     C_R   0.128183 0.499876 0.499256 0.017718
C5    C     C_R   0.936093 0.627232 0.489985 -0.145801
C6    C     C_R   0.063825 0.627207 0.489812 -0.144179
C7    C     C_R   0.422909 0.074551 0.423994 0.003496
C8    C     C_R   0.577339 0.074381 0.575732 0.000791
C9    C     C_R   0.422885 0.925653 0.424021 0.008778
C10   C     C_R   0.577239 0.925499 0.575835 0.006411
C11   C     C_3   0.458628 0.244124 0.894419 -0.220808
C12   C     C_R   0.737954 0.499966 0.500054 0.543944
C13   C     C_3   0.415527 0.145189 0.997243 -0.313527
C14   C     C_3   0.349984 0.016144 0.945089 -0.459071
C15   C     C_3   0.660143 0.311916 0.112484 -0.233518
C16   C     C_3   0.771546 0.403987 0.146845 -0.288255
C17   C     C_3   0.880686 0.314359 0.188753 -0.452290
C18   C     C_R   0.501574 0.499730 0.265425 0.548001
C19   C     C_R   0.501919 0.499448 0.735144 0.549567
C20   C     C_2   0.512289 0.383933 0.938565 -0.028890
C21   C     C_2   0.552068 0.400004 0.066218 -0.014035
C22   C     C_2   0.521632 0.499111 0.866748 -0.130867
C23   C     C_2   0.493101 0.497014 0.133823 -0.114654
C24   C     C_R   0.063831 0.372548 0.508614 -0.148430
Cu1   Cu    Cu3+1 0.500000 0.640660 0.500000 0.925205
Cu2   Cu    Cu3+1 0.500000 0.359340 0.500000 0.912093
H1    H     H_    0.553809 0.597702 0.906092 0.087720
H2    H     H_    0.639113 0.869289 0.636558 0.105175
H3    H     H_    0.266519 0.048166 0.892565 0.152224
H4    H     H_    0.413010 0.956731 0.884159 0.158078
H5    H     H_    0.321053 0.946106 0.021045 0.138644
H6    H     H_    0.495640 0.107963 0.051949 0.155866
H7    H     H_    0.350962 0.201832 0.058677 0.167859
H8    H     H_    0.376133 0.266586 0.836609 0.169845
H9    H     H_    0.528821 0.188972 0.838407 0.151159
H10   H     H_    0.854596 0.249781 0.269279 0.159268
H11   H     H_    0.910949 0.243948 0.113744 0.143242
H12   H     H_    0.425987 0.567459 0.091916 0.077811
H13   H     H_    0.959039 0.383627 0.215018 0.152206
H14   H     H_    0.799777 0.467486 0.066261 0.156524
H15   H     H_    0.747230 0.477176 0.221916 0.173494
H16   H     H_    0.632336 0.245386 0.191063 0.169197
H17   H     H_    0.689741 0.238644 0.039031 0.132654
H18   H     H_    0.111895 0.273018 0.516051 0.125671
H19   H     H_    0.888033 0.273176 0.517030 0.122145
H20   H     H_    0.888006 0.726722 0.482318 0.125327
H21   H     H_    0.111898 0.726698 0.482083 0.124127
H22   H     H_    0.361237 0.130796 0.363072 0.105100
H23   H     H_    0.639464 0.130491 0.636176 0.099742
H24   H     H_    0.361128 0.869558 0.363177 0.104149
N1    N     N_R   0.500000 0.852070 0.500000 -0.222218
N2    N     N_R   0.500000 0.147940 0.500000 -0.225570
O1    O     O_R   0.319640 0.618740 0.499990 -0.506901
O2    O     O_R   0.680360 0.618740 0.500010 -0.510106
O3    O     O_R   0.319620 0.381170 0.499990 -0.509617
O4    O     O_R   0.680380 0.381170 0.500010 -0.509755
O5    O     O_R   0.500000 0.618750 0.321940 -0.503830
O6    O     O_R   0.500000 0.618750 0.678060 -0.499899
O7    O     O_R   0.499970 0.381180 0.321940 -0.503057
O8    O     O_R   0.500030 0.381180 0.678060 -0.506545

loop_
_geom_bond_atom_site_label_1
_geom_bond_atom_site_label_2
_ccdc_geom_bond_type
Cu1   N1    S    
C13   H7    S    
C17   H10   S    
Cu2   N2    S    
C19   O8    A    
C23   H12   S    
Cu2   O7    S    
C8    N2    A    
C13   H6    S    
C9    N1    A    
C14   H5    S    
C1    C4    S    
Cu2   O3    S    
C20   C21   S    
C11   H9    S    
C2    C3    A    
C1    O3    A    
C15   H17   S    
C19   O6    A    
C17   H11   S    
C13   C14   S    
C7    H22   S    
C11   C13   S    
C12   O4    A    
Cu1   O5    S    
C18   O7    A    
C14   H4    S    
C4    C24   A    
C10   N1    A    
C16   H15   S    
C8    C10   A    
C20   C22   D    
C7    N2    A    
C22   H1    S    
C21   C23   D    
C2    H19   S    
C2    C24   A    
C5    C6    A    
C24   H18   S    
C11   C20   S    
C6    H21   S    
C14   H3    S    
C18   C23   S    
C16   H14   S    
C15   C21   S    
C19   C22   S    
Cu1   O2    S    
C4    C6    A    
Cu1   O6    S    
C5    H20   S    
C10   H2    S    
C7    C9    A    
C17   H13   S    
C1    O1    A    
C3    C12   S    
C18   O5    A    
Cu1   Cu2   S    
Cu2   O8    S    
C8    H23   S    
C11   H8    S    
C12   O2    A    
C9    H24   S    
C15   C16   S    
C15   H16   S    
Cu1   O1    S    
C16   C17   S    
C3    C5    A    
Cu2   O4    S    
