data_mof_unit_38070.cif
_audit_creation_date              2012-12-10T19:24:29-0500
_audit_creation_method            fapswitch 2.2
_symmetry_space_group_name_H-M    P1
_symmetry_Int_Tables_number       1
_space_group_crystal_system       triclinic
_cell_length_a                    17.719403
_cell_length_b                    16.44287
_cell_length_c                    10.800536
_cell_angle_alpha                 89.973727
_cell_angle_beta                  90.103674
_cell_angle_gamma                 90.057932
_cell_volume                      3146.81375159

loop_
_atom_site_label
_atom_site_type_symbol
_atom_type_description
_atom_site_fract_x
_atom_site_fract_y
_atom_site_fract_z
_atom_type_partial_charge
C1    C     C_R   0.355233 0.499995 0.499840 0.768635
C2    C     C_R   0.644768 0.500052 0.500151 0.770203
C3    C     C_R   0.885571 0.500663 0.500523 0.149318
C4    C     C_R   0.114436 0.500660 0.499356 0.149512
C5    C     C_1   0.966170 0.500835 0.500125 -0.068208
C6    C     C_1   0.033838 0.500841 0.499737 -0.068465
C7    C     C_R   0.547186 0.829042 0.580188 0.328102
C8    C     C_R   0.453625 0.171300 0.416796 0.306488
C9    C     C_R   0.453178 0.828482 0.417306 0.325385
C10   C     C_R   0.546290 0.170816 0.581425 0.293499
C11   C     C_R   0.544471 0.743123 0.581213 -0.034493
C12   C     C_R   0.453787 0.257391 0.420872 -0.042686
C13   C     C_R   0.455750 0.742574 0.417862 -0.034462
C14   C     C_R   0.546274 0.256943 0.578509 -0.049699
C15   C     C_R   0.500095 0.873055 0.498551 -0.100744
C16   C     C_R   0.499854 0.126977 0.498894 -0.064061
C17   C     C_1   0.499995 0.962790 0.498189 0.047723
C18   C     C_1   0.499915 0.037288 0.498272 0.080080
C19   C     C_R   0.500020 0.499998 0.262465 0.805517
C20   C     C_R   0.499908 0.499958 0.737539 0.806079
C21   C     C_R   0.368601 0.550702 0.128608 -0.159466
C22   C     C_R   0.630954 0.448193 0.871429 -0.165189
C23   C     C_R   0.368378 0.550242 0.870832 -0.145770
C24   C     C_R   0.631155 0.448592 0.129181 -0.150251
C25   C     C_R   0.304449 0.575211 0.063897 -0.138839
C26   C     C_R   0.694929 0.423172 0.936143 -0.140902
C27   C     C_R   0.304320 0.574927 0.935255 -0.135363
C28   C     C_R   0.695042 0.423407 0.064772 -0.139301
C29   C     C_R   0.434556 0.525749 0.934669 0.072700
C30   C     C_R   0.565120 0.473542 0.065345 0.070372
C31   C     C_R   0.434640 0.525898 0.065052 0.072413
C32   C     C_R   0.565041 0.473408 0.934968 0.068804
C33   C     C_R   0.499847 0.499769 0.871098 -0.187730
C34   C     C_R   0.499966 0.499928 0.128914 -0.187250
C35   C     C_R   0.846260 0.574239 0.496156 -0.156804
C36   C     C_R   0.153400 0.426868 0.494765 -0.158579
C37   C     C_R   0.153908 0.574217 0.503888 -0.160749
C38   C     C_R   0.846445 0.426878 0.504993 -0.161639
C39   C     C_R   0.767611 0.574095 0.496028 -0.186634
C40   C     C_R   0.232066 0.426514 0.494844 -0.190676
C41   C     C_R   0.232554 0.574038 0.504063 -0.209157
C42   C     C_R   0.767780 0.426560 0.504957 -0.210316
C43   C     C_R   0.727695 0.500221 0.500396 -0.041946
C44   C     C_R   0.272308 0.500148 0.499571 -0.041751
Cu1   Cu    Cu3+1 0.500000 0.580420 0.500000 0.933110
Cu2   Cu    Cu3+1 0.500000 0.419580 0.500000 0.929609
H1    H     H_    0.744970 0.404467 0.114951 0.138078
H2    H     H_    0.254266 0.593482 0.885076 0.137226
H3    H     H_    0.744758 0.404030 0.886197 0.137869
H4    H     H_    0.254514 0.594023 0.113856 0.136288
H5    H     H_    0.876356 0.631604 0.492670 0.130077
H6    H     H_    0.122991 0.369703 0.491198 0.130849
H7    H     H_    0.123941 0.631588 0.507473 0.130763
H8    H     H_    0.876726 0.369696 0.508436 0.131533
H9    H     H_    0.738160 0.631681 0.492137 0.148537
H10   H     H_    0.261267 0.368734 0.491155 0.153349
H11   H     H_    0.262127 0.631611 0.508095 0.149335
H12   H     H_    0.738456 0.368783 0.508550 0.155228
H13   H     H_    0.579062 0.709800 0.646392 0.153497
H14   H     H_    0.416930 0.291258 0.359966 0.145940
H15   H     H_    0.421435 0.708799 0.352768 0.152175
H16   H     H_    0.583554 0.290369 0.639536 0.146092
N1    N     N_R   0.500000 0.701220 0.500000 -0.217490
N2    N     N_R   0.500000 0.298780 0.500000 -0.208127
O1    O     O_R   0.391260 0.567930 0.500000 -0.592663
O2    O     O_R   0.608740 0.432070 0.500000 -0.589108
O3    O     O_R   0.608740 0.567930 0.500000 -0.580468
O4    O     O_R   0.391260 0.432070 0.500000 -0.578313
O5    O     O_R   0.500000 0.567910 0.319660 -0.574333
O6    O     O_R   0.500000 0.432090 0.680340 -0.580006
O7    O     O_R   0.500000 0.567910 0.680340 -0.575787
O8    O     O_R   0.500000 0.432090 0.319660 -0.581842
H17   H     H_    0.365473 0.550946 0.228578 0.127453
H18   H     H_    0.634122 0.447980 0.771467 0.130071
H19   H     H_    0.365081 0.550082 0.770859 0.134249
H20   H     H_    0.634475 0.448732 0.229148 0.136202
O9    O     O_3   0.593037 0.869153 0.664096 -0.608832
C45   C     C_3   0.662195 0.890082 0.606668 0.078075
H21   H     H_    0.682799 0.947082 0.650377 0.178256
H22   H     H_    0.656583 0.903461 0.505641 0.132329
C46   C     C_3   0.721091 0.823291 0.627944 -0.374247
H23   H     H_    0.726360 0.810923 0.728773 0.233343
H24   H     H_    0.702813 0.766524 0.581115 0.203090
C47   C     C_3   0.798035 0.847913 0.576968 -0.916000
H25   H     H_    0.794191 0.859473 0.475808 0.256597
H26   H     H_    0.839113 0.798033 0.593073 0.254230
H27   H     H_    0.818818 0.903602 0.624248 0.257747
O10   O     O_3   0.405875 0.130558 0.336460 -0.611578
C48   C     C_3   0.432653 0.137397 0.213305 0.056720
H28   H     H_    0.441008 0.074843 0.177030 0.179467
H29   H     H_    0.488054 0.169483 0.203969 0.127276
C49   C     C_3   0.373568 0.180383 0.133237 -0.332369
H30   H     H_    0.319587 0.145976 0.136983 0.227175
H31   H     H_    0.363354 0.242524 0.169736 0.210867
C50   C     C_3   0.399225 0.186894 0.998738 -0.930320
H32   H     H_    0.452810 0.221798 0.992571 0.257284
H33   H     H_    0.355498 0.218980 0.943560 0.261903
H34   H     H_    0.407604 0.125352 0.958783 0.252338
O11   O     O_3   0.408451 0.867948 0.331148 -0.604068
C51   C     C_3   0.338589 0.889218 0.385654 0.089711
H35   H     H_    0.318134 0.945112 0.338526 0.186913
H36   H     H_    0.343209 0.904684 0.486091 0.127978
C52   C     C_3   0.280314 0.821410 0.366072 -0.381086
H37   H     H_    0.276507 0.806508 0.265876 0.233628
H38   H     H_    0.298178 0.765984 0.416861 0.201314
C53   C     C_3   0.202558 0.846556 0.412731 -0.917294
H39   H     H_    0.204956 0.860662 0.513240 0.256463
H40   H     H_    0.161987 0.795923 0.398106 0.253678
H41   H     H_    0.182117 0.900826 0.361436 0.258814
O12   O     O_3   0.595511 0.129669 0.658569 -0.610144
C54   C     C_3   0.566777 0.131514 0.780346 0.054370
H42   H     H_    0.509205 0.104085 0.783559 0.149952
H43   H     H_    0.564419 0.195128 0.815706 0.137743
C55   C     C_3   0.618892 0.082144 0.864423 -0.300342
H44   H     H_    0.621463 0.018361 0.830746 0.242120
H45   H     H_    0.676713 0.108350 0.861245 0.216819
C56   C     C_3   0.591150 0.082236 0.998032 -0.935716
H46   H     H_    0.588198 0.145428 0.033998 0.252122
H47   H     H_    0.630802 0.046933 0.056819 0.261342
H48   H     H_    0.534510 0.053578 0.003704 0.259239

loop_
_geom_bond_atom_site_label_1
_geom_bond_atom_site_label_2
_ccdc_geom_bond_type
C27   H2    S    
C30   C32   A    
C4    C36   A    
C28   H1    S    
C29   C33   A    
Cu1   O7    S    
C54   H42   S    
C47   H27   S    
C42   H12   S    
C55   H44   S    
C50   H34   S    
O9    C45   S    
C7    C11   A    
C21   C31   A    
C22   C32   A    
C23   C29   A    
C47   H26   S    
C38   C42   A    
C11   N1    A    
C56   H47   S    
C5    C6    T    
C12   N2    A    
C45   H22   S    
C53   H39   S    
C14   H16   S    
C21   H17   S    
C1    O4    A    
C9    C13   A    
C25   H4    S    
C49   H30   S    
O12   C54   S    
C39   H9    S    
C50   H32   S    
C3    C38   A    
C40   H10   S    
C38   H8    S    
Cu1   O3    S    
C1    O1    A    
C20   O7    A    
C23   C27   A    
C48   H29   S    
Cu2   O8    S    
C36   H6    S    
C7    O9    S    
C37   H7    S    
C7    C15   A    
C8    C16   A    
C20   O6    A    
C19   O8    A    
C11   H13   S    
C51   H36   S    
C46   H24   S    
C46   H23   S    
C30   C34   A    
Cu1   O5    S    
C36   C40   A    
C47   H25   S    
C52   H38   S    
C2    O3    A    
C10   C14   A    
C56   H48   S    
C45   H21   S    
C24   H20   S    
C39   C43   A    
C3    C5    S    
Cu1   Cu2   S    
Cu1   N1    S    
C49   C50   S    
Cu2   N2    S    
C8    O10   S    
C52   C53   S    
C35   C39   A    
Cu2   O4    S    
C1    C44   S    
O11   C51   S    
C13   N1    A    
C3    C35   A    
C2    C43   S    
C8    C12   A    
C14   N2    A    
C49   H31   S    
C17   C18   T    
C31   C34   A    
C54   H43   S    
O10   C48   S    
C48   C49   S    
C20   C33   S    
C4    C6    S    
Cu1   O1    S    
C41   C44   A    
C26   H3    S    
C42   C43   A    
C22   H18   S    
C46   C47   S    
C15   C17   S    
C21   C25   A    
C24   C28   A    
C23   H19   S    
C2    O2    A    
C19   C34   S    
C55   H45   S    
C50   H33   S    
Cu2   O2    S    
C25   C27   A    
C9    O11   S    
C26   C28   A    
C32   C33   A    
C9    C15   A    
C41   H11   S    
C29   C31   A    
C10   C16   A    
C56   H46   S    
C35   H5    S    
C45   C46   S    
C53   H40   S    
C51   H35   S    
C10   O12   S    
C54   C55   S    
C51   C52   S    
C37   C41   A    
C24   C30   A    
Cu2   O6    S    
C55   C56   S    
C19   O5    A    
C12   H14   S    
C40   C44   A    
C13   H15   S    
C4    C37   A    
C16   C18   S    
C22   C26   A    
C52   H37   S    
C48   H28   S    
C53   H41   S    
