data_mof_unit_49034.cif
_audit_creation_date              2012-12-10T18:52:18-0500
_audit_creation_method            fapswitch 2.2
_symmetry_space_group_name_H-M    P1
_symmetry_Int_Tables_number       1
_space_group_crystal_system       triclinic
_cell_length_a                    15.724744
_cell_length_b                    10.657413
_cell_length_c                    9.847327
_cell_angle_alpha                 90.513941
_cell_angle_beta                  90.145332
_cell_angle_gamma                 90.069926
_cell_volume                      1650.19221878

loop_
_atom_site_label
_atom_site_type_symbol
_atom_type_description
_atom_site_fract_x
_atom_site_fract_y
_atom_site_fract_z
_atom_type_partial_charge
C1    C     C_R   0.499751 0.260357 0.499156 0.975726
C2    C     C_R   0.453318 0.413884 0.070943 -0.086849
C3    C     C_R   0.337866 0.499877 0.499824 0.918187
C4    C     C_R   0.662134 0.500123 0.500176 0.918189
C5    C     C_3   0.972087 0.419817 0.596616 -0.316174
C6    C     C_3   0.027913 0.580182 0.403384 -0.316185
C7    C     C_3   0.027608 0.381752 0.472708 -0.314864
C8    C     C_3   0.972392 0.618247 0.527292 -0.314875
C9    C     C_1   0.248967 0.499548 0.499431 -0.146800
C10   C     C_1   0.751033 0.500452 0.500568 -0.146802
C11   C     C_3   0.028213 0.536601 0.620001 0.643431
C12   C     C_R   0.500249 0.739643 0.500845 0.975723
C13   C     C_3   0.971787 0.463398 0.379999 0.643430
C14   C     C_3   0.082840 0.499259 0.498432 0.046302
C15   C     C_3   0.917160 0.500740 0.501568 0.046302
C16   C     C_1   0.173686 0.499322 0.498986 0.024940
C17   C     C_1   0.826314 0.500677 0.501014 0.024939
C18   C     C_R   0.562120 0.064830 0.424309 0.477903
C19   C     C_R   0.437882 0.935171 0.575696 0.477900
C20   C     C_3   0.999441 0.395265 0.162451 -0.305799
C21   C     C_3   0.000560 0.604763 0.837539 -0.305814
C22   C     C_3   0.607920 0.131622 0.217646 -0.231889
C23   C     C_R   0.565404 0.935215 0.430974 -0.184223
C24   C     C_3   0.392083 0.868382 0.782358 -0.231900
C25   C     C_1   0.636395 0.868402 0.370558 0.225299
C26   C     C_1   0.363602 0.131597 0.629434 0.225310
C27   C     C_R   0.434597 0.064785 0.569028 -0.184232
C28   C     C_R   0.501658 0.872143 0.502882 -0.275964
C29   C     C_R   0.498344 0.127857 0.497121 -0.275960
C30   C     C_R   0.546722 0.586127 0.072895 -0.060717
C31   C     C_R   0.453278 0.413873 0.927105 -0.060712
C32   C     C_R   0.546682 0.586116 0.929057 -0.086861
H1    H     H_    0.052240 0.286460 0.449178 0.166501
H2    H     H_    0.041088 0.477383 0.142235 0.156231
H3    H     H_    0.969467 0.367118 0.064730 0.194864
H4    H     H_    0.958882 0.522671 0.857734 0.156232
H5    H     H_    0.962152 0.685637 0.801863 0.163622
H6    H     H_    0.030534 0.632878 0.935270 0.194855
H7    H     H_    0.649695 0.201953 0.168933 0.197312
H8    H     H_    0.540972 0.158238 0.194651 0.147319
H9    H     H_    0.622279 0.038898 0.170869 0.148311
H10   H     H_    0.459007 0.841635 0.805350 0.147401
H11   H     H_    0.350241 0.798149 0.831095 0.197303
H12   H     H_    0.947760 0.713539 0.550820 0.166497
H13   H     H_    0.377815 0.961146 0.829121 0.148243
H14   H     H_    0.947261 0.356183 0.675907 0.163724
H15   H     H_    0.052739 0.643817 0.324094 0.163722
H16   H     H_    0.584124 0.654975 0.128092 0.140173
H17   H     H_    0.415876 0.345025 0.871907 0.140168
H18   H     H_    0.584027 0.654978 0.875391 0.125623
H19   H     H_    0.415973 0.345022 0.124609 0.125629
H20   H     H_    0.037879 0.314423 0.198127 0.163611
N1    N     N_R   0.499980 0.499970 0.857200 -0.081684
N2    N     N_R   0.500020 0.500030 0.142800 -0.081687
N3    N     N_1   0.693049 0.815003 0.322546 -0.216666
N4    N     N_1   0.306945 0.184996 0.677439 -0.216655
O1    O     O_R   0.499990 0.316750 0.614620 -0.630058
O2    O     O_3   0.065314 0.574217 0.744453 -0.596373
O3    O     O_3   0.625317 0.131689 0.358496 -0.595027
O4    O     O_3   0.374683 0.868316 0.641507 -0.595017
O5    O     O_R   0.500010 0.683250 0.385380 -0.630052
O6    O     O_R   0.500000 0.316780 0.385290 -0.615063
O7    O     O_R   0.500000 0.683220 0.614710 -0.615080
O8    O     O_R   0.376780 0.499970 0.614640 -0.596552
O9    O     O_R   0.623220 0.500030 0.385360 -0.596557
O10   O     O_R   0.376780 0.500000 0.385310 -0.627488
O11   O     O_R   0.623220 0.500000 0.614690 -0.627486
O12   O     O_3   0.934686 0.425777 0.255548 -0.596374
Zn1   Zn    Zn3+2 0.500000 0.499980 0.653120 0.966759
Zn2   Zn    Zn3+2 0.500000 0.500020 0.346880 0.966760

loop_
_geom_bond_atom_site_label_1
_geom_bond_atom_site_label_2
_ccdc_geom_bond_type
O5    Zn2   S    
C4    O11   A    
C8    H12   S    
C3    C9    S    
C1    O1    A    
C19   O4    S    
C6    C14   S    
C11   O2    S    
C19   C27   A    
C5    H14   S    
C18   O3    S    
C18   C23   A    
N2    Zn2   S    
C24   O4    S    
C20   H2    S    
C1    O6    A    
C12   O7    A    
C23   C25   S    
O8    Zn1   S    
C22   H8    S    
C21   O2    S    
C20   H20   S    
C18   C29   A    
C3    O8    A    
C31   N1    A    
C6    C13   S    
C30   C32   A    
C19   C28   A    
C30   N2    A    
C32   H18   S    
C26   C27   S    
O10   Zn2   S    
C31   H17   S    
C8    C11   S    
C24   H13   S    
C30   H16   S    
C6    H15   S    
C9    C16   T    
C12   C28   S    
C5    C11   S    
C8    C15   S    
C13   C15   S    
C4    O9    A    
C12   O5    A    
C11   C14   S    
C14   C16   S    
C5    C15   S    
C3    O10   A    
C27   C29   A    
C2    H19   S    
C7    H1    S    
C10   C17   T    
C4    C10   S    
O9    Zn2   S    
C22   H9    S    
O7    Zn1   S    
C32   N1    A    
C7    C13   S    
C24   H10   S    
O6    Zn2   S    
C21   H5    S    
C15   C17   S    
C2    N2    A    
C22   O3    S    
C5    C7    S    
C24   H11   S    
C6    C8    S    
C1    C29   S    
O1    Zn1   S    
N1    Zn1   S    
C23   C28   A    
C20   H3    S    
C22   H7    S    
C21   H4    S    
C20   O12   S    
C7    C14   S    
C21   H6    S    
C25   N3    T    
C2    C31   A    
O11   Zn1   S    
C13   O12   S    
C26   N4    T    
