data_mof_unit_64492.cif
_audit_creation_date              2012-12-10T19:58:47-0500
_audit_creation_method            fapswitch 2.2
_symmetry_space_group_name_H-M    P1
_symmetry_Int_Tables_number       1
_space_group_crystal_system       triclinic
_cell_length_a                    14.955484
_cell_length_b                    14.155339
_cell_length_c                    19.308184
_cell_angle_alpha                 89.997477
_cell_angle_beta                  90.003384
_cell_angle_gamma                 89.994607
_cell_volume                      4087.54147959

loop_
_atom_site_label
_atom_site_type_symbol
_atom_type_description
_atom_site_fract_x
_atom_site_fract_y
_atom_site_fract_z
_atom_type_partial_charge
C1    C     C_R   0.328121 0.500004 0.499985 0.883927
C2    C     C_R   0.951952 0.499861 0.499949 0.084681
C3    C     C_R   0.460024 0.105237 0.445861 -0.271041
C4    C     C_R   0.570671 0.894794 0.529872 -0.271500
C5    C     C_R   0.539972 0.105223 0.554141 -0.271018
C6    C     C_R   0.429327 0.894811 0.470129 -0.271558
C7    C     C_R   0.460512 0.204536 0.447001 0.026677
C8    C     C_R   0.569188 0.795491 0.529516 0.026286
C9    C     C_R   0.539485 0.204522 0.553000 0.026625
C10   C     C_R   0.430811 0.795508 0.470485 0.026173
C11   C     C_R   0.499998 0.053382 0.500001 0.137003
C12   C     C_R   0.671879 0.499996 0.499994 0.883920
C13   C     C_R   0.499999 0.946653 0.500001 0.136392
C14   C     C_R   0.499954 0.499991 0.365677 0.878158
C15   C     C_R   0.500058 0.499987 0.634325 0.878493
C16   C     C_R   0.503365 0.413941 0.745650 -0.173086
C17   C     C_R   0.503972 0.585745 0.254248 -0.174665
C18   C     C_R   0.495556 0.414031 0.254358 -0.173263
C19   C     C_R   0.497434 0.585787 0.745768 -0.174473
C20   C     C_R   0.503467 0.413957 0.817378 -0.149569
C21   C     C_R   0.503949 0.585552 0.182522 -0.151005
C22   C     C_R   0.495593 0.414052 0.182633 -0.149319
C23   C     C_R   0.186140 0.541605 0.555653 -0.024339
C24   C     C_R   0.497565 0.585576 0.817498 -0.150818
C25   C     C_R   0.500531 0.499717 0.852909 0.136263
C26   C     C_R   0.499816 0.499757 0.147059 0.135735
C27   C     C_R   0.500279 0.499914 0.709513 -0.030710
C28   C     C_R   0.499820 0.499931 0.290494 -0.031318
C29   C     C_R   0.580813 0.516170 0.963860 -0.048223
C30   C     C_R   0.419561 0.483100 0.035994 -0.049123
C31   C     C_R   0.580656 0.516149 0.036234 -0.049181
C32   C     C_R   0.419771 0.483037 0.963620 -0.048280
C33   C     C_R   0.500012 0.499660 0.071855 -0.044966
C34   C     C_R   0.813831 0.458301 0.555679 -0.020503
C35   C     C_R   0.500380 0.499613 0.928052 -0.045918
C36   C     C_R   0.093627 0.540872 0.555393 -0.202086
C37   C     C_R   0.906348 0.458936 0.555411 -0.199550
C38   C     C_R   0.906342 0.540817 0.444500 -0.202143
C39   C     C_R   0.093679 0.458944 0.444506 -0.199613
C40   C     C_1   0.663418 0.532252 0.926146 0.184903
C41   C     C_1   0.336808 0.467449 0.073615 0.183349
C42   C     C_1   0.663223 0.531810 0.074104 0.184926
C43   C     C_1   0.337349 0.466943 0.925661 0.186255
C44   C     C_1   0.232243 0.583050 0.614094 0.170453
C45   C     C_R   0.813828 0.541547 0.444260 -0.024761
C46   C     C_1   0.767682 0.416771 0.614071 0.161379
C47   C     C_1   0.767696 0.582956 0.385812 0.170009
C48   C     C_1   0.232374 0.416770 0.385882 0.160973
C49   C     C_R   0.186198 0.458312 0.444258 -0.020920
C50   C     C_R   0.232327 0.499999 0.499955 -0.117011
C51   C     C_R   0.767672 0.499973 0.499986 -0.116997
C52   C     C_R   0.048046 0.499881 0.499950 0.084688
H1    H     H_    0.505776 0.346911 0.718661 0.155842
H2    H     H_    0.943079 0.427233 0.597945 0.148680
H3    H     H_    0.943066 0.572467 0.401947 0.147735
H4    H     H_    0.056970 0.427221 0.401973 0.148644
H5    H     H_    0.429567 0.069678 0.402234 0.137950
H6    H     H_    0.627591 0.930353 0.552588 0.138956
H7    H     H_    0.570428 0.069652 0.597768 0.137951
H8    H     H_    0.372407 0.930384 0.447414 0.138896
H9    H     H_    0.429419 0.243358 0.405181 0.133856
H10   H     H_    0.623795 0.756704 0.552762 0.131521
H11   H     H_    0.570576 0.243333 0.594820 0.133909
H12   H     H_    0.507393 0.652784 0.281156 0.163676
H13   H     H_    0.376203 0.756733 0.447240 0.131308
H14   H     H_    0.492117 0.347048 0.281347 0.155884
H15   H     H_    0.494956 0.652881 0.718868 0.163336
H16   H     H_    0.505831 0.347577 0.845264 0.138232
H17   H     H_    0.507163 0.651842 0.154572 0.139086
H18   H     H_    0.492413 0.347693 0.154772 0.138209
H19   H     H_    0.495239 0.651880 0.845480 0.139109
H20   H     H_    0.056881 0.572538 0.597929 0.147765
N1    N     N_R   0.500000 0.252470 0.500000 -0.096239
N2    N     N_1   0.269440 0.383606 0.339217 -0.206212
N3    N     N_R   0.500000 0.747530 0.500000 -0.095568
N4    N     N_1   0.729202 0.545055 0.896015 -0.183163
N5    N     N_1   0.270907 0.454980 0.103669 -0.180437
N6    N     N_1   0.728976 0.544287 0.104357 -0.179283
N7    N     N_1   0.271712 0.454131 0.895335 -0.181663
N8    N     N_1   0.269246 0.616124 0.660823 -0.193377
N9    N     N_1   0.730633 0.383616 0.660747 -0.208263
N10   N     N_1   0.730675 0.616000 0.339075 -0.191375
O1    O     O_R   0.369060 0.579480 0.500010 -0.624082
O2    O     O_R   0.630940 0.420520 0.499990 -0.610297
O3    O     O_R   0.630940 0.579480 0.499990 -0.624028
O4    O     O_R   0.369060 0.420520 0.500010 -0.610159
O5    O     O_R   0.500020 0.579510 0.398180 -0.621219
O6    O     O_R   0.499980 0.420490 0.601820 -0.630754
O7    O     O_R   0.499980 0.579510 0.601820 -0.621074
O8    O     O_R   0.500020 0.420490 0.398180 -0.630843
Zn1   Zn    Zn3+2 0.500000 0.606140 0.500000 0.962137
Zn2   Zn    Zn3+2 0.500000 0.393860 0.500000 0.965044

loop_
_geom_bond_atom_site_label_1
_geom_bond_atom_site_label_2
_ccdc_geom_bond_type
C21   C26   A    
C31   C42   S    
O5    Zn1   S    
C34   C37   A    
C4    C8    A    
O3    Zn1   S    
C7    N1    A    
C34   C51   A    
C12   O3    A    
C14   O5    A    
C5    C11   A    
C3    C7    A    
C17   H12   S    
C41   N5    T    
C20   C25   A    
C45   C51   A    
C43   N7    T    
C23   C36   A    
C12   O2    A    
C47   N10   T    
C4    C13   A    
C16   H1    S    
C14   O8    A    
C38   C45   A    
C15   C27   S    
C7    H9    S    
C38   H3    S    
O6    Zn2   S    
C31   C33   A    
C30   C41   S    
C19   H15   S    
C34   C46   S    
O7    Zn1   S    
C19   C27   A    
C1    C50   S    
C36   C52   A    
N3    Zn1   S    
C16   C27   A    
C39   C52   A    
C9    H11   S    
C9    N1    A    
C45   C47   S    
C5    H7    S    
C32   C35   A    
C6    H8    S    
C44   N8    T    
C18   C28   A    
C24   C25   A    
C23   C50   A    
C8    N3    A    
C17   C21   A    
C23   C44   S    
C40   N4    T    
C21   H17   S    
C5    C9    A    
C48   N2    T    
C15   O7    A    
C46   N9    T    
C10   N3    A    
C2    C38   A    
C26   C33   S    
O8    Zn2   S    
C39   H4    S    
C16   C20   A    
C2    C52   S    
C25   C35   S    
C37   H2    S    
C3    H5    S    
C48   C49   S    
C39   C49   A    
C42   N6    T    
C18   H14   S    
C12   C51   S    
C10   H13   S    
C1    O4    A    
C30   C33   A    
C18   C22   A    
C17   C28   A    
C20   H16   S    
N1    Zn2   S    
C6    C10   A    
C1    O1    A    
O1    Zn1   S    
C29   C35   A    
C19   C24   A    
C29   C31   A    
O4    Zn2   S    
C6    C13   A    
C30   C32   A    
C11   C13   S    
C2    C37   A    
C29   C40   S    
C32   C43   S    
C3    C11   A    
C49   C50   A    
C22   C26   A    
C4    H6    S    
O2    Zn2   S    
C14   C28   S    
C22   H18   S    
C36   H20   S    
C24   H19   S    
C8    H10   S    
C15   O6    A    
