data_mof_unit_65553.cif
_audit_creation_date              2013-03-05T15:48:00-0500
_audit_creation_method            fapswitch 2.2
_symmetry_space_group_name_H-M    P1
_symmetry_Int_Tables_number       1
_space_group_crystal_system       triclinic
_cell_length_a                    38.300076
_cell_length_b                    21.800487
_cell_length_c                    21.827046
_cell_angle_alpha                 89.999545
_cell_angle_beta                  123.432538
_cell_angle_gamma                 90.000553
_cell_volume                      15209.1663247

loop_
_atom_site_label
_atom_site_type_symbol
_atom_site_description
_atom_site_fract_x
_atom_site_fract_y
_atom_site_fract_z
_atom_type_partial_charge
O1    O     O_R   0.000000 0.052190 0.590160 -0.578683
O2    O     O_R   0.000000 0.052190 0.409840 -0.578637
O3    O     O_R   0.500000 0.552190 0.590160 -0.578661
O4    O     O_R   0.500000 0.552190 0.409840 -0.578669
O5    O     O_R   0.000010 0.947820 0.590100 -0.588873
O6    O     O_R   0.999990 0.947820 0.409900 -0.588887
O7    O     O_R   0.500010 0.447820 0.590100 -0.588875
O8    O     O_R   0.499990 0.447820 0.409900 -0.588872
C1    C     C_R   0.999830 0.999972 0.618721 0.811126
C2    C     C_R   0.000169 0.999974 0.381277 0.811188
C3    C     C_R   0.499830 0.499973 0.618722 0.811159
C4    C     C_R   0.500170 0.499973 0.381278 0.811148
O9    O     O_R   0.939540 0.052180 0.439540 -0.576954
O10   O     O_R   0.060460 0.052180 0.560460 -0.576885
O11   O     O_R   0.439540 0.552180 0.439540 -0.576924
O12   O     O_R   0.560460 0.552180 0.560460 -0.576934
O13   O     O_R   0.939550 0.947820 0.439470 -0.572575
O14   O     O_R   0.060450 0.947820 0.560530 -0.572556
O15   O     O_R   0.439550 0.447820 0.439470 -0.572563
O16   O     O_R   0.560450 0.447820 0.560530 -0.572568
C5    C     C_R   0.919933 0.000081 0.418165 0.848146
C6    C     C_R   0.080066 0.000082 0.581842 0.848229
C7    C     C_R   0.419934 0.500081 0.418162 0.848187
C8    C     C_R   0.580067 0.500082 0.581837 0.848172
Cu1   Cu    Cu3+1 1.000000 0.061800 0.500000 0.996726
Cu2   Cu    Cu3+1 0.500000 0.561800 0.500000 0.996707
Cu3   Cu    Cu3+1 1.000000 0.938210 0.500000 1.024623
Cu4   Cu    Cu3+1 0.500000 0.438210 0.500000 1.024637
C9    C     C_3   0.735101 0.046951 0.267249 -0.184341
C10   C     C_3   0.264888 0.047222 0.733126 -0.184392
C11   C     C_3   0.235106 0.547072 0.267081 -0.184371
C12   C     C_3   0.764897 0.547026 0.732853 -0.184351
C13   C     C_3   0.762441 0.993462 0.316856 0.027466
C14   C     C_3   0.237550 0.993912 0.683108 0.027504
C15   C     C_3   0.262445 0.493663 0.316872 0.027484
C16   C     C_3   0.737557 0.493586 0.683135 0.027478
H1    H     H_    0.722655 0.085064 0.283610 0.161483
H2    H     H_    0.277327 0.085563 0.717057 0.161462
H3    H     H_    0.222663 0.585288 0.283311 0.161470
H4    H     H_    0.777341 0.585202 0.716572 0.161482
H5    H     H_    0.723221 0.902757 0.261958 0.151567
H6    H     H_    0.276781 0.903084 0.737288 0.151578
H7    H     H_    0.223220 0.402902 0.262296 0.151578
H8    H     H_    0.776779 0.402847 0.737837 0.151567
C17   C     C_1   0.874988 0.000404 0.372280 -0.133851
C18   C     C_1   0.125011 0.000406 0.627743 -0.133816
C19   C     C_1   0.374988 0.500404 0.372270 -0.133837
C20   C     C_1   0.625012 0.500405 0.627726 -0.133843
C21   C     C_1   0.625038 0.000150 0.122944 -0.159760
C22   C     C_1   0.374961 0.000144 0.877055 -0.159759
C23   C     C_1   0.125039 0.500147 0.122945 -0.159761
C24   C     C_1   0.874961 0.500149 0.877055 -0.159759
C25   C     C_3   0.764320 0.053919 0.239069 -0.178011
C26   C     C_3   0.235676 0.053735 0.761374 -0.178141
C27   C     C_3   0.264322 0.553836 0.238871 -0.178071
C28   C     C_3   0.735679 0.553870 0.761051 -0.178048
C29   C     C_3   0.791286 0.000460 0.289041 0.119599
C30   C     C_3   0.208713 0.000461 0.710991 0.119603
C31   C     C_3   0.291286 0.500460 0.289027 0.119600
C32   C     C_3   0.708714 0.500462 0.710968 0.119600
C33   C     C_3   0.737092 0.007424 0.176620 -0.142206
C34   C     C_3   0.262912 0.006961 0.823456 -0.142201
C35   C     C_3   0.237090 0.507216 0.176585 -0.142203
C36   C     C_3   0.762909 0.507299 0.823401 -0.142205
C37   C     C_3   0.708668 0.000337 0.205586 0.170356
C38   C     C_3   0.291331 0.000329 0.794422 0.170358
C39   C     C_3   0.208668 0.500332 0.205582 0.170356
C40   C     C_3   0.791332 0.500336 0.794416 0.170355
C41   C     C_3   0.764625 0.953959 0.227200 -0.184045
C42   C     C_3   0.235381 0.953681 0.772464 -0.183986
C43   C     C_3   0.264622 0.453833 0.227351 -0.184019
C44   C     C_3   0.735376 0.453884 0.772709 -0.184029
C45   C     C_3   0.735412 0.946751 0.255358 -0.197456
C46   C     C_3   0.264589 0.946929 0.744238 -0.197396
C47   C     C_3   0.235411 0.446830 0.255539 -0.197422
C48   C     C_3   0.764588 0.446801 0.744533 -0.197444
C49   C     C_1   0.837244 0.000526 0.334491 -0.005454
C50   C     C_1   0.162755 0.000527 0.665542 -0.005555
C51   C     C_1   0.337245 0.500526 0.334476 -0.005498
C52   C     C_1   0.662756 0.500527 0.665518 -0.005479
C53   C     C_1   0.662775 0.000242 0.159900 -0.037214
C54   C     C_1   0.337224 0.000234 0.840101 -0.037218
C55   C     C_1   0.162775 0.500238 0.159899 -0.037215
C56   C     C_1   0.837225 0.500241 0.840100 -0.037214
H9    H     H_    0.777083 0.915771 0.210979 0.146616
H10   H     H_    0.222931 0.915267 0.788393 0.146658
H11   H     H_    0.277077 0.415544 0.211261 0.146638
H12   H     H_    0.722919 0.415635 0.788850 0.146627
H13   H     H_    0.726124 0.013201 0.118109 0.136668
H14   H     H_    0.273886 0.012359 0.882014 0.136682
H15   H     H_    0.226120 0.512823 0.118053 0.136674
H16   H     H_    0.773878 0.512973 0.881925 0.136672
H17   H     H_    0.776519 0.097957 0.232619 0.146654
H18   H     H_    0.223475 0.097624 0.768174 0.146584
H19   H     H_    0.276522 0.597807 0.232263 0.146620
H20   H     H_    0.723480 0.597867 0.767596 0.146637
H21   H     H_    0.096593 0.158354 0.788487 0.136572
H22   H     H_    0.903390 0.158336 0.211495 0.136570
H23   H     H_    0.596600 0.658346 0.788493 0.136571
H24   H     H_    0.403404 0.658350 0.211508 0.136569
C57   C     C_R   0.944767 0.916323 0.639903 -0.059075
C58   C     C_R   0.055257 0.916368 0.360123 -0.059094
C59   C     C_R   0.444758 0.416342 0.639893 -0.059085
C60   C     C_R   0.555239 0.416337 0.360105 -0.059079
C61   C     C_R   0.932580 0.863071 0.659617 -0.248794
C62   C     C_R   0.067451 0.863115 0.340423 -0.248700
C63   C     C_R   0.432568 0.363088 0.659601 -0.248741
C64   C     C_R   0.567428 0.363084 0.340395 -0.248772
C65   C     C_R   0.945255 0.852671 0.732143 0.360521
C66   C     C_R   0.054770 0.852696 0.267897 0.360498
C67   C     C_R   0.445245 0.352680 0.732127 0.360503
C68   C     C_R   0.554751 0.352678 0.267869 0.360518
C69   C     C_R   0.968131 0.898316 0.784128 -0.228085
C70   C     C_R   0.031882 0.898326 0.215896 -0.228075
C71   C     C_R   0.468126 0.398320 0.784118 -0.228080
C72   C     C_R   0.531872 0.398319 0.215880 -0.228083
C73   C     C_R   0.981850 0.951416 0.765966 0.002472
C74   C     C_R   0.018156 0.951425 0.234044 0.002450
C75   C     C_R   0.481847 0.451419 0.765962 0.002463
C76   C     C_R   0.518151 0.451419 0.234037 0.002467
C77   C     C_R   0.975159 0.956428 0.695866 0.016723
C78   C     C_R   0.024850 0.956447 0.304146 0.016694
C79   C     C_R   0.475155 0.456435 0.695861 0.016710
C80   C     C_R   0.524843 0.456434 0.304138 0.016715
C81   C     C_R   0.001837 0.999694 0.816587 -0.146526
C82   C     C_R   0.998162 0.999694 0.183413 -0.146542
C83   C     C_R   0.501837 0.499694 0.816587 -0.146533
C84   C     C_R   0.498163 0.499694 0.183413 -0.146530
C85   C     C_R   0.023055 0.046287 0.804879 0.069681
C86   C     C_R   0.976938 0.046283 0.195114 0.069691
C87   C     C_R   0.523058 0.546285 0.804882 0.069685
C88   C     C_R   0.476943 0.546286 0.195119 0.069684
C89   C     C_R   0.025483 0.042804 0.742781 0.071476
C90   C     C_R   0.974512 0.042801 0.257213 0.071466
C91   C     C_R   0.525485 0.542803 0.742784 0.071471
C92   C     C_R   0.474516 0.542804 0.257217 0.071474
C93   C     C_R   0.999457 0.000254 0.685796 -0.154796
C94   C     C_R   0.000543 0.000260 0.314204 -0.154746
C95   C     C_R   0.499457 0.500256 0.685796 -0.154777
C96   C     C_R   0.500544 0.500257 0.314204 -0.154784
C97   C     C_R   0.043175 0.095360 0.855104 -0.154575
C98   C     C_R   0.956812 0.095350 0.144882 -0.154573
C99   C     C_R   0.543181 0.595356 0.855110 -0.154576
C100  C     C_R   0.456822 0.595358 0.144891 -0.154575
C101  C     C_R   0.068755 0.136103 0.848129 -0.126363
C102  C     C_R   0.931229 0.136088 0.151852 -0.126369
C103  C     C_R   0.568762 0.636097 0.848136 -0.126366
C104  C     C_R   0.431242 0.636100 0.151865 -0.126365
C105  C     C_R   0.075305 0.128263 0.792095 -0.136896
C106  C     C_R   0.924681 0.128249 0.207889 -0.136882
C107  C     C_R   0.575311 0.628258 0.792101 -0.136889
C108  C     C_R   0.424692 0.628260 0.207900 -0.136893
C109  C     C_R   0.054296 0.081988 0.740252 -0.147242
C110  C     C_R   0.945696 0.081980 0.259740 -0.147257
C111  C     C_R   0.554299 0.581985 0.740255 -0.147251
C112  C     C_R   0.445703 0.581987 0.259746 -0.147247
H25   H     H_    0.910859 0.831318 0.617534 0.219894
H26   H     H_    0.089182 0.831377 0.382517 0.219923
H27   H     H_    0.410842 0.331341 0.617514 0.219911
H28   H     H_    0.589153 0.331335 0.382482 0.219900
H29   H     H_    0.975834 0.891511 0.839314 0.164775
H30   H     H_    0.024175 0.891511 0.160709 0.164781
H31   H     H_    0.475830 0.391510 0.839305 0.164777
H32   H     H_    0.524167 0.391510 0.160692 0.164776
H33   H     H_    0.039776 0.102528 0.900578 0.139108
H34   H     H_    0.960210 0.102519 0.099406 0.139126
H35   H     H_    0.539782 0.602525 0.900584 0.139116
H36   H     H_    0.460221 0.602526 0.099417 0.139113
H37   H     H_    0.084445 0.172819 0.887530 0.139245
H38   H     H_    0.915535 0.172799 0.112446 0.139243
H39   H     H_    0.584453 0.672811 0.887539 0.139245
H40   H     H_    0.415551 0.672815 0.112463 0.139242
H41   H     H_    0.061839 0.077039 0.699624 0.143528
H42   H     H_    0.938157 0.077033 0.300372 0.143520
H43   H     H_    0.561841 0.577036 0.699626 0.143526
H44   H     H_    0.438161 0.577038 0.300375 0.143528
O17   O     O_R   0.500000 0.090290 0.052120 -0.574159
O18   O     O_R   0.500000 0.090290 0.947880 -0.574149
O19   O     O_R   1.000000 0.590290 0.052120 -0.574160
O20   O     O_R   0.000000 0.590290 0.947880 -0.574152
C113  C     C_R   0.500000 0.118721 1.000000 0.779445
C114  C     C_R   1.000000 0.618721 1.000000 0.779444
O21   O     O_R   0.560470 0.000120 0.112600 -0.569082
O22   O     O_R   0.439530 0.000120 0.887400 -0.569071
O23   O     O_R   0.060470 0.500120 0.112600 -0.569079
O24   O     O_R   0.939530 0.500120 0.887400 -0.569078
O25   O     O_R   0.560470 0.000020 0.008230 -0.587688
O26   O     O_R   0.439530 0.000020 0.991770 -0.587693
O27   O     O_R   0.060470 0.500020 0.008230 -0.587689
O28   O     O_R   0.939530 0.500020 0.991770 -0.587691
C115  C     C_R   0.580108 0.000066 0.079431 0.800925
C116  C     C_R   0.419892 0.000064 0.920569 0.800924
C117  C     C_R   0.080108 0.500065 0.079431 0.800924
C118  C     C_R   0.919892 0.500065 0.920569 0.800926
Cu5   Cu    Cu3+1 0.500000 0.000140 0.061760 0.983999
Cu6   Cu    Cu3+1 0.500000 0.000140 0.938240 0.984016
Cu7   Cu    Cu3+1 0.000000 0.500140 0.061760 0.984001
Cu8   Cu    Cu3+1 0.000000 0.500140 0.938240 0.984008
O29   O     O_R   0.500000 0.909980 0.052170 -0.585494
O30   O     O_R   0.500000 0.909980 0.947830 -0.585492
O31   O     O_R   0.000000 0.409980 0.052170 -0.585492
O32   O     O_R   0.000000 0.409980 0.947830 -0.585492
C119  C     C_R   0.500000 0.881479 0.000000 0.775526
C120  C     C_R   0.000000 0.381479 0.000000 0.775528
O33   O     O_R   0.035010 0.090130 0.035030 -0.589220
O34   O     O_R   0.964990 0.090130 0.964970 -0.589224
O35   O     O_R   0.535010 0.590130 0.035030 -0.589221
O36   O     O_R   0.464990 0.590130 0.964970 -0.589223
C121  C     C_R   0.000000 0.118818 0.000000 0.767605
C122  C     C_R   0.500000 0.618819 0.000000 0.767604
O37   O     O_R   0.035000 0.999980 0.944780 -0.594042
O38   O     O_R   0.965000 0.999980 0.055220 -0.594047
O39   O     O_R   0.535000 0.499980 0.944780 -0.594044
O40   O     O_R   0.465000 0.499980 0.055220 -0.594044
O41   O     O_R   0.965010 0.000000 0.874800 -0.574913
O42   O     O_R   0.034990 0.000000 0.125200 -0.574918
O43   O     O_R   0.465010 0.500000 0.874800 -0.574914
O44   O     O_R   0.534990 0.500000 0.125200 -0.574915
C123  C     C_R   0.000521 0.000895 0.881809 0.772213
C124  C     C_R   0.999479 0.000894 0.118191 0.772213
C125  C     C_R   0.500521 0.500895 0.881809 0.772211
C126  C     C_R   0.499479 0.500895 0.118191 0.772214
Cu9   Cu    Cu3+1 0.041440 0.999980 0.041400 0.967897
Cu10  Cu    Cu3+1 0.958560 0.999980 0.958600 0.967904
Cu11  Cu    Cu3+1 0.541440 0.499980 0.041400 0.967902
Cu12  Cu    Cu3+1 0.458560 0.499980 0.958600 0.967902
O45   O     O_R   0.034990 0.909820 0.034880 -0.577221
O46   O     O_R   0.965010 0.909820 0.965120 -0.577204
O47   O     O_R   0.534990 0.409820 0.034880 -0.577212
O48   O     O_R   0.465010 0.409820 0.965120 -0.577212
C127  C     C_R   1.000000 0.881121 1.000000 0.772454
C128  C     C_R   0.500000 0.381121 1.000000 0.772454
H45   H     H_    0.391613 0.194355 0.035371 0.137050
H46   H     H_    0.608386 0.194360 0.964624 0.137039
H47   H     H_    0.891614 0.694356 0.035375 0.137042
H48   H     H_    0.108386 0.694360 0.964624 0.137043
C129  C     C_R   0.560171 0.187043 0.986289 -0.124042
C130  C     C_R   0.439828 0.187041 0.013707 -0.124039
C131  C     C_R   0.060171 0.687043 0.986289 -0.124044
C132  C     C_R   0.939829 0.687041 0.013709 -0.124042
C133  C     C_R   0.585047 0.218668 0.968566 -0.129119
C134  C     C_R   0.414951 0.218664 0.031430 -0.129117
C135  C     C_R   0.085047 0.718668 0.968566 -0.129118
C136  C     C_R   0.914953 0.718665 0.031434 -0.129122
C137  C     C_R   0.079447 0.781214 0.954757 -0.126693
C138  C     C_R   0.920554 0.781211 0.045245 -0.126689
C139  C     C_R   0.579446 0.281214 0.954755 -0.126689
C140  C     C_R   0.420552 0.281210 0.045240 -0.126689
C141  C     C_R   0.050557 0.812901 0.962555 -0.122901
C142  C     C_R   0.949444 0.812899 0.037447 -0.122881
C143  C     C_R   0.550556 0.312901 0.962553 -0.122900
C144  C     C_R   0.449442 0.312899 0.037443 -0.122888
C145  C     C_R   0.026386 0.782217 0.984311 0.116976
C146  C     C_R   0.973614 0.782216 0.015689 0.116982
C147  C     C_R   0.526386 0.282217 0.984310 0.116975
C148  C     C_R   0.473613 0.282216 0.015687 0.116988
C149  C     C_R   0.528814 0.217727 0.990313 0.099542
C150  C     C_R   0.471185 0.217726 0.009684 0.099546
C151  C     C_R   0.028814 0.717727 0.990313 0.099540
C152  C     C_R   0.971186 0.717726 0.009686 0.099546
C153  C     C_R   0.000000 0.814277 0.000000 -0.127726
C154  C     C_R   0.500000 0.314277 0.999999 -0.127718
C155  C     C_R   0.500000 0.185637 0.999999 -0.153807
C156  C     C_R   1.000000 0.685637 0.999999 -0.153809
H49   H     H_    0.566231 0.138576 0.997287 0.143135
H50   H     H_    0.433768 0.138573 0.002709 0.143141
H51   H     H_    0.066231 0.638576 0.997287 0.143139
H52   H     H_    0.933768 0.638574 0.002711 0.143137
H53   H     H_    0.097991 0.805498 0.939005 0.137765
H54   H     H_    0.902010 0.805493 0.060998 0.137761
H55   H     H_    0.597990 0.305498 0.939003 0.137762
H56   H     H_    0.402008 0.305493 0.060992 0.137764
H57   H     H_    0.047355 0.861407 0.950617 0.138303
H58   H     H_    0.952648 0.861405 0.049386 0.138296
H59   H     H_    0.547353 0.361407 0.950615 0.138300
H60   H     H_    0.452645 0.361405 0.049382 0.138299
H61   H     H_    0.604128 0.804969 0.247730 0.149362
H62   H     H_    0.395872 0.804970 0.752271 0.149270
H63   H     H_    0.104129 0.304969 0.247729 0.149328
H64   H     H_    0.895871 0.304970 0.752272 0.149334
C157  C     C_R   0.441838 0.812581 0.868223 -0.140891
C158  C     C_R   0.558162 0.812581 0.131778 -0.140899
C159  C     C_R   0.941838 0.312582 0.868224 -0.140894
C160  C     C_R   0.058162 0.312582 0.131778 -0.140900
C161  C     C_R   0.418586 0.780863 0.802050 -0.135124
C162  C     C_R   0.581414 0.780863 0.197951 -0.135074
C163  C     C_R   0.918585 0.280863 0.802050 -0.135092
C164  C     C_R   0.081415 0.280863 0.197951 -0.135087
C165  C     C_R   0.925034 0.218504 0.799685 -0.126156
C166  C     C_R   0.074966 0.218503 0.200316 -0.126146
C167  C     C_R   0.425035 0.718503 0.799685 -0.126152
C168  C     C_R   0.574965 0.718503 0.200316 -0.126152
C169  C     C_R   0.952964 0.186999 0.864178 -0.144797
C170  C     C_R   0.047036 0.186998 0.135822 -0.144800
C171  C     C_R   0.452965 0.686999 0.864178 -0.144793
C172  C     C_R   0.547036 0.686998 0.135823 -0.144801
C173  C     C_R   0.975255 0.217730 0.932823 0.067114
C174  C     C_R   0.024745 0.217729 0.067178 0.067117
C175  C     C_R   0.475255 0.717730 0.932823 0.067114
C176  C     C_R   0.524745 0.717730 0.067178 0.067115
C177  C     C_R   0.472400 0.782192 0.933863 0.071124
C178  C     C_R   0.527600 0.782191 0.066138 0.071115
C179  C     C_R   0.972400 0.282192 0.933863 0.071118
C180  C     C_R   0.027600 0.282191 0.066138 0.071119
C181  C     C_R   0.000000 0.185676 0.000000 -0.191359
C182  C     C_R   0.500000 0.685676 0.000000 -0.191360
C183  C     C_R   0.500000 0.814418 0.000000 -0.186945
C184  C     C_R   1.000000 0.314418 0.000000 -0.186943
H65   H     H_    0.435072 0.860824 0.866958 0.150488
H66   H     H_    0.564928 0.860824 0.133044 0.150510
H67   H     H_    0.935071 0.360824 0.866958 0.150502
H68   H     H_    0.064928 0.360824 0.133043 0.150501
H69   H     H_    0.907825 0.194200 0.747896 0.150145
H70   H     H_    0.092175 0.194198 0.252105 0.150149
H71   H     H_    0.407826 0.694199 0.747896 0.150133
H72   H     H_    0.592174 0.694198 0.252105 0.150154
H73   H     H_    0.956930 0.138592 0.859134 0.146941
H74   H     H_    0.043070 0.138590 0.140866 0.146943
H75   H     H_    0.456931 0.638592 0.859135 0.146939
H76   H     H_    0.543070 0.638590 0.140866 0.146943
C185  C     C_2   0.775080 0.985615 0.394677 0.838098
O49   O     O_2   0.748141 0.979904 0.407950 -0.576350
O50   O     O_R   0.817353 0.984948 0.451561 -0.737643
H77   H     H_    0.821804 0.979176 0.501494 0.349778
C186  C     C_2   0.224896 0.986574 0.605220 0.838002
O51   O     O_2   0.251828 0.981222 0.591877 -0.576257
O52   O     O_R   0.182619 0.985960 0.548354 -0.737429
H78   H     H_    0.178158 0.980549 0.498370 0.349853
C187  C     C_2   0.275091 0.486044 0.394724 0.838054
O53   O     O_2   0.248155 0.480491 0.408028 -0.576307
O54   O     O_R   0.317366 0.485404 0.451600 -0.737546
H79   H     H_    0.321821 0.479793 0.501556 0.349812
C188  C     C_2   0.724914 0.485877 0.605295 0.838073
O55   O     O_2   0.751851 0.480268 0.592003 -0.576327
O56   O     O_R   0.682640 0.485220 0.548417 -0.737589
H80   H     H_    0.678186 0.479546 0.498470 0.349799
N1    N     N_R   0.932454 0.797995 0.751798 0.136033
O57   O     O_R   0.941449 0.790460 0.818159 -0.374295
O58   O     O_R   0.912105 0.754811 0.703706 -0.338030
N2    N     N_R   0.067577 0.798019 0.248256 0.136044
O59   O     O_R   0.058545 0.790446 0.181876 -0.374288
O60   O     O_R   0.087966 0.754870 0.296379 -0.338035
N3    N     N_R   0.432443 0.298003 0.751777 0.136040
O61   O     O_R   0.441445 0.290459 0.818141 -0.374283
O62   O     O_R   0.412086 0.254827 0.703677 -0.337985
N4    N     N_R   0.567553 0.298002 0.248219 0.136036
O63   O     O_R   0.558543 0.290452 0.181850 -0.374300
O64   O     O_R   0.587918 0.254831 0.296322 -0.338054
C189  C     C_2   0.918394 0.933761 0.561519 0.888835
O65   O     O_2   0.910657 0.987790 0.544239 -0.588667
O66   O     O_R   0.899404 0.887990 0.507834 -0.748154
H81   H     H_    0.878687 0.904779 0.457026 0.348667
C190  C     C_2   0.081639 0.933846 0.438494 0.888771
O67   O     O_2   0.089334 0.987888 0.455736 -0.588650
O68   O     O_R   0.100692 0.888106 0.492208 -0.748249
H82   H     H_    0.121421 0.904930 0.542991 0.348447
C191  C     C_2   0.418380 0.433797 0.561515 0.888805
O69   O     O_2   0.410661 0.487831 0.544251 -0.588664
O70   O     O_R   0.399361 0.388039 0.507817 -0.748189
H83   H     H_    0.378639 0.404845 0.457020 0.348568
C192  C     C_2   0.581615 0.433786 0.438485 0.888816
O71   O     O_2   0.589341 0.487818 0.455754 -0.588662
O72   O     O_R   0.600622 0.388023 0.492179 -0.748182
H84   H     H_    0.621343 0.404822 0.542980 0.348609

loop_
_geom_bond_atom_site_label_1
_geom_bond_atom_site_label_2
_geom_bond_distance
_ccdc_geom_bond_type
C88   C100  1.417493 A    
C147  C149  1.410317 A    
C141  C145  1.419294 A    
C191  O69   1.222400 D    
C27   C31   1.540539 S    
C98   C102  1.391503 A    
Cu9   Cu10  2.649713 S    
C92   C96   1.426512 A    
C36   C44   1.551321 S    
C59   C79   1.429898 A    
C122  C182  1.457517 S    
N1    O57   1.301487 A    
C100  C104  1.391506 A    
C188  O55   1.222032 D    
C89   C93   1.426513 A    
C131  C151  1.419055 A    
C170  C174  1.418843 A    
C148  C154  1.417185 A    
C32   C44   1.540630 S    
C176  C182  1.416065 A    
C109  H41   1.078783 S    
C132  C136  1.392437 A    
C10   H2    1.110282 S    
C167  H71   1.082576 S    
C24   C56   1.206215 T    
C68   N4    1.441150 S    
O40   C126  1.278047 A    
C102  C106  1.387843 A    
C108  C112  1.393682 A    
C146  C153  1.417182 A    
C33   H13   1.110045 S    
C42   C46   1.553071 S    
O35   C122  1.282191 A    
C163  C165  1.387767 A    
C107  C111  1.393683 A    
O4    C4    1.299623 A    
Cu5   O29   1.976648 S    
C152  C156  1.417433 A    
O43   Cu12  1.975993 S    
C133  C139  1.387387 A    
C86   C90   1.410815 A    
Cu10  O46   1.976325 S    
C190  O68   1.399522 S    
O20   C114  1.295515 A    
H7    C47   1.110290 S    
O50   H77   1.013914 S    
N2    O59   1.301485 A    
C10   C14   1.542481 S    
C30   C42   1.540627 S    
C171  C175  1.418843 A    
O16   Cu4   1.944008 S    
O33   Cu9   1.976035 S    
C165  C169  1.392236 A    
O7    Cu4   1.977539 S    
O13   Cu3   1.944010 S    
C11   C39   1.538725 S    
O6    C2    1.299140 A    
C38   C54   1.467144 S    
O68   H82   1.011825 S    
C168  C172  1.392233 A    
O37   Cu9   1.983741 S    
O9    C5    1.298266 A    
O48   C128  1.281690 A    
C85   C89   1.410808 A    
C13   C45   1.542489 S    
C35   C43   1.551322 S    
O8    Cu4   1.977533 S    
C23   C55   1.206215 T    
C87   C99   1.417492 A    
H22   C106  1.082609 S    
C145  C153  1.417183 A    
O17   Cu5   1.976544 S    
C149  C155  1.417429 A    
O3    Cu2   1.979043 S    
C157  H65   1.079875 S    
C138  H54   1.082579 S    
C169  H73   1.080417 S    
C75   C79   1.409502 A    
C171  H75   1.080417 S    
C172  H76   1.080418 S    
C29   C49   1.469120 S    
H64   C163  1.082581 S    
C13   C185  1.497605 S    
C67   N3    1.441145 S    
C142  H58   1.079782 S    
C71   H31   1.080933 S    
C83   C87   1.409371 A    
O3    C3    1.299619 A    
C158  C178  1.419082 A    
C69   H29   1.080930 S    
Cu5   Cu6   2.696077 S    
C81   C85   1.409365 A    
C185  O49   1.222037 D    
C57   C189  1.479068 S    
O70   H83   1.011827 S    
C14   C30   1.533412 S    
C131  C135  1.392438 A    
C2    C94   1.471970 S    
O23   Cu7   1.939931 S    
O46   C127  1.281693 A    
C140  C144  1.392128 A    
O28   Cu7   1.949108 S    
O45   C127  1.281692 A    
C39   C55   1.467137 S    
C189  O65   1.222401 D    
H62   C161  1.082581 S    
C9    C13   1.542477 S    
C132  H52   1.080058 S    
O66   H81   1.011827 S    
H24   C108  1.082608 S    
C10   C26   1.553145 S    
C34   C42   1.551325 S    
C128  C154  1.457232 S    
C12   C16   1.542475 S    
C129  H49   1.080058 S    
O47   C128  1.281695 A    
Cu9   O45   1.976322 S    
C177  C183  1.418962 A    
C38   C46   1.538800 S    
C79   C95   1.432651 A    
C74   C78   1.409495 A    
C77   C93   1.432664 A    
H8    C48   1.110291 S    
C15   C187  1.497606 S    
C105  C109  1.393681 A    
O36   Cu12  1.976032 S    
O5    Cu3   1.977539 S    
C25   C33   1.551314 S    
C58   C190  1.479107 S    
O34   Cu10  1.976032 S    
C27   C35   1.551316 S    
Cu8   O32   1.976645 S    
C28   C36   1.551316 S    
C119  C183  1.461962 S    
C66   C70   1.396388 A    
O8    C4    1.299132 A    
O56   H80   1.013905 S    
C187  O54   1.395729 S    
O39   C125  1.278047 A    
C173  C181  1.416064 A    
C5    C17   1.437580 S    
C7    C19   1.437574 S    
C34   C38   1.538598 S    
C8    C20   1.437578 S    
C130  H50   1.080057 S    
O20   Cu8   1.976547 S    
C23   C117  1.436118 S    
Cu12  O48   1.976325 S    
O18   Cu6   1.976547 S    
C134  C140  1.387388 A    
C72   C76   1.415194 A    
C164  C166  1.387766 A    
C103  C107  1.387841 A    
O5    C1    1.299128 A    
C33   C37   1.538595 S    
C98   H34   1.081181 S    
N4    O64   1.301590 A    
C97   C101  1.391501 A    
C88   C92   1.410810 A    
O22   C116  1.299954 A    
C10   C38   1.538732 S    
O15   Cu4   1.944010 S    
C144  H60   1.079782 S    
C99   H35   1.081180 S    
C9    C37   1.538721 S    
C71   C75   1.415192 A    
N3    O62   1.301591 A    
C69   C73   1.415197 A    
C39   C47   1.538795 S    
C35   H15   1.110047 S    
C68   C72   1.396381 A    
C41   H9    1.110073 S    
O38   Cu10  1.983745 S    
C137  C141  1.392131 A    
C32   C52   1.469120 S    
C165  H69   1.082576 S    
C166  C170  1.392236 A    
C63   C67   1.395084 A    
O24   C118  1.299953 A    
O42   C124  1.282302 A    
C168  H72   1.082577 S    
C59   C63   1.404317 A    
C179  C184  1.418961 A    
C60   C80   1.429903 A    
C139  C143  1.392130 A    
C40   C48   1.538793 S    
O37   C123  1.278048 A    
C161  C167  1.387765 A    
C97   H33   1.081183 S    
C162  C168  1.387768 A    
O26   C116  1.301129 A    
O10   C6    1.298262 A    
C121  C181  1.457520 S    
O17   C113  1.295508 A    
C136  C138  1.387387 A    
C141  H57   1.079779 S    
Cu7   Cu8   2.696077 S    
C86   C98   1.417493 A    
O39   Cu11  1.983741 S    
C174  C181  1.416064 A    
H5    C45   1.110290 S    
O27   C117  1.301129 A    
H45   C134  1.082573 S    
C180  C184  1.418959 A    
H21   C105  1.082607 S    
C17   C49   1.206739 T    
C73   C81   1.408024 A    
C170  H74   1.080417 S    
C75   C83   1.408023 A    
C142  C146  1.419293 A    
O25   Cu6   1.949102 S    
O41   Cu10  1.975993 S    
C190  O67   1.222400 D    
C192  O72   1.399527 S    
C14   C186  1.497617 S    
O32   C120  1.297203 A    
H48   C135  1.082574 S    
N2    O60   1.301589 A    
C138  C142  1.392129 A    
C159  H67   1.079875 S    
C70   H30   1.080936 S    
C85   C97   1.417493 A    
C82   C86   1.409378 A    
C33   C41   1.551322 S    
C15   C31   1.533415 S    
C21   C53   1.206212 T    
C3    C95   1.471977 S    
C61   C65   1.395073 A    
C1    C93   1.471983 S    
C61   H25   1.083055 S    
O26   Cu5   1.949108 S    
C82   C124  1.452227 S    
O21   Cu5   1.939931 S    
O72   H84   1.011824 S    
C4    C96   1.471979 S    
C41   C45   1.553075 S    
C22   C116  1.436127 S    
C44   C48   1.553075 S    
O19   C114  1.295507 A    
C127  C153  1.457230 S    
C191  O70   1.399526 S    
O14   C6    1.301463 A    
O29   C119  1.297202 A    
N1    O58   1.301591 A    
C176  C178  1.410698 A    
C188  O56   1.395725 S    
C157  C161  1.392861 A    
C101  H37   1.082563 S    
H6    C46   1.110290 S    
C159  C163  1.392861 A    
C40   C56   1.467134 S    
C104  C108  1.387841 A    
C160  C164  1.392862 A    
O1    C1    1.299628 A    
C78   C94   1.432634 A    
O43   C125  1.282300 A    
C151  C156  1.417430 A    
C31   C51   1.469120 S    
C18   C50   1.206735 T    
C25   C29   1.540543 S    
C26   C34   1.551317 S    
C120  C184  1.461962 S    
O22   Cu6   1.939932 S    
C178  C183  1.418961 A    
C57   C77   1.429909 A    
C28   C32   1.540539 S    
O7    C3    1.299135 A    
O54   H79   1.013913 S    
O41   C123  1.282295 A    
C139  H55   1.082580 S    
C145  C151  1.410316 A    
C143  C147  1.419289 A    
C140  H56   1.082579 S    
C146  C152  1.410316 A    
C173  C179  1.410697 A    
C131  H51   1.080057 S    
C132  C152  1.419056 A    
C14   C46   1.542489 S    
C43   H11   1.110072 S    
C6    C18   1.437572 S    
C129  C149  1.419057 A    
C11   C15   1.542477 S    
C21   C115  1.436111 S    
C36   H16   1.110044 S    
C36   C40   1.538601 S    
C60   C64   1.404316 A    
C22   C54   1.206218 T    
H61   C162  1.082579 S    
C111  H43   1.078783 S    
C28   H20   1.110073 S    
C112  H44   1.078782 S    
C80   C96   1.432656 A    
C59   C191  1.479085 S    
O4    Cu2   1.979051 S    
C76   C84   1.408023 A    
C129  C133  1.392441 A    
O38   C124  1.278045 A    
C91   C95   1.426511 A    
O42   Cu9   1.975996 S    
O52   H78   1.013916 S    
C90   C110  1.420456 A    
C60   C192  1.479077 S    
O2    Cu1   1.979051 S    
O10   Cu1   1.944311 S    
C169  C173  1.418843 A    
C186  O51   1.222032 D    
Cu11  O47   1.976322 S    
H47   C136  1.082575 S    
O18   C113  1.295513 A    
C30   C50   1.469116 S    
C64   C68   1.395078 A    
C172  C176  1.418843 A    
C9    H1    1.110282 S    
C166  H70   1.082576 S    
C167  C171  1.392236 A    
O24   Cu8   1.939932 S    
C11   C27   1.553147 S    
C58   C78   1.429889 A    
C12   C28   1.553151 S    
C101  C105  1.387842 A    
O13   C5    1.301465 A    
O27   Cu8   1.949102 S    
N3    O61   1.301487 A    
C187  O53   1.222033 D    
O15   C7    1.301464 A    
C150  C155  1.417433 A    
C19   C51   1.206738 T    
Cu6   O30   1.976645 S    
C160  H68   1.079873 S    
C91   C111  1.420459 A    
C99   C103  1.391505 A    
C15   C47   1.542488 S    
C100  H36   1.081180 S    
C89   C109  1.420464 A    
C143  H59   1.079782 S    
C87   C91   1.410812 A    
C92   C112  1.420462 A    
C160  C180  1.419082 A    
C37   C45   1.538792 S    
C186  O52   1.395736 S    
C73   C77   1.409510 A    
C16   C48   1.542484 S    
C62   C66   1.395093 A    
C37   C53   1.467132 S    
O35   Cu11  1.976035 S    
O16   C8    1.301463 A    
C135  C137  1.387387 A    
Cu7   O31   1.976648 S    
O44   Cu11  1.975996 S    
O25   C115  1.301128 A    
C65   C69   1.396378 A    
C12   C40   1.538722 S    
O11   C7    1.298266 A    
C189  O66   1.399527 S    
O1    Cu1   1.979043 S    
O9    Cu1   1.944309 S    
C158  H66   1.079873 S    
C44   H12   1.110070 S    
C103  H39   1.082561 S    
O44   C126  1.282294 A    
C57   C61   1.404312 A    
C35   C39   1.538599 S    
C25   H17   1.110077 S    
C24   C118  1.436118 S    
C27   H19   1.110077 S    
C84   C126  1.452216 S    
C83   C125  1.452219 S    
O11   Cu2   1.944309 S    
O19   Cu7   1.976544 S    
C185  O50   1.395722 S    
C62   H26   1.083048 S    
H23   C107  1.082609 S    
C148  C150  1.410317 A    
C137  H53   1.082574 S    
O6    Cu3   1.977533 S    
C113  C155  1.458806 S    
C147  C154  1.417183 A    
O33   C121  1.282194 A    
C114  C156  1.458808 S    
Cu11  Cu12  2.649713 S    
C174  C180  1.410700 A    
C175  C177  1.410698 A    
C70   C74   1.415187 A    
C42   H10   1.110075 S    
C81   C123  1.452215 S    
O36   C122  1.282192 A    
C158  C162  1.392861 A    
C16   C188  1.497598 S    
C102  H38   1.082564 S    
O31   C120  1.297202 A    
C65   N1    1.441145 S    
O2    C2    1.299609 A    
C157  C177  1.419082 A    
C26   C30   1.540538 S    
C159  C179  1.419081 A    
C84   C88   1.409369 A    
C13   C29   1.533421 S    
C72   H32   1.080933 S    
O14   Cu3   1.944008 S    
O23   C117  1.299955 A    
C16   C32   1.533419 S    
O12   Cu2   1.944311 S    
O21   C115  1.299953 A    
C90   C94   1.426506 A    
C63   H27   1.083052 S    
C175  C182  1.416065 A    
C64   H28   1.083053 S    
Cu1   Cu3   2.694324 S    
C192  O71   1.222399 D    
C130  C134  1.392437 A    
Cu2   Cu4   2.694324 S    
C144  C148  1.419291 A    
H63   C164  1.082579 S    
C20   C52   1.206737 T    
C43   C47   1.553073 S    
O34   C121  1.282190 A    
N4    O63   1.301485 A    
C9    C25   1.553146 S    
O30   C119  1.297203 A    
C34   H14   1.110046 S    
C104  H40   1.082562 S    
C11   H3    1.110281 S    
C130  C150  1.419056 A    
C12   H4    1.110280 S    
O40   Cu12  1.983745 S    
C26   H18   1.110077 S    
O28   C118  1.301128 A    
H46   C133  1.082573 S    
C110  H42   1.078786 S    
O12   C8    1.298265 A    
C106  C110  1.393683 A    
C58   C62   1.404322 A    
C67   C71   1.396384 A    
C74   C82   1.408023 A    
C29   C41   1.540633 S    
C66   N2    1.441151 S    
C76   C80   1.409505 A    
C31   C43   1.540631 S    
