data_mof_unit_54151.cif
_audit_creation_date              2012-12-10T17:38:59-0500
_audit_creation_method            fapswitch 2.2
_symmetry_space_group_name_H-M    P1
_symmetry_Int_Tables_number       1
_space_group_crystal_system       triclinic
_cell_length_a                    25.57605
_cell_length_b                    34.567812
_cell_length_c                    21.492362
_cell_angle_alpha                 90.061943
_cell_angle_beta                  126.595787
_cell_angle_gamma                 89.90138
_cell_volume                      15255.6036856

loop_
_atom_site_label
_atom_site_type_symbol
_atom_type_description
_atom_site_fract_x
_atom_site_fract_y
_atom_site_fract_z
_atom_type_partial_charge
C1    C     C_R   0.859777 0.749191 0.002271 0.800874
C2    C     C_R   0.141477 0.249494 0.000150 0.808626
C3    C     C_R   0.141598 0.750461 0.000571 0.803264
C4    C     C_R   0.858324 0.249133 0.999455 0.811914
C5    C     C_R   0.358596 0.250369 0.999749 0.782046
C6    C     C_R   0.641837 0.749241 0.000828 0.801402
C7    C     C_R   0.641293 0.250273 0.999867 0.802457
C8    C     C_R   0.358178 0.749414 0.999169 0.801254
C9    C     C_3   0.219283 0.714697 0.977893 -0.329800
C10   C     C_3   0.781059 0.283224 0.023489 -0.300935
C11   C     C_3   0.781925 0.712422 0.027590 -0.307137
C12   C     C_3   0.258149 0.273462 0.054003 -0.227422
C13   C     C_3   0.717602 0.214521 0.974567 -0.295247
C14   C     C_3   0.279160 0.784545 0.020192 -0.290460
C15   C     C_3   0.242788 0.224880 0.946307 -0.253117
C16   C     C_3   0.722902 0.782844 0.981847 -0.270668
C17   C     C_3   0.731945 0.241445 0.928924 0.237764
C18   C     C_3   0.268288 0.758198 0.069723 0.240942
C19   C     C_3   0.242016 0.213632 0.015277 0.212869
C20   C     C_3   0.735530 0.755729 0.934871 0.253298
C21   C     C_3   0.230700 0.740945 0.929070 0.234230
C22   C     C_3   0.767020 0.256337 0.069183 0.239687
C23   C     C_3   0.768895 0.739657 0.074191 0.231901
C24   C     C_3   0.258723 0.284792 0.985282 0.222416
C25   C     C_3   0.802046 0.247080 0.001104 -0.080622
C26   C     C_3   0.197931 0.750927 0.999394 -0.093799
C27   C     C_3   0.197671 0.248267 0.998420 -0.079702
C28   C     C_3   0.804930 0.748396 0.006777 -0.096635
C29   C     C_3   0.301005 0.748250 0.999082 -0.039287
C30   C     C_3   0.697132 0.250718 0.997541 -0.105254
C31   C     C_3   0.699536 0.747088 0.001891 -0.099523
C32   C     C_3   0.303045 0.250319 0.002255 -0.077935
C33   C     C_3   0.788571 0.220041 0.048352 0.026657
C34   C     C_3   0.208039 0.776758 0.948768 -0.030410
C35   C     C_3   0.198045 0.260098 0.929208 -0.035901
C36   C     C_3   0.793069 0.775067 0.055272 -0.000032
C37   C     C_3   0.290622 0.722031 0.049538 0.002506
C38   C     C_3   0.710244 0.277257 0.950159 -0.007978
C39   C     C_3   0.711613 0.720022 0.953857 0.004199
C40   C     C_3   0.302541 0.238307 0.070887 -0.051763
C41   C     C_R   0.688843 0.717172 0.337976 0.122853
C42   C     C_R   0.299144 0.274761 0.663444 0.130701
C43   C     C_R   0.294366 0.728181 0.664210 0.126472
C44   C     C_R   0.682563 0.281072 0.335363 0.143924
C45   C     C_R   0.195137 0.219727 0.337598 0.119376
C46   C     C_R   0.817821 0.782852 0.663542 0.148640
C47   C     C_R   0.819242 0.216065 0.664362 0.144166
C48   C     C_R   0.189624 0.781645 0.336527 0.137615
C49   C     C_R   0.650804 0.750126 0.297537 -0.134154
C50   C     C_R   0.352399 0.249546 0.704398 -0.120165
C51   C     C_R   0.350713 0.751143 0.703401 -0.114482
C52   C     C_R   0.646740 0.247946 0.295827 -0.127866
C53   C     C_R   0.150204 0.250100 0.296712 -0.130635
C54   C     C_R   0.854473 0.749928 0.704229 -0.128534
C55   C     C_R   0.852071 0.250075 0.703935 -0.132308
C56   C     C_R   0.146974 0.750605 0.296153 -0.131011
C57   C     C_R   0.657563 0.783989 0.338067 -0.088417
C58   C     C_R   0.365196 0.223043 0.665809 -0.104712
C59   C     C_R   0.359149 0.778750 0.661950 -0.095156
C60   C     C_R   0.660444 0.213086 0.336340 -0.134210
C61   C     C_R   0.148093 0.281695 0.336359 -0.094568
C62   C     C_R   0.858047 0.718335 0.665736 -0.110491
C63   C     C_R   0.842718 0.284615 0.663920 -0.111142
C64   C     C_R   0.139948 0.721074 0.335463 -0.109262
C65   C     C_R   0.706443 0.786304 0.419416 0.013327
C66   C     C_R   0.327990 0.224451 0.583721 0.012193
C67   C     C_R   0.309558 0.783308 0.581113 0.014236
C68   C     C_R   0.696452 0.214081 0.418325 0.012778
C69   C     C_R   0.191690 0.283149 0.418626 0.015067
C70   C     C_R   0.823957 0.719757 0.583793 0.013847
C71   C     C_R   0.802856 0.284720 0.581255 0.013656
C72   C     C_R   0.175089 0.722984 0.417557 0.011888
C73   C     C_R   0.743526 0.752710 0.460204 -0.010938
C74   C     C_R   0.276680 0.251986 0.542004 -0.010953
C75   C     C_R   0.262439 0.753618 0.540637 -0.013165
C76   C     C_R   0.727867 0.249086 0.458762 -0.012390
C77   C     C_R   0.236916 0.252490 0.459786 -0.010539
C78   C     C_R   0.784670 0.752622 0.542324 -0.012283
C79   C     C_R   0.769963 0.249715 0.540950 -0.012425
C80   C     C_R   0.220882 0.753437 0.458610 -0.012321
C81   C     C_R   0.738519 0.718956 0.419226 0.027964
C82   C     C_R   0.264237 0.278701 0.582241 0.028238
C83   C     C_R   0.255748 0.725025 0.582583 0.025945
C84   C     C_R   0.718885 0.283100 0.416626 0.027840
C85   C     C_R   0.242681 0.222439 0.419012 0.028929
C86   C     C_R   0.786619 0.785591 0.583009 0.022101
C87   C     C_R   0.780479 0.214933 0.582592 0.019772
C88   C     C_R   0.224296 0.784361 0.417787 0.026596
C89   C     C_R   0.106112 0.750421 0.211284 0.817761
C90   C     C_R   0.894053 0.249816 0.788769 0.825169
C91   C     C_R   0.894139 0.750290 0.788845 0.813526
C92   C     C_R   0.106378 0.249684 0.211461 0.816410
C93   C     C_R   0.604557 0.248900 0.211170 0.814254
C94   C     C_R   0.394522 0.750457 0.788505 0.805932
C95   C     C_R   0.394102 0.250115 0.788961 0.817033
C96   C     C_R   0.605977 0.750095 0.211780 0.808310
C97   C     C_R   0.720974 0.821597 0.461150 -0.074445
C98   C     C_R   0.342382 0.200445 0.542273 -0.079000
C99   C     C_R   0.302708 0.817705 0.540657 -0.078512
C100  C     C_R   0.703904 0.180474 0.460674 -0.070933
C101  C     C_R   0.191812 0.314601 0.461216 -0.075511
C102  C     C_R   0.830441 0.690567 0.542239 -0.079625
C103  C     C_R   0.794116 0.318466 0.537375 -0.076604
C104  C     C_R   0.165637 0.696013 0.460109 -0.077321
C105  C     C_R   0.760164 0.821095 0.542828 -0.062405
C106  C     C_R   0.297498 0.197194 0.460807 -0.061079
C107  C     C_R   0.259313 0.818336 0.458844 -0.063216
C108  C     C_R   0.750345 0.179914 0.541566 -0.055799
C109  C     C_R   0.220777 0.310050 0.540707 -0.065460
C110  C     C_R   0.785597 0.688914 0.460464 -0.064727
C111  C     C_R   0.748834 0.318171 0.456078 -0.048546
C112  C     C_R   0.207576 0.695989 0.541938 -0.045917
C113  C     C_R   0.941014 0.081167 0.966334 -0.068189
C114  C     C_R   0.056477 0.918476 0.018162 -0.053928
C115  C     C_R   0.057196 0.081090 0.024555 -0.067029
C116  C     C_R   0.940760 0.918690 0.963083 -0.082719
C117  C     C_R   0.447848 0.580493 0.952724 -0.045440
C118  C     C_R   0.563893 0.416968 0.041863 -0.069718
C119  C     C_R   0.565935 0.582046 0.045518 -0.049995
C120  C     C_R   0.444951 0.420067 0.951894 -0.073460
C121  C     C_R   0.999553 0.101472 0.997984 -0.118341
C122  C     C_R   0.999804 0.898486 0.996562 -0.119201
C123  C     C_R   0.505211 0.601815 0.002500 -0.136791
C124  C     C_R   0.502521 0.398303 0.999749 -0.126599
C125  C     C_R   0.054340 0.040927 0.008997 -0.028535
C126  C     C_R   0.937731 0.959043 0.948827 -0.031986
C127  C     C_R   0.938068 0.040699 0.952310 0.001307
C128  C     C_R   0.054368 0.959143 0.006675 0.002728
C129  C     C_R   0.566312 0.540883 0.050357 0.015797
C130  C     C_R   0.449290 0.459946 0.941231 -0.018335
C131  C     C_R   0.452053 0.540771 0.941738 0.006175
C132  C     C_R   0.567270 0.458323 0.045428 0.024355
C133  C     C_R   0.995959 0.020446 0.978837 -0.038591
C134  C     C_R   0.995995 0.979499 0.977881 -0.035862
C135  C     C_R   0.509248 0.520308 0.995863 -0.067501
C136  C     C_R   0.508819 0.479426 0.994590 -0.045159
C137  C     C_R   0.108324 0.020803 0.021583 0.149246
C138  C     C_R   0.877699 0.979488 0.903855 0.143207
C139  C     C_R   0.878069 0.020259 0.907992 0.166437
C140  C     C_R   0.108061 0.979987 0.019924 0.165017
C141  C     C_R   0.622936 0.519926 0.106369 0.152506
C142  C     C_R   0.396125 0.480976 0.877728 0.153846
C143  C     C_R   0.400530 0.521330 0.876083 0.176887
C144  C     C_R   0.625844 0.479651 0.098133 0.131722
C145  C     C_R   0.000890 0.855765 0.000451 0.812387
C146  C     C_R   0.000137 0.144213 0.000050 0.805007
C147  C     C_R   0.499395 0.355722 0.999259 0.810439
C148  C     C_R   0.501478 0.644308 0.000973 0.794688
C149  C     C_R   0.999922 0.644138 0.999628 0.844778
C150  C     C_R   0.999870 0.355761 0.999820 0.841881
C151  C     C_R   0.499965 0.144309 0.999611 0.844738
C152  C     C_R   0.499751 0.855852 0.999927 0.818656
C153  C     C_R   0.945752 0.418253 0.987467 0.149810
C154  C     C_R   0.051949 0.580745 0.010593 0.121657
C155  C     C_R   0.049798 0.418548 0.005093 0.124504
C156  C     C_R   0.942210 0.581899 0.977993 0.137965
C157  C     C_R   0.447815 0.918492 0.994532 0.157469
C158  C     C_R   0.544636 0.081424 0.994821 0.133311
C159  C     C_R   0.545900 0.919132 0.999313 0.132693
C160  C     C_R   0.448710 0.082746 0.994855 0.135563
C161  C     C_R   0.999147 0.398162 0.999099 -0.188823
C162  C     C_R   0.998728 0.601550 0.997620 -0.171883
C163  C     C_R   0.498561 0.898411 0.999570 -0.179203
C164  C     C_R   0.498826 0.101984 0.998121 -0.164375
C165  C     C_R   0.045040 0.459051 0.994652 0.010049
C166  C     C_R   0.941913 0.540876 0.980177 -0.021854
C167  C     C_R   0.947254 0.459073 0.991054 -0.018943
C168  C     C_R   0.046894 0.540464 0.998400 0.002871
C169  C     C_R   0.538790 0.959448 0.986394 0.015239
C170  C     C_R   0.446947 0.041639 0.994352 -0.012065
C171  C     C_R   0.450340 0.959438 0.000069 -0.018437
C172  C     C_R   0.538825 0.040879 0.984915 -0.004859
C173  C     C_R   0.995770 0.479461 0.992160 -0.087423
C174  C     C_R   0.995016 0.520324 0.990747 -0.080445
C175  C     C_R   0.494295 0.979942 0.992777 -0.085186
C176  C     C_R   0.493688 0.020875 0.991434 -0.085757
C177  C     C_R   0.087493 0.479493 0.984578 0.168525
C178  C     C_R   0.892034 0.519694 0.975696 0.164403
C179  C     C_R   0.900080 0.479919 0.991572 0.163992
C180  C     C_R   0.090907 0.520055 0.990452 0.144951
C181  C     C_R   0.573355 0.979358 0.963938 0.165982
C182  C     C_R   0.401821 0.020552 0.999464 0.168964
C183  C     C_R   0.408496 0.980247 0.010424 0.158153
C184  C     C_R   0.574504 0.020047 0.964473 0.153851
H1    H     H_    0.193254 0.686553 0.959726 0.147998
H2    H     H_    0.809151 0.310565 0.046531 0.135658
H3    H     H_    0.807516 0.684152 0.047851 0.142850
H4    H     H_    0.264404 0.293765 0.098092 0.163334
H5    H     H_    0.689046 0.187343 0.954508 0.132258
H6    H     H_    0.305325 0.812584 0.039177 0.131833
H7    H     H_    0.237292 0.205237 0.901843 0.169340
H8    H     H_    0.695013 0.810303 0.961982 0.131862
O1    O     O_3   0.000000 0.749960 0.000000 -0.484157
O2    O     O_3   0.000000 0.250040 0.000000 -0.476849
O3    O     O_3   0.500000 0.249960 0.000000 -0.485010
O4    O     O_3   0.500000 0.750040 0.000000 -0.481522
O5    O     O_R   0.859810 0.727030 0.954180 -0.652803
O6    O     O_R   0.140190 0.272970 0.045820 -0.655785
O7    O     O_R   0.140190 0.727030 0.045820 -0.651941
O8    O     O_R   0.859810 0.272970 0.954180 -0.657228
O9    O     O_R   0.359810 0.227030 0.954180 -0.647890
O10   O     O_R   0.640190 0.772970 0.045820 -0.654511
O11   O     O_R   0.640190 0.227030 0.045820 -0.665379
O12   O     O_R   0.359810 0.772970 0.954180 -0.638957
O13   O     O_R   0.056680 0.772880 0.174890 -0.659758
O14   O     O_R   0.943320 0.227120 0.825110 -0.662266
O15   O     O_R   0.943320 0.772880 0.825110 -0.661201
O16   O     O_R   0.056680 0.227120 0.174890 -0.635774
O17   O     O_R   0.556680 0.272880 0.174890 -0.649408
O18   O     O_R   0.443320 0.727120 0.825110 -0.636387
O19   O     O_R   0.443320 0.272880 0.825110 -0.661196
O20   O     O_R   0.556680 0.727120 0.174890 -0.635129
O21   O     O_R   0.992160 0.837390 0.045890 -0.623222
O22   O     O_R   0.007840 0.162610 0.954110 -0.662461
O23   O     O_R   0.007840 0.837390 0.954110 -0.655723
O24   O     O_R   0.992160 0.162610 0.045890 -0.642003
O25   O     O_R   0.492160 0.337390 0.045890 -0.633310
O26   O     O_R   0.507840 0.662610 0.954110 -0.648376
O27   O     O_R   0.507840 0.337390 0.954110 -0.645737
O28   O     O_R   0.492160 0.662610 0.045890 -0.645719
O29   O     O_R   0.946340 0.662530 0.954150 -0.609451
O30   O     O_R   0.053660 0.337470 0.045850 -0.657522
O31   O     O_R   0.053660 0.662530 0.045850 -0.651229
O32   O     O_R   0.946340 0.337470 0.954150 -0.603377
O33   O     O_R   0.446340 0.162530 0.954150 -0.617225
O34   O     O_R   0.553660 0.837470 0.045850 -0.653586
O35   O     O_R   0.553660 0.162530 0.045850 -0.651526
O36   O     O_R   0.446340 0.837470 0.954150 -0.618112
O37   O     O_R   0.118180 0.727030 0.174870 -0.633797
O38   O     O_R   0.881820 0.272970 0.825130 -0.630236
O39   O     O_R   0.881820 0.727030 0.825130 -0.629847
O40   O     O_R   0.118180 0.272970 0.174870 -0.655726
O41   O     O_R   0.618180 0.227030 0.174870 -0.633085
O42   O     O_R   0.381820 0.772970 0.825130 -0.648285
O43   O     O_R   0.381820 0.227030 0.825130 -0.635378
O44   O     O_R   0.618180 0.772970 0.174870 -0.656140
O45   O     O_R   0.905650 0.772880 0.045890 -0.639240
O46   O     O_R   0.094350 0.227120 0.954110 -0.658736
O47   O     O_R   0.094350 0.772880 0.954110 -0.649238
O48   O     O_R   0.905650 0.227120 0.045890 -0.664217
O49   O     O_R   0.405650 0.272880 0.045890 -0.631885
O50   O     O_R   0.594350 0.727120 0.954110 -0.641058
O51   O     O_R   0.594350 0.272880 0.954110 -0.642431
O52   O     O_R   0.405650 0.727120 0.045890 -0.645702
Zn1   Zn    Zn3+2 0.076680 0.717210 0.065490 0.953676
Zn2   Zn    Zn3+2 0.923320 0.282790 0.934510 0.969756
Zn3   Zn    Zn3+2 0.923320 0.717210 0.934510 0.968973
Zn4   Zn    Zn3+2 0.076680 0.282790 0.065490 0.941461
Zn5   Zn    Zn3+2 0.576680 0.217210 0.065490 0.945379
Zn6   Zn    Zn3+2 0.423320 0.782790 0.934510 0.957542
Zn7   Zn    Zn3+2 0.423320 0.217210 0.934510 0.962317
Zn8   Zn    Zn3+2 0.576680 0.782790 0.065490 0.939507
Zn9   Zn    Zn3+2 0.988820 0.782710 0.065530 0.972940
Zn10  Zn    Zn3+2 0.011180 0.217290 0.934470 0.935922
Zn11  Zn    Zn3+2 0.011180 0.782710 0.934470 0.950288
Zn12  Zn    Zn3+2 0.988820 0.217290 0.065530 0.956705
Zn13  Zn    Zn3+2 0.488820 0.282710 0.065530 0.970150
Zn14  Zn    Zn3+2 0.511180 0.717290 0.934470 0.963632
Zn15  Zn    Zn3+2 0.511180 0.282710 0.934470 0.955632
Zn16  Zn    Zn3+2 0.488820 0.717290 0.065530 0.958639
N1    N     N_2   0.886697 0.397981 0.959793 -0.265456
H9    H     H_    0.843403 0.411288 0.917439 0.217679
C185  C     C_3   0.884508 0.373620 0.013048 -0.706411
H10   H     H_    0.858718 0.388388 0.033320 0.224864
H11   H     H_    0.933904 0.365265 0.063405 0.226369
H12   H     H_    0.857156 0.346898 0.982490 0.248062
N2    N     N_2   0.110657 0.600026 0.035276 -0.263686
H13   H     H_    0.105912 0.624668 0.005340 0.231506
C186  C     C_3   0.159542 0.601731 0.118484 -0.703265
H14   H     H_    0.204542 0.615254 0.131861 0.222741
H15   H     H_    0.171580 0.572139 0.143545 0.224522
H16   H     H_    0.142069 0.619102 0.146162 0.252180
N3    N     N_2   0.104759 0.398488 0.019110 -0.264387
H17   H     H_    0.095803 0.373004 0.989376 0.232395
C187  C     C_3   0.161937 0.398367 0.099039 -0.717093
H18   H     H_    0.202772 0.383892 0.103379 0.220912
H19   H     H_    0.152059 0.382643 0.136060 0.242611
H20   H     H_    0.176902 0.428472 0.120710 0.224982
N4    N     N_2   0.885656 0.603924 0.953578 -0.252869
H21   H     H_    0.842862 0.597244 0.900807 0.251876
C188  C     C_3   0.881025 0.619332 0.012786 -0.715921
H22   H     H_    0.888752 0.596325 0.053442 0.212729
H23   H     H_    0.832072 0.632278 0.985202 0.226521
H24   H     H_    0.917658 0.642392 0.045456 0.231305
N5    N     N_2   0.389399 0.898472 0.970240 -0.268861
H25   H     H_    0.346027 0.912970 0.932831 0.221120
C189  C     C_3   0.390387 0.872544 0.023860 -0.706961
H26   H     H_    0.370858 0.887101 0.052002 0.227190
H27   H     H_    0.439957 0.861666 0.068669 0.227565
H28   H     H_    0.358780 0.847376 0.991177 0.244070
N6    N     N_2   0.595500 0.101510 0.999109 -0.272523
H29   H     H_    0.582904 0.127427 0.969811 0.222629
C190  C     C_3   0.657487 0.102662 0.075050 -0.730828
H30   H     H_    0.695777 0.112271 0.069337 0.227645
H31   H     H_    0.670887 0.073590 0.102475 0.229409
H32   H     H_    0.655892 0.123612 0.112843 0.265346
N7    N     N_2   0.600563 0.899845 0.011090 -0.271871
H33   H     H_    0.592232 0.873288 0.984958 0.230659
C191  C     C_3   0.659603 0.902131 0.089499 -0.743070
H34   H     H_    0.700318 0.888670 0.092335 0.218289
H35   H     H_    0.653398 0.886683 0.130009 0.247048
H36   H     H_    0.672410 0.932821 0.107856 0.225367
N8    N     N_2   0.400277 0.105693 0.990861 -0.261952
H37   H     H_    0.352497 0.102438 0.943609 0.256897
C192  C     C_3   0.413266 0.118747 0.062850 -0.750126
H38   H     H_    0.428104 0.094142 0.103406 0.228531
H39   H     H_    0.368719 0.132219 0.051092 0.230652
H40   H     H_    0.452064 0.141017 0.089983 0.213039
C193  C     C_R   0.886233 0.100806 0.959679 0.182817
C194  C     C_R   0.866038 0.087054 0.003771 -0.162245
C195  C     C_R   0.808167 0.100355 0.989129 -0.158905
C196  C     C_R   0.770970 0.128155 0.931918 -0.100841
C197  C     C_R   0.792395 0.143338 0.890505 -0.155698
C198  C     C_R   0.849750 0.129678 0.903945 -0.132572
H41   H     H_    0.893727 0.064820 0.047129 0.117590
H42   H     H_    0.792413 0.089127 0.022380 0.140317
H43   H     H_    0.725431 0.137648 0.919471 0.120992
H44   H     H_    0.763698 0.164912 0.846552 0.163797
H45   H     H_    0.864195 0.140299 0.868888 0.117738
C199  C     C_R   0.119850 0.897812 0.064423 0.123321
C200  C     C_R   0.164085 0.905490 0.144102 -0.152743
C201  C     C_R   0.226862 0.889987 0.186570 -0.156933
C202  C     C_R   0.245562 0.866433 0.150253 -0.136047
C203  C     C_R   0.201323 0.857918 0.071558 -0.133389
C204  C     C_R   0.138698 0.873650 0.028383 -0.083266
H46   H     H_    0.150546 0.924440 0.172537 0.129200
H47   H     H_    0.261523 0.896606 0.247346 0.137674
H48   H     H_    0.294546 0.855092 0.183183 0.142457
H49   H     H_    0.216069 0.839855 0.043755 0.148687
H50   H     H_    0.106013 0.868286 0.966615 0.165880
C205  C     C_R   0.120386 0.098375 0.088740 0.138201
C206  C     C_R   0.144610 0.132650 0.079563 -0.160893
C207  C     C_R   0.201570 0.149355 0.142938 -0.176412
C208  C     C_R   0.236970 0.130776 0.214417 -0.110832
C209  C     C_R   0.214332 0.096212 0.223868 -0.153137
C210  C     C_R   0.155516 0.080610 0.161968 -0.146025
H51   H     H_    0.120040 0.146446 0.023842 0.180851
H52   H     H_    0.218518 0.176743 0.137013 0.147998
H53   H     H_    0.281264 0.143712 0.262282 0.171702
H54   H     H_    0.241200 0.081760 0.279251 0.138867
H55   H     H_    0.137631 0.054402 0.170916 0.119132
C211  C     C_R   0.885143 0.898747 0.953705 0.166891
C212  C     C_R   0.852184 0.868583 0.899954 -0.169705
C213  C     C_R   0.797414 0.851908 0.888553 -0.142248
C214  C     C_R   0.774671 0.865598 0.929590 -0.103770
C215  C     C_R   0.807964 0.895035 0.984226 -0.146895
C216  C     C_R   0.863701 0.911159 0.997298 -0.094649
H56   H     H_    0.867880 0.858786 0.865657 0.117206
H57   H     H_    0.771627 0.829145 0.846412 0.160965
H58   H     H_    0.730421 0.854146 0.917729 0.123170
H59   H     H_    0.789707 0.906042 0.015066 0.123018
H60   H     H_    0.888672 0.934338 0.039107 0.110896
C217  C     C_R   0.382320 0.597432 0.915902 0.139029
C218  C     C_R   0.342128 0.580978 0.933342 -0.178704
C219  C     C_R   0.274982 0.586934 0.884511 -0.168320
C220  C     C_R   0.247412 0.608780 0.817314 -0.132624
C221  C     C_R   0.287363 0.626602 0.801512 -0.156324
C222  C     C_R   0.354776 0.621604 0.851142 -0.150029
H61   H     H_    0.362394 0.561365 0.981916 0.118273
H62   H     H_    0.244173 0.573408 0.897201 0.132575
H63   H     H_    0.195107 0.612444 0.778044 0.128016
H64   H     H_    0.265742 0.643547 0.749638 0.176098
H65   H     H_    0.384403 0.633512 0.835186 0.145434
C223  C     C_R   0.623307 0.392763 0.080571 0.150785
C224  C     C_R   0.660303 0.385630 0.160374 -0.133392
C225  C     C_R   0.722940 0.370307 0.199108 -0.148259
C226  C     C_R   0.746303 0.358426 0.157739 -0.133310
C227  C     C_R   0.707320 0.362471 0.077329 -0.128817
C228  C     C_R   0.646163 0.380022 0.038652 -0.106507
H66   H     H_    0.642990 0.395178 0.193100 0.143451
H67   H     H_    0.753996 0.368513 0.261414 0.155820
H68   H     H_    0.794890 0.346597 0.188117 0.148029
H69   H     H_    0.725659 0.353387 0.045636 0.137493
H70   H     H_    0.617793 0.385007 0.976796 0.141554
C229  C     C_R   0.627873 0.602678 0.074721 0.172101
C230  C     C_R   0.668409 0.588309 0.055757 -0.157316
C231  C     C_R   0.729674 0.604403 0.088667 -0.184555
C232  C     C_R   0.750615 0.635567 0.139425 -0.111983
C233  C     C_R   0.710183 0.650856 0.157004 -0.126357
C234  C     C_R   0.649265 0.634244 0.125358 -0.165532
H71   H     H_    0.653055 0.563992 0.016647 0.123049
H72   H     H_    0.760807 0.592775 0.074625 0.131915
H73   H     H_    0.798280 0.647644 0.165054 0.147319
H74   H     H_    0.726644 0.675135 0.196246 0.137874
H75   H     H_    0.619484 0.645088 0.141722 0.125331
C235  C     C_R   0.380159 0.403408 0.920899 0.163113
C236  C     C_R   0.349429 0.377278 0.858583 -0.155058
C237  C     C_R   0.282775 0.369761 0.817920 -0.163322
C238  C     C_R   0.246780 0.387867 0.839191 -0.157838
C239  C     C_R   0.277480 0.413019 0.902360 -0.136818
C240  C     C_R   0.344013 0.420281 0.943877 -0.093192
H76   H     H_    0.375695 0.365082 0.838157 0.123622
H77   H     H_    0.257789 0.351672 0.767210 0.172050
H78   H     H_    0.194797 0.383210 0.805499 0.122578
H79   H     H_    0.249297 0.427870 0.917626 0.123318
H80   H     H_    0.366508 0.441171 0.990665 0.110016
N9    N     N_2   0.156203 0.041219 0.020208 -0.295738
H81   H     H_    0.140793 0.066015 0.987191 0.223225
C241  C     C_3   0.222980 0.041589 0.089491 -0.799852
H82   H     H_    0.254964 0.028529 0.076195 0.236957
H83   H     H_    0.228597 0.025381 0.137811 0.233621
H84   H     H_    0.239295 0.071816 0.108660 0.257591
N10   N     N_2   0.820004 0.960397 0.841616 -0.298036
H85   H     H_    0.826016 0.937110 0.816418 0.231661
C242  C     C_3   0.762864 0.959350 0.840602 -0.805110
H86   H     H_    0.744855 0.929256 0.831846 0.251236
H87   H     H_    0.723437 0.976724 0.791032 0.235748
H88   H     H_    0.773415 0.970530 0.895533 0.233916
N11   N     N_2   0.818492 0.041155 0.860653 -0.284158
H89   H     H_    0.781055 0.032735 0.862758 0.240658
C243  C     C_3   0.799258 0.051103 0.784519 -0.766667
H90   H     H_    0.786889 0.024590 0.749041 0.238761
H91   H     H_    0.839200 0.066911 0.789065 0.254120
H92   H     H_    0.755906 0.070298 0.755569 0.230117
N12   N     N_2   0.158270 0.959976 0.022875 -0.280635
H93   H     H_    0.205226 0.967358 0.067768 0.244437
C244  C     C_3   0.147588 0.955699 0.949168 -0.786430
H94   H     H_    0.186883 0.937478 0.956953 0.226383
H95   H     H_    0.148333 0.984361 0.926412 0.248539
H96   H     H_    0.100118 0.941298 0.906655 0.243355
N13   N     N_2   0.674998 0.539045 0.174684 -0.291401
H97   H     H_    0.722001 0.530236 0.199174 0.227888
C245  C     C_3   0.662293 0.549220 0.229902 -0.809623
H98   H     H_    0.688939 0.529184 0.280130 0.215529
H99   H     H_    0.609539 0.547878 0.204043 0.240368
H100  H     H_    0.678909 0.579236 0.249957 0.268412
N14   N     N_2   0.343275 0.461183 0.811385 -0.278405
H101  H     H_    0.352169 0.450254 0.773889 0.220455
C246  C     C_3   0.277377 0.473849 0.777880 -0.796342
H102  H     H_    0.246436 0.448441 0.764598 0.261294
H103  H     H_    0.256739 0.489269 0.722472 0.212668
H104  H     H_    0.275321 0.492551 0.818517 0.238638
N15   N     N_2   0.361237 0.542016 0.804972 -0.281029
H105  H     H_    0.312232 0.544594 0.779157 0.249833
C247  C     C_3   0.380115 0.539063 0.753674 -0.814785
H106  H     H_    0.348371 0.517882 0.706910 0.226278
H107  H     H_    0.431793 0.529855 0.785361 0.243205
H108  H     H_    0.374779 0.567804 0.727524 0.240457
N16   N     N_2   0.687709 0.461199 0.143912 -0.293544
H109  H     H_    0.713755 0.465708 0.202770 0.219492
C248  C     C_3   0.726127 0.465711 0.115137 -0.801360
H110  H     H_    0.770884 0.447794 0.150413 0.241801
H111  H     H_    0.740449 0.496400 0.118700 0.222242
H112  H     H_    0.698022 0.455960 0.053902 0.249832
N17   N     N_2   0.123425 0.459303 0.963301 -0.271203
H113  H     H_    0.170341 0.468427 0.988937 0.239904
C249  C     C_3   0.087663 0.451363 0.881365 -0.828301
H114  H     H_    0.116767 0.431837 0.871776 0.233615
H115  H     H_    0.077752 0.478600 0.848721 0.222577
H116  H     H_    0.040814 0.436928 0.858888 0.245720
N18   N     N_2   0.835127 0.538115 0.959078 -0.300822
H117  H     H_    0.827273 0.534215 0.000455 0.228210
C250  C     C_3   0.777028 0.532300 0.880718 -0.858979
H118  H     H_    0.737354 0.551122 0.870468 0.251022
H119  H     H_    0.760717 0.501743 0.871292 0.227832
H120  H     H_    0.786313 0.539967 0.837897 0.241196
N19   N     N_2   0.865354 0.461652 0.016257 -0.304452
H121  H     H_    0.816536 0.468125 0.984849 0.224867
C251  C     C_3   0.898410 0.463307 0.099109 -0.838427
H122  H     H_    0.870473 0.446562 0.114333 0.230877
H123  H     H_    0.902420 0.493746 0.118165 0.229916
H124  H     H_    0.947928 0.450527 0.130294 0.254447
N20   N     N_2   0.130825 0.540556 0.975468 -0.285292
H125  H     H_    0.117517 0.537653 0.920027 0.214854
C252  C     C_3   0.200611 0.540528 0.035689 -0.787947
H126  H     H_    0.218693 0.570744 0.048152 0.261764
H127  H     H_    0.226047 0.524813 0.015727 0.206861
H128  H     H_    0.213366 0.526991 0.090049 0.236422
N21   N     N_2   0.601126 0.958209 0.933149 -0.273674
H129  H     H_    0.647026 0.966319 0.951921 0.239904
C253  C     C_3   0.556948 0.950144 0.851014 -0.818679
H130  H     H_    0.580491 0.929821 0.834678 0.233488
H131  H     H_    0.544555 0.977074 0.816849 0.224215
H132  H     H_    0.511428 0.936775 0.836386 0.246398
N22   N     N_2   0.350503 0.039523 0.995749 -0.299407
H133  H     H_    0.348742 0.033992 0.041570 0.232639
C254  C     C_3   0.287322 0.037012 0.921137 -0.853993
H134  H     H_    0.252175 0.055835 0.921304 0.249341
H135  H     H_    0.268774 0.006884 0.908629 0.230986
H136  H     H_    0.290351 0.046903 0.874195 0.244228
N23   N     N_2   0.378377 0.961163 0.040254 -0.304566
H137  H     H_    0.330269 0.968009 0.013940 0.227712
C255  C     C_3   0.417037 0.961591 0.123949 -0.844209
H138  H     H_    0.392093 0.944509 0.142876 0.230491
H139  H     H_    0.423425 0.991663 0.145664 0.229209
H140  H     H_    0.465708 0.948663 0.149549 0.254729
N24   N     N_2   0.600582 0.039892 0.930338 -0.278201
H141  H     H_    0.573533 0.038045 0.870901 0.212071
C256  C     C_3   0.670513 0.040317 0.971213 -0.797020
H142  H     H_    0.686196 0.070491 0.974003 0.250056
H143  H     H_    0.684039 0.023210 0.938984 0.215925
H144  H     H_    0.696634 0.028774 0.031073 0.234482
N25   N     N_2   0.718163 0.233883 0.854172 -0.316888
H145  H     H_    0.727570 0.257021 0.832011 0.240553
C257  C     C_3   0.658506 0.213734 0.797563 -0.851945
H146  H     H_    0.659756 0.204620 0.748970 0.238485
H147  H     H_    0.615925 0.232857 0.774408 0.243973
H148  H     H_    0.653517 0.187329 0.822783 0.243895
N26   N     N_2   0.286067 0.769732 0.144820 -0.312494
H149  H     H_    0.268887 0.751724 0.167031 0.226083
C258  C     C_3   0.352739 0.782323 0.200068 -0.853770
H150  H     H_    0.362404 0.808155 0.177783 0.244946
H151  H     H_    0.387414 0.759131 0.211310 0.255707
H152  H     H_    0.361216 0.790253 0.255486 0.233921
N27   N     N_2   0.235237 0.174181 0.031910 -0.316415
H153  H     H_    0.279288 0.161291 0.073277 0.225774
C259  C     C_3   0.193769 0.149637 0.965175 -0.820302
H154  H     H_    0.189590 0.120972 0.984667 0.238323
H155  H     H_    0.215237 0.145113 0.933543 0.235816
H156  H     H_    0.144392 0.162407 0.926023 0.256870
N28   N     N_2   0.722236 0.766164 0.861504 -0.326241
H157  H     H_    0.741126 0.747714 0.841871 0.230012
C260  C     C_3   0.657491 0.780147 0.802913 -0.857209
H158  H     H_    0.649309 0.807472 0.822807 0.251280
H159  H     H_    0.620411 0.758527 0.790700 0.265055
H160  H     H_    0.652387 0.786149 0.748786 0.234422
N29   N     N_2   0.209505 0.731559 0.851777 -0.306337
H161  H     H_    0.159935 0.734381 0.810907 0.215852
C261  C     C_3   0.233027 0.694846 0.846234 -0.820190
H162  H     H_    0.208274 0.687473 0.784521 0.243498
H163  H     H_    0.221796 0.671615 0.872214 0.239982
H164  H     H_    0.286320 0.696236 0.875794 0.247944
N30   N     N_2   0.784701 0.266458 0.144947 -0.314312
H165  H     H_    0.760120 0.251325 0.161337 0.231168
C262  C     C_3   0.853749 0.269778 0.205650 -0.831248
H166  H     H_    0.877425 0.287014 0.185350 0.250220
H167  H     H_    0.876658 0.240717 0.223845 0.259329
H168  H     H_    0.861614 0.284472 0.256549 0.230172
N31   N     N_2   0.781714 0.730917 0.148089 -0.309128
H169  H     H_    0.759979 0.749807 0.163466 0.240733
C263  C     C_3   0.847853 0.721226 0.211757 -0.876031
H170  H     H_    0.846974 0.703879 0.254390 0.231225
H171  H     H_    0.876027 0.747788 0.241819 0.248102
H172  H     H_    0.872103 0.704068 0.191849 0.242893
N32   N     N_2   0.271748 0.324398 0.977234 -0.291510
H173  H     H_    0.283856 0.328630 0.939906 0.230304
C264  C     C_3   0.230724 0.353700 0.976641 -0.772311
H174  H     H_    0.259861 0.380182 0.005412 0.244009
H175  H     H_    0.211450 0.344407 0.008759 0.240274
H176  H     H_    0.188762 0.360702 0.916457 0.222071
C265  C     C_R   0.820781 0.186086 0.104383 0.114691
C266  C     C_R   0.794476 0.173547 0.142818 -0.176733
C267  C     C_R   0.823226 0.143337 0.196522 -0.160962
C268  C     C_R   0.877833 0.124457 0.211453 -0.125673
C269  C     C_R   0.902823 0.135291 0.171464 -0.161600
C270  C     C_R   0.873942 0.165431 0.117442 -0.104883
H177  H     H_    0.751254 0.186947 0.131079 0.161949
H178  H     H_    0.802741 0.134378 0.226053 0.133036
H179  H     H_    0.899908 0.100906 0.252726 0.121238
H180  H     H_    0.943709 0.119677 0.180856 0.133401
H181  H     H_    0.891468 0.170221 0.083681 0.194998
C271  C     C_R   0.160832 0.805904 0.888432 0.137956
C272  C     C_R   0.179930 0.844354 0.891245 -0.168251
C273  C     C_R   0.135685 0.871017 0.835116 -0.151987
C274  C     C_R   0.072117 0.859625 0.775914 -0.128177
C275  C     C_R   0.052919 0.821367 0.771989 -0.125296
C276  C     C_R   0.097188 0.794533 0.827467 -0.095589
H182  H     H_    0.228842 0.853882 0.936509 0.121772
H183  H     H_    0.150712 0.900541 0.837402 0.129240
H184  H     H_    0.037867 0.880378 0.732828 0.117974
H185  H     H_    0.003761 0.812468 0.725894 0.124394
H186  H     H_    0.081529 0.764953 0.823380 0.110608
C277  C     C_R   0.140109 0.267215 0.846157 0.121984
C278  C     C_R   0.139401 0.298014 0.803111 -0.175399
C279  C     C_R   0.087553 0.302606 0.724812 -0.156851
C280  C     C_R   0.036452 0.276021 0.688213 -0.124662
C281  C     C_R   0.037007 0.244919 0.729910 -0.155299
C282  C     C_R   0.088899 0.240256 0.808119 -0.128035
H187  H     H_    0.179796 0.317610 0.828499 0.132444
H188  H     H_    0.087749 0.326316 0.692131 0.120482
H189  H     H_    0.997171 0.278985 0.627208 0.116400
H190  H     H_    0.997828 0.223999 0.701281 0.134202
H191  H     H_    0.089768 0.214944 0.838036 0.157176
C283  C     C_R   0.838864 0.804850 0.114777 0.165351
C284  C     C_R   0.815748 0.841624 0.115132 -0.154952
C285  C     C_R   0.857983 0.869158 0.170458 -0.153517
C286  C     C_R   0.923644 0.860158 0.226083 -0.117657
C287  C     C_R   0.946977 0.823447 0.227024 -0.139037
C288  C     C_R   0.904733 0.795837 0.172058 -0.086197
H192  H     H_    0.765145 0.849134 0.072609 0.115117
H193  H     H_    0.839781 0.897526 0.170011 0.119508
H194  H     H_    0.956332 0.881537 0.268684 0.117560
H195  H     H_    0.997728 0.816304 0.270511 0.128129
H196  H     H_    0.923457 0.767344 0.174466 0.128161
C289  C     C_R   0.332230 0.687826 0.098226 0.136238
C290  C     C_R   0.350491 0.681674 0.173451 -0.171053
C291  C     C_R   0.389343 0.650004 0.217221 -0.150001
C292  C     C_R   0.409764 0.623868 0.186168 -0.134034
C293  C     C_R   0.390219 0.628920 0.110682 -0.121305
C294  C     C_R   0.350584 0.660235 0.066328 -0.083082
H197  H     H_    0.334460 0.700669 0.198684 0.138977
H198  H     H_    0.403528 0.645695 0.275285 0.128275
H199  H     H_    0.440245 0.599528 0.220336 0.122933
H200  H     H_    0.406009 0.608593 0.086742 0.132135
H201  H     H_    0.335214 0.663297 0.007518 0.136545
C295  C     C_R   0.666798 0.308514 0.892912 0.138860
C296  C     C_R   0.691520 0.345593 0.897796 -0.185371
C297  C     C_R   0.650987 0.374397 0.844804 -0.148059
C298  C     C_R   0.585609 0.366387 0.786001 -0.126773
C299  C     C_R   0.560792 0.329484 0.779875 -0.141662
C300  C     C_R   0.601245 0.300656 0.832780 -0.078807
H202  H     H_    0.741992 0.352466 0.942365 0.120948
H203  H     H_    0.670340 0.402933 0.849311 0.124988
H204  H     H_    0.554260 0.388723 0.745069 0.121612
H205  H     H_    0.510173 0.323201 0.734218 0.127270
H206  H     H_    0.581072 0.272375 0.827451 0.125602
C301  C     C_R   0.669104 0.686672 0.902317 0.123347
C302  C     C_R   0.656393 0.679748 0.829928 -0.163505
C303  C     C_R   0.616747 0.648915 0.783481 -0.145388
C304  C     C_R   0.589680 0.624424 0.808841 -0.134107
C305  C     C_R   0.603264 0.630305 0.881343 -0.122142
C306  C     C_R   0.643902 0.660688 0.928495 -0.071797
H207  H     H_    0.677252 0.697450 0.808861 0.141278
H208  H     H_    0.607044 0.644012 0.727721 0.127975
H209  H     H_    0.558568 0.600756 0.772572 0.123689
H210  H     H_    0.582151 0.611315 0.900844 0.138390
H211  H     H_    0.654607 0.664457 0.984929 0.158050
C307  C     C_R   0.357888 0.230200 0.154544 0.110160
C308  C     C_R   0.347798 0.236135 0.211424 -0.160454
C309  C     C_R   0.400500 0.237185 0.289711 -0.144537
C310  C     C_R   0.463458 0.230748 0.312451 -0.135531
C311  C     C_R   0.473674 0.222677 0.256831 -0.129668
C312  C     C_R   0.421120 0.221928 0.178119 -0.114313
H212  H     H_    0.299490 0.242018 0.195078 0.124723
H213  H     H_    0.392716 0.244073 0.332607 0.122542
H214  H     H_    0.504271 0.232290 0.373141 0.117561
H215  H     H_    0.522634 0.218113 0.274863 0.125026
H216  H     H_    0.430477 0.215745 0.136340 0.109774
N33   N     N_2   0.674085 0.681520 0.297537 -0.297860
H217  H     H_    0.662678 0.684070 0.243139 0.208492
C313  C     C_3   0.629316 0.657141 0.299873 -0.740827
H218  H     H_    0.622903 0.629335 0.270271 0.226167
H219  H     H_    0.581053 0.671395 0.270122 0.260106
H220  H     H_    0.648675 0.650880 0.360798 0.230498
N34   N     N_2   0.277851 0.293582 0.703692 -0.310436
H221  H     H_    0.314923 0.305027 0.756487 0.204380
C314  C     C_3   0.232529 0.270898 0.708059 -0.776016
H222  H     H_    0.213327 0.288594 0.733410 0.232512
H223  H     H_    0.257083 0.245028 0.745145 0.255848
H224  H     H_    0.190774 0.261410 0.649339 0.242648
N35   N     N_2   0.269039 0.715648 0.704457 -0.313383
H225  H     H_    0.302902 0.704936 0.759382 0.208724
C315  C     C_3   0.223948 0.742930 0.700718 -0.745819
H226  H     H_    0.179829 0.727489 0.685377 0.223936
H227  H     H_    0.207759 0.765689 0.656020 0.232814
H228  H     H_    0.247294 0.757400 0.757693 0.272496
N36   N     N_2   0.698687 0.306347 0.296888 -0.300666
H229  H     H_    0.659543 0.318681 0.246555 0.237367
C316  C     C_3   0.748849 0.291298 0.291202 -0.790310
H230  H     H_    0.792067 0.310439 0.323417 0.227750
H231  H     H_    0.730021 0.289755 0.229521 0.242142
H232  H     H_    0.765356 0.261767 0.316334 0.242145
N37   N     N_2   0.188261 0.184861 0.297948 -0.300393
H233  H     H_    0.175614 0.188638 0.242997 0.225720
C317  C     C_3   0.148469 0.156169 0.300675 -0.751999
H234  H     H_    0.147491 0.129162 0.272266 0.240478
H235  H     H_    0.097700 0.166799 0.269956 0.253490
H236  H     H_    0.168658 0.149365 0.361679 0.228784
N38   N     N_2   0.806494 0.811515 0.702115 -0.293767
H237  H     H_    0.846263 0.819492 0.756535 0.230484
C318  C     C_3   0.748490 0.805139 0.697689 -0.838141
H238  H     H_    0.737625 0.831513 0.717533 0.236939
H239  H     H_    0.755885 0.780315 0.734985 0.240534
H240  H     H_    0.705930 0.799354 0.636926 0.248919
N39   N     N_2   0.817542 0.184695 0.706286 -0.296097
H241  H     H_    0.861505 0.176058 0.755877 0.241750
C319  C     C_3   0.765602 0.186951 0.714764 -0.840236
H242  H     H_    0.759983 0.158384 0.733557 0.239078
H243  H     H_    0.718573 0.194194 0.658561 0.247982
H244  H     H_    0.777027 0.209192 0.758579 0.240951
N40   N     N_2   0.203694 0.807644 0.296760 -0.294699
H245  H     H_    0.164280 0.816317 0.242565 0.235952
C320  C     C_3   0.258900 0.796010 0.298483 -0.803166
H246  H     H_    0.270173 0.818903 0.272172 0.246799
H247  H     H_    0.247807 0.768757 0.265328 0.241445
H248  H     H_    0.302609 0.791716 0.359193 0.239808
C321  C     C_R   0.603214 0.812329 0.298281 0.119243
C322  C     C_R   0.598131 0.840242 0.247442 -0.084323
C323  C     C_R   0.548231 0.867722 0.214007 -0.151866
C324  C     C_R   0.502330 0.866847 0.229529 -0.145787
C325  C     C_R   0.506327 0.838660 0.278633 -0.161469
C326  C     C_R   0.556589 0.811459 0.312980 -0.153175
H249  H     H_    0.633986 0.841574 0.236020 0.149441
H250  H     H_    0.545380 0.889815 0.176428 0.134728
H251  H     H_    0.463551 0.887920 0.203611 0.133386
H252  H     H_    0.470903 0.838155 0.290761 0.128103
H253  H     H_    0.559743 0.789995 0.351780 0.129753
C327  C     C_R   0.409828 0.190399 0.712219 0.134444
C328  C     C_R   0.477653 0.195763 0.760710 -0.117798
C329  C     C_R   0.518952 0.165055 0.805407 -0.146840
C330  C     C_R   0.492816 0.129007 0.802304 -0.143907
C331  C     C_R   0.425384 0.123797 0.755952 -0.148981
C332  C     C_R   0.383882 0.154437 0.711234 -0.135842
H254  H     H_    0.498213 0.223504 0.762955 0.116752
H255  H     H_    0.571150 0.169123 0.842216 0.114391
H256  H     H_    0.524763 0.105094 0.835821 0.138704
H257  H     H_    0.405309 0.095965 0.754376 0.126102
H258  H     H_    0.331664 0.150135 0.675375 0.124130
C333  C     C_R   0.420990 0.800997 0.701811 0.133076
C334  C     C_R   0.439700 0.826825 0.762457 -0.131298
C335  C     C_R   0.496521 0.848613 0.796797 -0.141421
C336  C     C_R   0.533751 0.846014 0.769022 -0.115509
C337  C     C_R   0.514794 0.821038 0.707746 -0.164849
C338  C     C_R   0.459497 0.797973 0.675347 -0.140072
H259  H     H_    0.409396 0.831154 0.781492 0.153651
H260  H     H_    0.510765 0.868098 0.843775 0.123578
H261  H     H_    0.577030 0.863516 0.794535 0.111733
H262  H     H_    0.542716 0.819683 0.684941 0.131540
H263  H     H_    0.445416 0.778728 0.627912 0.124673
C339  C     C_R   0.655780 0.176323 0.296816 0.181027
C340  C     C_R   0.595945 0.157735 0.243461 -0.100947
C341  C     C_R   0.594602 0.121826 0.212367 -0.092043
C342  C     C_R   0.652284 0.104720 0.232645 -0.127843
C343  C     C_R   0.711540 0.123801 0.282798 -0.188094
C344  C     C_R   0.713374 0.159462 0.314706 -0.132965
H264  H     H_    0.550859 0.170234 0.227728 0.085694
H265  H     H_    0.549155 0.106718 0.173659 0.125686
H266  H     H_    0.650955 0.076762 0.209028 0.125775
H267  H     H_    0.756170 0.110667 0.297934 0.123379
H268  H     H_    0.759839 0.173597 0.354772 0.120140
C345  C     C_R   0.092874 0.309395 0.291640 0.123092
C346  C     C_R   0.094059 0.338976 0.247667 -0.086386
C347  C     C_R   0.044760 0.366861 0.211503 -0.145315
C348  C     C_R   0.993845 0.365214 0.218505 -0.141236
C349  C     C_R   0.991538 0.335351 0.260482 -0.170367
C350  C     C_R   0.040468 0.307209 0.296308 -0.153291
H269  H     H_    0.134330 0.341251 0.243924 0.138465
H270  H     H_    0.046553 0.390094 0.179082 0.131056
H271  H     H_    0.956283 0.387164 0.191752 0.131104
H272  H     H_    0.952792 0.334681 0.267035 0.126036
H273  H     H_    0.038940 0.284637 0.330101 0.131653
C351  C     C_R   0.892081 0.682985 0.712382 0.152769
C352  C     C_R   0.960474 0.681944 0.764439 -0.122196
C353  C     C_R   0.992083 0.649511 0.811376 -0.145414
C354  C     C_R   0.955728 0.618141 0.807262 -0.114581
C355  C     C_R   0.887710 0.619337 0.756933 -0.137021
C356  C     C_R   0.855860 0.651706 0.709782 -0.130541
H274  H     H_    0.989066 0.706209 0.768399 0.109455
H275  H     H_    0.044732 0.648696 0.850907 0.111322
H276  H     H_    0.980232 0.592950 0.843216 0.122031
H277  H     H_    0.859678 0.595179 0.754496 0.118160
H278  H     H_    0.803146 0.652471 0.671356 0.118265
C357  C     C_R   0.869697 0.320559 0.711060 0.155993
C358  C     C_R   0.829043 0.345050 0.717161 -0.104281
C359  C     C_R   0.854520 0.378226 0.763363 -0.107721
C360  C     C_R   0.920693 0.386812 0.804438 -0.091702
C361  C     C_R   0.961979 0.361641 0.801408 -0.146604
C362  C     C_R   0.936750 0.328425 0.755384 -0.137791
H279  H     H_    0.777673 0.338630 0.685427 0.113269
H280  H     H_    0.822916 0.397409 0.766942 0.111729
H281  H     H_    0.939912 0.412860 0.838968 0.116623
H282  H     H_    0.013473 0.367847 0.834490 0.120975
H283  H     H_    0.969084 0.309071 0.753482 0.137167
C363  C     C_R   0.101276 0.686690 0.289511 0.150251
C364  C     C_R   0.032992 0.687397 0.244559 -0.130168
C365  C     C_R   0.997149 0.654530 0.203286 -0.155956
C366  C     C_R   0.028983 0.621434 0.203815 -0.106542
C367  C     C_R   0.096723 0.621164 0.245796 -0.154986
C368  C     C_R   0.132918 0.653700 0.288609 -0.134562
H284  H     H_    0.007934 0.712902 0.243716 0.111909
H285  H     H_    0.944749 0.654689 0.171428 0.113155
H286  H     H_    0.001318 0.595931 0.171957 0.124449
H287  H     H_    0.121223 0.595584 0.245887 0.121934
H288  H     H_    0.185469 0.653096 0.321725 0.120439
C369  C     C_R   0.706246 0.859707 0.421693 0.145619
C370  C     C_R   0.741426 0.871623 0.394030 -0.165190
C371  C     C_R   0.729323 0.907787 0.358691 -0.153163
C372  C     C_R   0.682465 0.932380 0.351300 -0.118435
C373  C     C_R   0.647561 0.920835 0.379144 -0.120799
C374  C     C_R   0.659270 0.884622 0.414150 -0.108639
H289  H     H_    0.778099 0.852886 0.399856 0.126784
H290  H     H_    0.756305 0.916756 0.337083 0.126890
H291  H     H_    0.673097 0.960339 0.323849 0.117063
H292  H     H_    0.611035 0.939803 0.373008 0.118740
H293  H     H_    0.631087 0.875733 0.434190 0.112064
C375  C     C_R   0.409706 0.185369 0.580084 0.153165
C376  C     C_R   0.457758 0.210602 0.591736 -0.165364
C377  C     C_R   0.519093 0.196430 0.618788 -0.153779
C378  C     C_R   0.533508 0.157161 0.636197 -0.111039
C379  C     C_R   0.486197 0.131899 0.625551 -0.108777
C380  C     C_R   0.424273 0.145818 0.596879 -0.089710
H294  H     H_    0.446946 0.241008 0.577570 0.120671
H295  H     H_    0.555203 0.215913 0.625531 0.129901
H296  H     H_    0.581191 0.146281 0.657493 0.118116
H297  H     H_    0.497254 0.101465 0.638701 0.114887
H298  H     H_    0.387610 0.125855 0.587429 0.112251
C381  C     C_R   0.328191 0.855082 0.583354 0.149518
C382  C     C_R   0.301349 0.870817 0.618902 -0.151075
C383  C     C_R   0.325174 0.905612 0.659935 -0.144773
C384  C     C_R   0.375720 0.925012 0.665532 -0.121061
C385  C     C_R   0.402477 0.909668 0.630032 -0.116909
C386  C     C_R   0.378854 0.874854 0.589045 -0.114596
H299  H     H_    0.262277 0.855982 0.615131 0.126766
H300  H     H_    0.304572 0.917479 0.687587 0.129238
H301  H     H_    0.394294 0.951860 0.697583 0.120132
H302  H     H_    0.441975 0.924550 0.634926 0.119372
H303  H     H_    0.401077 0.862850 0.563426 0.108264
C387  C     C_R   0.657611 0.147370 0.422483 0.126390
C388  C     C_R   0.593122 0.152108 0.396985 -0.177873
C389  C     C_R   0.549071 0.121393 0.362205 -0.148144
C390  C     C_R   0.569328 0.085541 0.353452 -0.131529
C391  C     C_R   0.633706 0.080333 0.379677 -0.124848
C392  C     C_R   0.677771 0.111081 0.414005 -0.099777
H304  H     H_    0.577359 0.179530 0.404748 0.124334
H305  H     H_    0.499321 0.125362 0.342337 0.130102
H306  H     H_    0.535194 0.061770 0.326526 0.117567
H307  H     H_    0.649383 0.052540 0.373004 0.121912
H308  H     H_    0.727429 0.106726 0.433789 0.131261
C393  C     C_R   0.175337 0.354627 0.428570 0.144008
C394  C     C_R   0.215601 0.372881 0.413237 -0.173471
C395  C     C_R   0.202811 0.410875 0.385514 -0.154285
C396  C     C_R   0.150133 0.431073 0.373522 -0.119961
C397  C     C_R   0.110090 0.413295 0.389130 -0.119871
C398  C     C_R   0.122480 0.375244 0.416443 -0.086552
H309  H     H_    0.256916 0.357656 0.422912 0.125806
H310  H     H_    0.233845 0.424691 0.373484 0.125576
H311  H     H_    0.140278 0.460473 0.352015 0.117427
H312  H     H_    0.069124 0.428891 0.379508 0.118244
H313  H     H_    0.090353 0.361706 0.426995 0.122623
C399  C     C_R   0.891752 0.667518 0.581228 0.146726
C400  C     C_R   0.949195 0.685732 0.601977 -0.155792
C401  C     C_R   0.007562 0.664944 0.639996 -0.156122
C402  C     C_R   0.008921 0.625801 0.657131 -0.118362
C403  C     C_R   0.951877 0.607328 0.635813 -0.109295
C404  C     C_R   0.893485 0.628039 0.598048 -0.113614
H314  H     H_    0.948787 0.716107 0.589372 0.120495
H315  H     H_    0.051806 0.679232 0.656573 0.120048
H316  H     H_    0.054221 0.609810 0.687301 0.105719
H317  H     H_    0.953077 0.577078 0.649542 0.114520
H318  H     H_    0.850223 0.613618 0.584148 0.108504
C405  C     C_R   0.836206 0.353345 0.572815 0.140392
C406  C     C_R   0.811785 0.388071 0.580491 -0.120222
C407  C     C_R   0.851163 0.421012 0.610799 -0.122839
C408  C     C_R   0.914698 0.419694 0.632597 -0.109812
C409  C     C_R   0.938719 0.385559 0.623289 -0.139320
C410  C     C_R   0.899443 0.352593 0.592893 -0.165932
H319  H     H_    0.762550 0.389429 0.563496 0.117342
H320  H     H_    0.832447 0.447543 0.617478 0.117115
H321  H     H_    0.945194 0.445174 0.656329 0.114928
H322  H     H_    0.987702 0.384645 0.639482 0.117271
H323  H     H_    0.917958 0.326494 0.584705 0.117363
C411  C     C_R   0.106260 0.671604 0.422094 0.147706
C412  C     C_R   0.048032 0.688253 0.402118 -0.173059
C413  C     C_R   0.993296 0.665188 0.373258 -0.143407
C414  C     C_R   0.996110 0.625400 0.363865 -0.110023
C415  C     C_R   0.054065 0.608552 0.384144 -0.112399
C416  C     C_R   0.109203 0.631474 0.413750 -0.091908
H324  H     H_    0.045476 0.718962 0.410091 0.123099
H325  H     H_    0.949078 0.678249 0.359105 0.125507
H326  H     H_    0.953576 0.607585 0.341368 0.113084
H327  H     H_    0.056388 0.577713 0.377365 0.115186
H328  H     H_    0.154147 0.618084 0.430365 0.116281
C417  C     C_R   0.782729 0.858493 0.585971 0.189717
C418  C     C_R   0.846499 0.871302 0.619734 -0.152615
C419  C     C_R   0.869053 0.905557 0.662837 -0.133090
C420  C     C_R   0.828194 0.927215 0.672577 -0.123636
C421  C     C_R   0.764726 0.914622 0.639299 -0.154651
C422  C     C_R   0.741977 0.880379 0.596162 -0.110103
H329  H     H_    0.878743 0.854594 0.613063 0.113074
H330  H     H_    0.918306 0.915226 0.688962 0.122963
H331  H     H_    0.845793 0.953655 0.706192 0.123665
H332  H     H_    0.733339 0.931242 0.647470 0.129065
H333  H     H_    0.693266 0.870454 0.572235 0.109879
C423  C     C_R   0.316907 0.171459 0.422193 0.200588
C424  C     C_R   0.358746 0.186128 0.405966 -0.165889
C425  C     C_R   0.395947 0.160968 0.395639 -0.151491
C426  C     C_R   0.390700 0.121005 0.399990 -0.120145
C427  C     C_R   0.347735 0.106145 0.413822 -0.181177
C428  C     C_R   0.310451 0.131198 0.424142 -0.141980
H334  H     H_    0.366541 0.216988 0.408196 0.113706
H335  H     H_    0.430142 0.172345 0.386370 0.138859
H336  H     H_    0.420002 0.101591 0.392828 0.122095
H337  H     H_    0.344233 0.075196 0.418070 0.122151
H338  H     H_    0.280528 0.119317 0.439683 0.115568
C429  C     C_R   0.240230 0.856342 0.418210 0.191426
C430  C     C_R   0.179413 0.872453 0.390238 -0.152292
C431  C     C_R   0.161531 0.908674 0.354226 -0.135927
C432  C     C_R   0.204455 0.929212 0.346641 -0.119380
C433  C     C_R   0.264953 0.913323 0.374159 -0.161426
C434  C     C_R   0.282390 0.876701 0.408523 -0.112597
H339  H     H_    0.146142 0.857032 0.396819 0.114905
H340  H     H_    0.114610 0.920948 0.332754 0.122302
H341  H     H_    0.190785 0.957383 0.319266 0.113586
H342  H     H_    0.298152 0.929274 0.368262 0.113469
H343  H     H_    0.328607 0.864272 0.427614 0.106003
C435  C     C_R   0.772659 0.141391 0.579999 0.184907
C436  C     C_R   0.731686 0.117764 0.586953 -0.102636
C437  C     C_R   0.749884 0.079745 0.613280 -0.159554
C438  C     C_R   0.810101 0.065541 0.635924 -0.122533
C439  C     C_R   0.852210 0.089372 0.632173 -0.145072
C440  C     C_R   0.833457 0.127106 0.603828 -0.175521
H344  H     H_    0.684739 0.128339 0.569151 0.125325
H345  H     H_    0.717063 0.061218 0.615657 0.129512
H346  H     H_    0.824184 0.036093 0.656547 0.126451
H347  H     H_    0.898889 0.078375 0.649914 0.129291
H348  H     H_    0.865557 0.144918 0.598771 0.121454
C441  C     C_R   0.208537 0.340764 0.578847 0.194187
C442  C     C_R   0.246977 0.374279 0.606866 -0.151252
C443  C     C_R   0.227970 0.406076 0.629225 -0.129639
C444  C     C_R   0.171579 0.404240 0.625615 -0.118101
C445  C     C_R   0.134449 0.370451 0.600417 -0.180002
C446  C     C_R   0.152472 0.338882 0.576424 -0.147433
H349  H     H_    0.289513 0.376423 0.607461 0.120319
H350  H     H_    0.256040 0.432452 0.647289 0.132726
H351  H     H_    0.156070 0.429104 0.641388 0.118310
H352  H     H_    0.090647 0.369159 0.597250 0.118488
H353  H     H_    0.121528 0.313551 0.553204 0.119919
C447  C     C_R   0.794734 0.657937 0.419572 0.206366
C448  C     C_R   0.821889 0.666605 0.380538 -0.160045
C449  C     C_R   0.834415 0.636909 0.346792 -0.139903
C450  C     C_R   0.821209 0.598514 0.353013 -0.079723
C451  C     C_R   0.794461 0.589731 0.392040 -0.162396
C452  C     C_R   0.779818 0.619357 0.423607 -0.137880
H354  H     H_    0.833630 0.696187 0.376745 0.116162
H355  H     H_    0.854431 0.643506 0.315831 0.111190
H356  H     H_    0.831445 0.575601 0.327319 0.118711
H357  H     H_    0.784511 0.559980 0.397257 0.126032
H358  H     H_    0.758012 0.612222 0.452517 0.106887
C453  C     C_R   0.728396 0.355767 0.413306 0.170769
C454  C     C_R   0.666195 0.370692 0.382047 -0.174221
C455  C     C_R   0.647285 0.406555 0.344566 -0.142930
C456  C     C_R   0.690361 0.427843 0.338320 -0.137345
C457  C     C_R   0.752116 0.413065 0.368629 -0.169288
C458  C     C_R   0.770953 0.377000 0.405314 -0.109804
H359  H     H_    0.632695 0.354684 0.387400 0.127618
H360  H     H_    0.599329 0.417940 0.320693 0.131961
H361  H     H_    0.675671 0.455608 0.309343 0.124845
H362  H     H_    0.785184 0.429398 0.363047 0.123396
H363  H     H_    0.818668 0.365695 0.427775 0.120732
C459  C     C_R   0.203208 0.662604 0.582357 0.179550
C460  C     C_R   0.151665 0.660291 0.588722 -0.117082
C461  C     C_R   0.138394 0.625469 0.609687 -0.171502
C462  C     C_R   0.176281 0.592731 0.624398 -0.115675
C463  C     C_R   0.228244 0.594980 0.619478 -0.149808
C464  C     C_R   0.242157 0.629856 0.599241 -0.200470
H364  H     H_    0.119768 0.684834 0.573436 0.125346
H365  H     H_    0.097807 0.623615 0.612705 0.133883
H366  H     H_    0.165444 0.565647 0.639687 0.120585
H367  H     H_    0.256643 0.569425 0.629459 0.139502
H368  H     H_    0.280809 0.630778 0.592415 0.126999

loop_
_geom_bond_atom_site_label_1
_geom_bond_atom_site_label_2
_ccdc_geom_bond_type
C132  C144  A    
C261  H164  S    
C151  O35   A    
C281  C282  A    
O19   Zn15  S    
C221  C222  A    
C317  H236  S    
C23   N31   S    
C289  C290  A    
O21   Zn9   S    
C257  H146  S    
C76   C79   A    
C427  H337  S    
C251  H122  S    
C315  H228  S    
C355  C356  A    
O42   Zn6   S    
C79   C87   A    
C320  H246  S    
C186  H15   S    
C197  H44   S    
N8    C192  S    
C170  C176  A    
C207  C208  A    
C275  C276  A    
C188  H24   S    
C230  C231  A    
C247  H106  S    
C375  C380  A    
C95   O43   A    
C387  C392  A    
O46   Zn10  S    
C171  C183  A    
C461  C462  A    
N38   C318  S    
C33   C265  S    
C211  C216  A    
N33   C313  S    
C246  H102  S    
C416  H328  S    
N34   C314  S    
C243  H91   S    
C307  C308  A    
C8    O52   A    
C304  H209  S    
C342  C343  A    
C100  C387  S    
C252  H128  S    
O25   Zn13  S    
C309  C310  A    
C30   C38   S    
C185  H11   S    
C391  C392  A    
C272  C273  A    
C439  H347  S    
C291  C292  A    
C337  H262  S    
C7    O11   A    
C213  H57   S    
C335  H260  S    
C89   O13   A    
C354  C355  A    
C184  N24   S    
C203  C204  A    
N26   C258  S    
C111  C453  S    
C325  H252  S    
C189  H27   S    
C59   C333  S    
C226  H68   S    
C2    O46   A    
C214  C215  A    
C151  C164  S    
O38   Zn2   S    
C232  H73   S    
C307  C312  A    
C97   C105  A    
C238  H78   S    
O33   Zn7   S    
O2    Zn4   S    
C281  H190  S    
C319  H244  S    
O50   Zn14  S    
C347  C348  A    
C99   C107  A    
C406  H319  S    
C449  H355  S    
C41   C49   A    
C227  C228  A    
C251  H124  S    
C9    C26   S    
C424  C425  A    
C245  H100  S    
C401  H315  S    
C143  N15   S    
C316  H232  S    
O39   Zn3   S    
C166  C174  A    
C100  C108  A    
C12   C27   S    
C277  C278  A    
C130  C136  A    
C178  C179  A    
C13   C30   S    
C43   N35   S    
C383  C384  A    
C103  C405  S    
C295  C296  A    
C156  N4    S    
C141  C144  A    
N29   C261  S    
C253  H130  S    
C107  C429  S    
C211  C212  A    
C94   O42   A    
C248  H112  S    
O29   Zn3   S    
C27   C35   S    
C293  C294  A    
C21   C29   S    
C346  C347  A    
O31   Zn1   S    
C153  C161  A    
C142  N14   S    
C16   C31   S    
N14   H101  S    
O1    Zn9   S    
C309  H213  S    
C12   C40   S    
C250  H120  S    
O34   Zn8   S    
C412  C413  A    
C249  H115  S    
C13   C33   S    
C370  C371  A    
C147  O25   A    
N22   C254  S    
C114  C128  A    
O17   Zn13  S    
C287  H195  S    
C156  C166  A    
C436  C437  A    
N20   C252  S    
C423  C424  A    
C363  C364  A    
C342  H266  S    
C376  C377  A    
N24   C256  S    
C372  C373  A    
C118  C124  A    
C413  C414  A    
C455  C456  A    
C39   C301  S    
C239  C240  A    
C448  H354  S    
C120  C235  S    
N31   C263  S    
C151  O33   A    
C63   C71   A    
C443  H350  S    
C119  C123  A    
C290  H197  S    
N25   C257  S    
O47   Zn11  S    
C314  H222  S    
C318  H240  S    
C394  C395  A    
C407  H320  S    
C315  H226  S    
C160  C164  A    
N22   H133  S    
C320  H248  S    
C131  C143  A    
C396  C397  A    
C21   N29   S    
C321  C326  A    
N36   C316  S    
C150  C161  S    
C15   H7    S    
C405  C410  A    
N10   C242  S    
C415  C416  A    
C252  H126  S    
C22   N30   S    
C3    C26   S    
C58   C327  S    
C179  N19   S    
C404  H318  S    
C447  C452  A    
C229  C230  A    
C193  C194  A    
C389  C390  A    
C69   C101  A    
C102  C399  S    
C356  H278  S    
C98   C106  A    
C408  H321  S    
C10   C38   S    
C433  H342  S    
C17   C25   S    
C268  C269  A    
C357  C358  A    
N9    C241  S    
C381  C386  A    
C264  H174  S    
C144  N16   S    
C231  H72   S    
C254  H135  S    
C274  C275  A    
C310  C311  A    
C157  C171  A    
C158  C172  A    
C233  H74   S    
C209  H54   S    
C414  C415  A    
C414  H326  S    
C155  C165  A    
C311  C312  A    
C11   C23   S    
C392  H308  S    
C61   C69   A    
N4    C188  S    
N17   H113  S    
C160  N8    S    
C460  C461  A    
C259  H155  S    
C278  H187  S    
C228  H70   S    
C438  H346  S    
C255  H140  S    
C81   C110  A    
C126  C134  A    
C80   C88   A    
C200  C201  A    
O2    Zn2   S    
O4    Zn6   S    
C319  H242  S    
C92   O40   A    
C267  H178  S    
C149  C162  S    
C227  H69   S    
C41   N33   S    
N11   H89   S    
C318  H238  S    
C225  H67   S    
C364  C365  A    
C17   N25   S    
C247  H107  S    
C396  H311  S    
C18   N26   S    
O40   Zn4   S    
C383  H300  S    
C321  C322  A    
C115  C121  A    
C165  C177  A    
C361  H282  S    
C69   C77   A    
C374  H293  S    
O52   Zn16  S    
C138  N10   S    
C9    C21   S    
C269  H180  S    
C71   C79   A    
C303  C304  A    
C440  H348  S    
C215  H59   S    
C436  H344  S    
C365  C366  A    
C168  C174  A    
C251  H123  S    
C62   C70   A    
C306  H211  S    
C265  C266  A    
C266  H177  S    
C8    C29   S    
C370  H289  S    
C263  H171  S    
C55   C90   S    
C215  C216  A    
C377  H295  S    
N16   C248  S    
C5    O9    A    
C369  C370  A    
C233  C234  A    
C149  O31   A    
N6    C190  S    
C409  H322  S    
C64   C363  S    
C382  H299  S    
C450  C451  A    
C66   C74   A    
C118  C223  S    
C455  H360  S    
C49   C57   A    
C196  C197  A    
C116  C211  S    
C373  C374  A    
C421  H332  S    
C137  N9    S    
C6    C31   S    
C52   C60   A    
C419  C420  A    
C59   C67   A    
C216  H60   S    
C129  C135  A    
C53   C61   A    
N12   H93   S    
C237  C238  A    
C192  H39   S    
C74   C77   A    
C55   C63   A    
C314  H224  S    
C453  C454  A    
N12   C244  S    
C112  C459  S    
C291  H198  S    
C424  H334  S    
C60   C339  S    
O35   Zn5   S    
O37   Zn1   S    
C44   C52   A    
C44   N36   S    
C135  C136  A    
C426  H336  S    
C77   C85   A    
C463  H367  S    
C90   O14   A    
C258  H150  S    
C170  C182  A    
C45   N37   S    
N7    C191  S    
C117  C217  S    
C461  H365  S    
O3    Zn13  S    
O44   Zn8   S    
N21   H129  S    
C331  H257  S    
C369  C374  A    
C379  C380  A    
C244  H95   S    
C390  C391  A    
C51   C59   A    
C280  H189  S    
C313  H219  S    
O1    Zn3   S    
C324  H251  S    
O48   Zn12  S    
C365  H285  S    
C280  C281  A    
C391  H307  S    
C11   C28   S    
C82   C109  A    
C187  H20   S    
C206  C207  A    
C235  C240  A    
C154  N2    S    
C399  C404  A    
C242  H88   S    
C104  C112  A    
C208  C209  A    
N5    C189  S    
C47   N39   S    
O9    Zn7   S    
C203  H49   S    
C268  H179  S    
C73   C78   A    
C252  H127  S    
O5    Zn3   S    
C209  C210  A    
C340  H264  S    
C91   O39   A    
C334  C335  A    
C260  H159  S    
C62   C351  S    
C223  C228  A    
C11   C39   S    
C68   C100  A    
C101  C393  S    
C190  H30   S    
C128  C134  A    
C425  H335  S    
C46   N38   S    
C132  C136  A    
C317  H235  S    
C302  C303  A    
O4    Zn8   S    
O23   Zn11  S    
C345  C346  A    
C333  C338  A    
C52   C93   S    
C61   C345  S    
C453  C458  A    
C348  C349  A    
C417  C422  A    
C256  H143  S    
C28   C36   S    
C456  C457  A    
C312  H216  S    
C437  H345  S    
C431  H340  S    
C42   C50   A    
C336  H261  S    
C10   C25   S    
O32   Zn2   S    
C56   C89   S    
C458  H363  S    
C94   O18   A    
C140  N12   S    
C35   C277  S    
C358  H279  S    
C256  H142  S    
C67   C75   A    
C295  C300  A    
C155  N3    S    
C29   C37   S    
C85   C106  A    
C219  C220  A    
C457  C458  A    
O13   Zn9   S    
C399  C400  A    
C459  C460  A    
C246  H104  S    
C198  H45   S    
C261  H163  S    
N19   H121  S    
C71   C103  A    
C371  H290  S    
C271  C272  A    
C22   C30   S    
C457  H362  S    
C83   C112  A    
C150  O32   A    
C154  C162  A    
C1    O5    A    
C384  H301  S    
C303  H208  S    
C264  H176  S    
C177  C180  A    
C315  H227  S    
C15   C32   S    
C206  H51   S    
C14   C34   S    
C91   O15   A    
N30   H165  S    
C464  H368  S    
C188  H23   S    
C344  H268  S    
C12   C24   S    
C363  C368  A    
C13   C17   S    
C45   C85   A    
C343  H267  S    
C95   O19   A    
C66   C98   A    
C258  H151  S    
C460  H364  S    
C128  C140  A    
C72   C80   A    
C448  C449  A    
C16   C36   S    
C397  H312  S    
C405  C406  A    
C366  C367  A    
C422  H333  S    
C463  C464  A    
C208  H53   S    
C429  C434  A    
C196  H43   S    
C432  H341  S    
C427  C428  A    
C119  C129  A    
O2    Zn12  S    
C351  C356  A    
C408  C409  A    
C257  H148  S    
C17   C38   S    
N32   C264  S    
C384  C385  A    
C353  C354  A    
C130  C142  A    
C191  H36   S    
C352  C353  A    
C177  N17   S    
C19   C40   S    
C367  H287  S    
C14   H6    S    
C297  C298  A    
C340  C341  A    
C412  H324  S    
C113  C121  A    
C213  C214  A    
C385  H302  S    
C425  C426  A    
C415  H327  S    
C262  H168  S    
N24   H141  S    
C7    C30   S    
C119  C229  S    
C403  H317  S    
C6    O50   A    
C419  H330  S    
C159  N7    S    
C302  H207  S    
C148  O26   A    
N28   H157  S    
C349  H272  S    
C25   C33   S    
N35   C315  S    
C23   C31   S    
C115  C205  S    
C275  H185  S    
O3    Zn15  S    
C366  H286  S    
C89   O37   A    
C341  H265  S    
C96   O20   A    
C249  H114  S    
O22   Zn10  S    
C150  O30   A    
C308  H212  S    
N9    H81   S    
C381  C382  A    
C18   C26   S    
C212  C213  A    
C285  C286  A    
C76   C84   A    
C217  C218  A    
O41   Zn5   S    
N36   H229  S    
C245  H99   S    
C368  H288  S    
C155  C161  A    
C15   C19   S    
C316  H231  S    
C299  C300  A    
N13   H97   S    
C116  C122  A    
C267  C268  A    
C34   C271  S    
C386  H303  S    
O45   Zn9   S    
O28   Zn16  S    
N35   H225  S    
C190  H32   S    
C418  H329  S    
N37   C317  S    
C109  C441  S    
N29   H161  S    
C248  H111  S    
C68   C76   A    
C129  C141  A    
C348  H271  S    
C101  C109  A    
C328  H254  S    
C23   C36   S    
C339  C344  A    
C428  H338  S    
C43   C83   A    
C450  H356  S    
C188  H22   S    
C103  C111  A    
N7    H33   S    
C73   C81   A    
C300  H206  S    
C250  H119  S    
N31   H169  S    
C202  H48   S    
C225  C226  A    
C400  H314  S    
O11   Zn5   S    
O30   Zn4   S    
C294  H201  S    
C301  C302  A    
O6    Zn4   S    
N15   C247  S    
C393  C398  A    
C1    C28   S    
C385  C386  A    
N40   C320  S    
C359  H280  S    
C357  C362  A    
C166  C178  A    
C24   N32   S    
N39   C319  S    
C178  N18   S    
C272  H182  S    
C452  H358  S    
C32   C40   S    
C67   C99   A    
C167  C173  A    
C5    C32   S    
C110  C447  S    
C201  C202  A    
C47   C55   A    
C445  H352  S    
O24   Zn12  S    
N23   H137  S    
C417  C418  A    
C186  H14   S    
C153  C167  A    
C243  H92   S    
N19   C251  S    
C154  C168  A    
C286  H194  S    
C327  C332  A    
C158  N6    S    
C74   C82   A    
N30   C262  S    
N18   H117  S    
C320  H247  S    
C42   N34   S    
C4    C25   S    
C48   C88   A    
O36   Zn6   S    
C194  H41   S    
N21   C253  S    
C271  C276  A    
C48   N40   S    
C293  H200  S    
C84   C111  A    
C411  C412  A    
C437  C438  A    
C373  H292  S    
C50   C58   A    
C201  H47   S    
N34   H221  S    
C343  C344  A    
C239  H79   S    
C88   C107  A    
C230  H71   S    
C259  H156  S    
C157  N5    S    
C21   C34   S    
C54   C62   A    
C125  C137  A    
C237  H77   S    
C279  C280  A    
C265  C270  A    
O20   Zn16  S    
C202  C203  A    
C397  C398  A    
O26   Zn14  S    
C413  H325  S    
N16   H109  S    
N5    H25   S    
C175  C176  A    
C133  C134  A    
N14   C246  S    
C378  H296  S    
C426  C427  A    
C8    O12   A    
C332  H258  S    
C395  H310  S    
C41   C81   A    
C183  N23   S    
C4    O48   A    
C189  H28   S    
C204  H50   S    
O51   Zn15  S    
C338  H263  S    
C447  C448  A    
C402  H316  S    
C148  O28   A    
C169  C181  A    
N20   H125  S    
C149  O29   A    
C145  O21   A    
C283  C288  A    
C324  C325  A    
C255  H139  S    
C167  C179  A    
C2    C27   S    
C445  C446  A    
C120  C130  A    
C102  C110  A    
C264  H175  S    
C273  C274  A    
C367  C368  A    
C253  H132  S    
C443  C444  A    
C284  H192  S    
O1    Zn11  S    
C446  H353  S    
C331  C332  A    
C418  C419  A    
C63   C357  S    
C441  C442  A    
C181  C184  A    
C462  H366  S    
C20   C39   S    
C37   C289  S    
C420  H331  S    
C159  C169  A    
C38   C295  S    
C241  H82   S    
C301  C306  A    
C442  C443  A    
C349  C350  A    
C127  C133  A    
C57   C65   A    
C14   C29   S    
C44   C84   A    
C115  C125  A    
C403  C404  A    
C116  C126  A    
C224  C225  A    
C313  H218  S    
C70   C102  A    
C6    O10   A    
C323  H250  S    
C296  H202  S    
C286  C287  A    
O18   Zn14  S    
C20   C28   S    
C9    H1    S    
C345  C350  A    
C329  C330  A    
N2    H13   S    
C93   O41   A    
C253  H131  S    
C235  C236  A    
C444  H351  S    
C249  H116  S    
C54   C91   S    
C205  C206  A    
C168  C180  A    
C355  H277  S    
C199  C200  A    
C401  C402  A    
C182  N22   S    
N2    C186  S    
C75   C83   A    
C197  C198  A    
N1    H9    S    
C207  H52   S    
C43   C51   A    
C361  C362  A    
C137  C140  A    
C352  H274  S    
C358  C359  A    
C333  C334  A    
C435  C440  A    
C335  C336  A    
C113  C193  S    
C138  C139  A    
C459  C464  A    
O2    Zn10  S    
C75   C80   A    
C57   C321  S    
C454  C455  A    
C60   C68   A    
C190  H31   S    
C304  C305  A    
C194  C195  A    
C186  H16   S    
C431  C432  A    
C243  H90   S    
C314  H223  S    
O1    Zn1   S    
C142  C143  A    
C330  C331  A    
C439  C440  A    
N33   H217  S    
C311  H215  S    
C407  C408  A    
C124  C147  S    
C182  C183  A    
C3    O47   A    
C360  H281  S    
N18   C250  S    
C47   C87   A    
C317  H234  S    
C241  H84   S    
O10   Zn8   S    
C402  C403  A    
N28   C260  S    
C336  C337  A    
C276  H186  S    
C70   C78   A    
C325  C326  A    
C14   C18   S    
N10   H85   S    
C42   C82   A    
O43   Zn7   S    
C376  H294  S    
C24   C32   S    
C244  H94   S    
C444  C445  A    
C13   H5    S    
C261  H162  S    
C462  C463  A    
C241  H83   S    
C173  C174  A    
C223  C224  A    
C305  H210  S    
N27   H153  S    
C283  C284  A    
C185  H12   S    
O49   Zn13  S    
C380  H298  S    
C192  H38   S    
C255  H138  S    
C11   H3    S    
C187  H19   S    
C18   C37   S    
C2    O6    A    
C297  H203  S    
C260  H158  S    
C254  H136  S    
C131  C135  A    
C350  H273  S    
C318  H239  S    
C229  C234  A    
C387  C388  A    
C390  H306  S    
C287  C288  A    
C50   C95   S    
C242  H87   S    
C218  H61   S    
C454  H359  S    
C165  C173  A    
N26   H149  S    
C12   H4    S    
C214  H58   S    
C65   C73   A    
C430  C431  A    
C263  H170  S    
C1    O45   A    
C277  C282  A    
C122  C145  S    
O4    Zn16  S    
O15   Zn11  S    
C435  C436  A    
C220  C221  A    
C16   H8    S    
C10   H2    S    
C145  O23   A    
C120  C124  A    
C328  C329  A    
C58   C66   A    
C421  C422  A    
C87   C108  A    
N40   H245  S    
C341  C342  A    
C434  H343  S    
O3    Zn7   S    
C379  H297  S    
C234  H75   S    
C3    O7    A    
C308  C309  A    
C339  C340  A    
N3    C187  S    
N11   C243  S    
C19   C27   S    
C359  C360  A    
C157  C163  A    
C40   C307  S    
C141  N13   S    
C217  C222  A    
C393  C394  A    
C16   C20   S    
C394  H309  S    
C247  H108  S    
O12   Zn6   S    
C78   C86   A    
N6    H29   S    
C438  C439  A    
C347  H270  S    
C156  C162  A    
C322  H249  S    
N13   C245  S    
N8    H37   S    
C152  O36   A    
C195  H42   S    
C152  O34   A    
C46   C54   A    
C346  H269  S    
C127  C139  A    
C364  H284  S    
C36   C283  S    
N38   H237  S    
C15   C35   S    
C351  C352  A    
C362  H283  S    
C26   C34   S    
C442  H349  S    
C246  H103  S    
C169  C175  A    
C240  H80   S    
C279  H188  S    
C353  H275  S    
C221  H64   S    
C24   C35   S    
C259  H154  S    
C290  C291  A    
C270  H181  S    
C152  C163  S    
C263  H172  S    
C118  C132  A    
C292  C293  A    
C254  H134  S    
C236  H76   S    
C56   C64   A    
N27   C259  S    
O8    Zn2   S    
C245  H98   S    
N1    C185  S    
C191  H34   S    
C99   C381  S    
C354  H276  S    
C375  C376  A    
C181  N21   S    
C195  C196  A    
C410  H323  S    
C199  C204  A    
C171  C175  A    
C10   C22   S    
C106  C423  S    
C284  C285  A    
C372  H291  S    
C114  C122  A    
C430  H339  S    
O4    Zn14  S    
C326  H253  S    
C296  C297  A    
C210  H55   S    
C92   O16   A    
C98   C375  S    
C226  C227  A    
C172  C184  A    
C305  C306  A    
C4    O8    A    
C289  C294  A    
C192  H40   S    
N4    H21   S    
C53   C92   S    
C9    C37   S    
C269  C270  A    
C96   O44   A    
C105  C417  S    
C222  H65   S    
C257  H147  S    
C146  O22   A    
C285  H193  S    
C123  C148  S    
C212  H56   S    
C191  H35   S    
C231  C232  A    
C224  H66   S    
C420  C421  A    
C327  C328  A    
C187  H18   S    
C323  C324  A    
C334  H259  S    
C218  C219  A    
C411  C416  A    
C262  H167  S    
C189  H26   S    
C93   O17   A    
C322  C323  A    
C159  C163  A    
C258  H152  S    
C86   C105  A    
O27   Zn15  S    
C139  N11   S    
C371  C372  A    
O14   Zn10  S    
C432  C433  A    
C244  H96   S    
C153  N1    S    
C278  C279  A    
C389  H305  S    
C330  H256  S    
C205  C210  A    
C313  H220  S    
C125  C133  A    
C409  C410  A    
C48   C56   A    
C22   C33   S    
C299  H205  S    
C126  C138  A    
C423  C428  A    
C400  C401  A    
C433  C434  A    
C449  C450  A    
C395  C396  A    
C90   O38   A    
C266  C267  A    
C274  H184  S    
C451  C452  A    
C104  C411  S    
C292  H199  S    
C378  C379  A    
C113  C127  A    
C158  C164  A    
C180  N20   S    
N17   C249  S    
C316  H230  S    
C97   C369  S    
C319  H243  S    
C288  H196  S    
C260  H160  S    
N25   H145  S    
C406  C407  A    
C451  H357  S    
C185  H10   S    
C117  C123  A    
C65   C97   A    
C298  C299  A    
C388  C389  A    
N37   H233  S    
N32   H173  S    
C193  C198  A    
C429  C430  A    
C310  H214  S    
C337  C338  A    
C248  H110  S    
C238  C239  A    
C117  C131  A    
C232  C233  A    
C220  H63   S    
O3    Zn5   S    
C298  H204  S    
C20   N28   S    
N23   C255  S    
C31   C39   S    
C200  H46   S    
C219  H62   S    
C329  H255  S    
C242  H86   S    
C273  H183  S    
C64   C72   A    
C49   C96   S    
C250  H118  S    
C256  H144  S    
C147  O27   A    
C377  C378  A    
O7    Zn1   S    
C51   C94   S    
C45   C53   A    
C441  C446  A    
C121  C146  S    
C172  C176  A    
C114  C199  S    
C382  C383  A    
N15   H105  S    
C360  C361  A    
C7    O51   A    
C282  H191  S    
C108  C435  S    
C160  C170  A    
C388  H304  S    
C19   N27   S    
C456  H361  S    
O16   Zn12  S    
C5    O49   A    
N39   H241  S    
C262  H166  S    
C72   C104  A    
C398  H313  S    
C146  O24   A    
C236  C237  A    
C46   C86   A    
N3    H17   S    
