data_mof_unit_12140.cif
_audit_creation_date              2012-12-10T18:24:02-0500
_audit_creation_method            fapswitch 2.2
_symmetry_space_group_name_H-M    P1
_symmetry_Int_Tables_number       1
_space_group_crystal_system       triclinic
_cell_length_a                    22.329849
_cell_length_b                    22.546174
_cell_length_c                    14.6357
_cell_angle_alpha                 90.005443
_cell_angle_beta                  90.188299
_cell_angle_gamma                 89.999215
_cell_volume                      7368.34228422

loop_
_atom_site_label
_atom_site_type_symbol
_atom_type_description
_atom_site_fract_x
_atom_site_fract_y
_atom_site_fract_z
_atom_type_partial_charge
C1    C     C_R   0.419764 0.919783 0.499863 0.828158
C2    C     C_R   0.580234 0.080219 0.500137 0.828142
C3    C     C_R   0.580238 0.919786 0.500132 0.828162
C4    C     C_R   0.419764 0.080217 0.499868 0.828146
C5    C     C_R   0.919762 0.419785 0.499863 0.828153
C6    C     C_R   0.080236 0.580216 0.500137 0.828156
C7    C     C_R   0.080241 0.419788 0.500132 0.828154
C8    C     C_R   0.919759 0.580211 0.499868 0.828154
C9    C     C_1   0.338629 0.163789 0.498299 -0.086549
C10   C     C_1   0.661386 0.836226 0.501704 -0.086573
C11   C     C_1   0.661368 0.163792 0.501720 -0.086579
C12   C     C_1   0.338612 0.836226 0.498286 -0.086600
C13   C     C_1   0.838595 0.663755 0.498292 -0.086572
C14   C     C_1   0.161409 0.336247 0.501701 -0.086544
C15   C     C_1   0.161385 0.663775 0.501722 -0.086615
C16   C     C_1   0.838601 0.336238 0.498282 -0.086581
C17   C     C_1   0.498730 0.000008 0.194469 0.077583
C18   C     C_1   0.501266 0.999999 0.805531 0.077561
C19   C     C_1   0.998733 0.500001 0.194469 0.077574
C20   C     C_1   0.001270 0.499992 0.805531 0.077597
C21   C     C_3   0.529392 0.048750 0.971594 -0.018006
C22   C     C_3   0.470597 0.951270 0.028405 -0.018012
C23   C     C_3   0.470767 0.048855 0.028407 -0.018055
C24   C     C_3   0.529223 0.951162 0.971594 -0.018036
C25   C     C_3   0.029401 0.548732 0.971596 -0.018026
C26   C     C_3   0.970607 0.451251 0.028405 -0.018011
C27   C     C_3   0.970775 0.548839 0.028404 -0.018051
C28   C     C_3   0.029233 0.451146 0.971595 -0.018061
C29   C     C_3   0.706959 0.731117 0.557990 -0.026911
C30   C     C_3   0.293042 0.268886 0.441971 -0.026932
C31   C     C_3   0.292804 0.731330 0.441472 -0.026916
C32   C     C_3   0.707122 0.268744 0.558418 -0.026945
C33   C     C_3   0.207008 0.231160 0.558033 -0.026924
C34   C     C_3   0.793018 0.768860 0.442004 -0.026910
C35   C     C_3   0.792836 0.231296 0.441586 -0.026950
C36   C     C_3   0.207190 0.768672 0.558545 -0.026933
C37   C     C_3   0.227492 0.198072 0.470819 0.128210
C38   C     C_3   0.772519 0.801928 0.529224 0.128194
C39   C     C_3   0.772577 0.197992 0.528716 0.128210
C40   C     C_3   0.227377 0.802055 0.471449 0.128202
C41   C     C_3   0.727458 0.698048 0.470770 0.128195
C42   C     C_3   0.272556 0.301975 0.529184 0.128197
C43   C     C_3   0.272617 0.697949 0.528568 0.128210
C44   C     C_3   0.727383 0.302050 0.471288 0.128215
C45   C     C_1   0.375608 0.125428 0.499391 -0.202432
C46   C     C_1   0.624402 0.874582 0.500609 -0.202430
C47   C     C_1   0.624389 0.125432 0.500624 -0.202436
C48   C     C_1   0.375600 0.874579 0.499378 -0.202439
C49   C     C_1   0.875586 0.625406 0.499389 -0.202430
C50   C     C_1   0.124415 0.374595 0.500608 -0.202433
C51   C     C_1   0.124399 0.625421 0.500624 -0.202439
C52   C     C_1   0.875593 0.374586 0.499377 -0.202436
C53   C     C_3   0.273199 0.243196 0.584297 0.130615
C54   C     C_3   0.726833 0.756842 0.415699 0.130638
C55   C     C_3   0.726579 0.243412 0.415808 0.130657
C56   C     C_3   0.273468 0.756537 0.584169 0.130671
C57   C     C_3   0.773144 0.743135 0.584294 0.130640
C58   C     C_3   0.226850 0.256851 0.415706 0.130612
C59   C     C_3   0.226526 0.743467 0.415848 0.130676
C60   C     C_3   0.773380 0.256630 0.584197 0.130658
C61   C     C_3   0.293476 0.210190 0.497156 -0.029819
C62   C     C_3   0.706542 0.789827 0.502848 -0.029817
C63   C     C_3   0.706527 0.210189 0.502864 -0.029835
C64   C     C_3   0.293447 0.789835 0.497144 -0.029836
C65   C     C_3   0.793435 0.710150 0.497145 -0.029817
C66   C     C_3   0.206573 0.289856 0.502847 -0.029820
C67   C     C_3   0.206547 0.710168 0.502872 -0.029836
C68   C     C_3   0.793432 0.289851 0.497139 -0.029835
C69   C     C_3   0.555212 0.999916 0.035351 0.137407
C70   C     C_3   0.444778 0.000103 0.964648 0.137400
C71   C     C_3   0.055220 0.499899 0.035354 0.137422
C72   C     C_3   0.944787 0.500084 0.964647 0.137430
C73   C     C_3   0.496771 0.000021 0.092333 -0.094710
C74   C     C_3   0.503220 0.999997 0.907667 -0.094683
C75   C     C_3   0.996777 0.500004 0.092333 -0.094692
C76   C     C_3   0.003230 0.499980 0.907668 -0.094718
Cu1   Cu    Cu3+1 0.500000 0.000000 0.590220 0.951113
Cu2   Cu    Cu3+1 0.500000 0.000000 0.409780 0.951121
Cu3   Cu    Cu3+1 0.000000 0.500000 0.590220 0.951127
Cu4   Cu    Cu3+1 1.000000 0.500000 0.409780 0.951118
N1    N     N_1   0.499980 0.000000 0.274190 -0.163000
N2    N     N_1   0.500020 0.000000 0.725810 -0.163012
N3    N     N_1   0.999980 0.500000 0.274190 -0.163004
N4    N     N_1   0.000020 0.500000 0.725810 -0.162992
O1    O     O_R   0.439540 0.939530 0.576170 -0.571596
O2    O     O_R   0.560460 0.060470 0.423830 -0.571605
O3    O     O_R   0.560460 0.939530 0.423830 -0.571577
O4    O     O_R   0.439540 0.060470 0.576170 -0.571591
O5    O     O_R   0.939540 0.439530 0.576170 -0.571595
O6    O     O_R   0.060460 0.560470 0.423830 -0.571601
O7    O     O_R   0.060460 0.439530 0.423830 -0.571580
O8    O     O_R   0.939540 0.560470 0.576170 -0.571581
O9    O     O_R   0.439530 0.939530 0.423800 -0.577145
O10   O     O_R   0.560470 0.060470 0.576200 -0.577158
O11   O     O_R   0.560470 0.939530 0.576200 -0.577174
O12   O     O_R   0.439530 0.060470 0.423800 -0.577181
O13   O     O_R   0.939530 0.439530 0.423800 -0.577157
O14   O     O_R   0.060470 0.560470 0.576200 -0.577153
O15   O     O_R   0.060470 0.439530 0.576200 -0.577180
O16   O     O_R   0.939530 0.560470 0.423800 -0.577182
C77   C     C_3   0.382373 0.000200 0.920148 -0.389207
C78   C     C_3   0.331619 0.000325 0.989806 -0.820322
H1    H     H_    0.333424 0.960255 0.033532 0.260346
H2    H     H_    0.333614 0.040390 0.033537 0.260368
H3    H     H_    0.288017 0.000424 0.953144 0.232584
H4    H     H_    0.378111 0.040017 0.875944 0.199636
H5    H     H_    0.377961 0.960363 0.876010 0.199680
C79   C     C_3   0.617621 0.999820 0.079839 -0.389234
C80   C     C_3   0.668367 0.999719 0.010168 -0.820269
H6    H     H_    0.666393 0.959644 0.966455 0.260365
H7    H     H_    0.666528 0.039779 0.966423 0.260335
H8    H     H_    0.711974 0.999656 0.046817 0.232595
H9    H     H_    0.622030 0.039649 0.123994 0.199643
H10   H     H_    0.621895 0.959995 0.124025 0.199662
C81   C     C_3   0.882382 0.500176 0.920149 -0.389212
C82   C     C_3   0.831629 0.500288 0.989810 -0.820296
H11   H     H_    0.833457 0.460229 0.033559 0.260338
H12   H     H_    0.833604 0.540364 0.033519 0.260369
H13   H     H_    0.788026 0.500356 0.953151 0.232598
H14   H     H_    0.878112 0.539995 0.875951 0.199656
H15   H     H_    0.877975 0.460340 0.876007 0.199666
C83   C     C_3   0.117623 0.499800 0.079864 -0.389184
C84   C     C_3   0.168382 0.499689 0.010217 -0.820350
H16   H     H_    0.166400 0.459625 0.966483 0.260370
H17   H     H_    0.166574 0.539760 0.966493 0.260350
H18   H     H_    0.211982 0.499597 0.046887 0.232587
H19   H     H_    0.122028 0.539633 0.124014 0.199675
H20   H     H_    0.121884 0.459977 0.124055 0.199659
C85   C     C_3   0.206590 0.136328 0.439661 -0.375234
C86   C     C_3   0.139868 0.133949 0.416885 -0.830600
H21   H     H_    0.112566 0.151056 0.474265 0.264152
H22   H     H_    0.129838 0.159875 0.354469 0.247803
H23   H     H_    0.126662 0.087224 0.403856 0.237202
H24   H     H_    0.232859 0.122346 0.379169 0.200748
H25   H     H_    0.216159 0.103919 0.494851 0.193788
C87   C     C_3   0.793415 0.863657 0.560435 -0.375271
C88   C     C_3   0.860133 0.866018 0.583240 -0.830578
H26   H     H_    0.870148 0.840054 0.645624 0.247811
H27   H     H_    0.887445 0.848936 0.525853 0.264149
H28   H     H_    0.873335 0.912733 0.596337 0.237226
H29   H     H_    0.783854 0.896082 0.505266 0.193781
H30   H     H_    0.767130 0.877616 0.620922 0.200746
C89   C     C_3   0.793553 0.136164 0.559338 -0.375255
C90   C     C_3   0.860327 0.133723 0.581743 -0.830489
H31   H     H_    0.887497 0.151054 0.524380 0.264142
H32   H     H_    0.870487 0.159420 0.644344 0.247773
H33   H     H_    0.873578 0.086956 0.594279 0.237247
H34   H     H_    0.767423 0.122012 0.619873 0.200693
H35   H     H_    0.783858 0.103910 0.503974 0.193795
C91   C     C_3   0.206380 0.863912 0.441014 -0.375290
C92   C     C_3   0.139591 0.866370 0.418722 -0.830471
H36   H     H_    0.129394 0.840748 0.356063 0.247776
H37   H     H_    0.112462 0.848963 0.476075 0.264142
H38   H     H_    0.126329 0.913150 0.406342 0.237263
H39   H     H_    0.216114 0.896104 0.496446 0.193815
H40   H     H_    0.232471 0.878126 0.380475 0.200663
C93   C     C_3   0.706564 0.636319 0.439559 -0.375274
C94   C     C_3   0.639845 0.633957 0.416757 -0.830579
H41   H     H_    0.612534 0.651034 0.474148 0.264150
H42   H     H_    0.629827 0.659924 0.354377 0.247811
H43   H     H_    0.626644 0.587242 0.403655 0.237224
H44   H     H_    0.732848 0.622362 0.379069 0.200746
H45   H     H_    0.716126 0.603894 0.494726 0.193779
C95   C     C_3   0.293454 0.363720 0.560339 -0.375238
C96   C     C_3   0.360175 0.366103 0.583127 -0.830593
H46   H     H_    0.370201 0.340176 0.645545 0.247802
H47   H     H_    0.387482 0.348997 0.525752 0.264156
H48   H     H_    0.373378 0.412827 0.596159 0.237200
H49   H     H_    0.283889 0.396126 0.505143 0.193794
H50   H     H_    0.267181 0.377705 0.620825 0.200732
C97   C     C_3   0.293612 0.636093 0.559011 -0.375289
C98   C     C_3   0.360403 0.633632 0.581291 -0.830471
H51   H     H_    0.387529 0.651021 0.523923 0.264147
H52   H     H_    0.370609 0.659268 0.643933 0.247777
H53   H     H_    0.373660 0.586853 0.593696 0.237261
H54   H     H_    0.267525 0.621885 0.619558 0.200668
H55   H     H_    0.283873 0.603896 0.503587 0.193814
C99   C     C_3   0.706410 0.363879 0.440671 -0.375253
C100  C     C_3   0.639636 0.366324 0.418262 -0.830488
H56   H     H_    0.629474 0.340619 0.355670 0.247772
H57   H     H_    0.612463 0.349006 0.475629 0.264148
H58   H     H_    0.626391 0.413091 0.405706 0.237243
H59   H     H_    0.716105 0.396130 0.496040 0.193796
H60   H     H_    0.732543 0.378032 0.380140 0.200685
C101  C     C_R   0.661061 0.706129 0.623618 0.131533
C102  C     C_R   0.672778 0.651910 0.667709 -0.138112
C103  C     C_R   0.631615 0.627991 0.729271 -0.146923
C104  C     C_R   0.578100 0.657718 0.747198 -0.113057
C105  C     C_R   0.565592 0.711238 0.703200 -0.138014
C106  C     C_R   0.606689 0.735326 0.641612 -0.183146
H61   H     H_    0.713857 0.628010 0.654602 0.114294
H62   H     H_    0.641233 0.586347 0.763051 0.123199
H63   H     H_    0.546266 0.639220 0.794964 0.121671
H64   H     H_    0.524014 0.734213 0.716947 0.133291
H65   H     H_    0.595314 0.776564 0.608983 0.145153
C107  C     C_R   0.338931 0.293869 0.376307 0.131516
C108  C     C_R   0.327192 0.348059 0.332137 -0.138124
C109  C     C_R   0.368345 0.371962 0.270539 -0.146941
C110  C     C_R   0.421876 0.342252 0.252659 -0.113051
C111  C     C_R   0.434413 0.288769 0.296745 -0.137985
C112  C     C_R   0.393325 0.264697 0.358367 -0.183176
H66   H     H_    0.286104 0.371950 0.345213 0.114313
H67   H     H_    0.358710 0.413583 0.236697 0.123217
H68   H     H_    0.453702 0.360739 0.204865 0.121683
H69   H     H_    0.476005 0.265810 0.283041 0.133297
H70   H     H_    0.404724 0.223489 0.391070 0.145144
C113  C     C_R   0.338465 0.706553 0.375261 0.131438
C114  C     C_R   0.326527 0.652547 0.330670 -0.138145
C115  C     C_R   0.367470 0.628829 0.268575 -0.147248
C116  C     C_R   0.420992 0.658533 0.250628 -0.113212
C117  C     C_R   0.433732 0.711824 0.295145 -0.137525
C118  C     C_R   0.392851 0.735717 0.357255 -0.183169
H71   H     H_    0.285448 0.628657 0.343805 0.114368
H72   H     H_    0.357678 0.587355 0.234404 0.123247
H73   H     H_    0.452655 0.640192 0.202449 0.121727
H74   H     H_    0.475319 0.734777 0.281390 0.133402
H75   H     H_    0.404406 0.776775 0.390289 0.145224
C119  C     C_R   0.661406 0.293579 0.624499 0.131459
C120  C     C_R   0.673294 0.347634 0.668984 -0.138128
C121  C     C_R   0.632299 0.371402 0.730957 -0.147162
C122  C     C_R   0.578776 0.341696 0.748894 -0.113135
C123  C     C_R   0.566087 0.288354 0.704488 -0.137646
C124  C     C_R   0.607019 0.264414 0.642495 -0.183190
H76   H     H_    0.714373 0.371524 0.655862 0.114342
H77   H     H_    0.642050 0.412916 0.765045 0.123203
H78   H     H_    0.547073 0.360077 0.796978 0.121700
H79   H     H_    0.524500 0.265399 0.718235 0.133358
H80   H     H_    0.595505 0.223315 0.609548 0.145191
C125  C     C_R   0.161125 0.206179 0.623709 0.131507
C126  C     C_R   0.172863 0.151982 0.667859 -0.138124
C127  C     C_R   0.131720 0.128081 0.729474 -0.146946
C128  C     C_R   0.078202 0.157803 0.747396 -0.113096
C129  C     C_R   0.065667 0.211295 0.703334 -0.137949
C130  C     C_R   0.106745 0.235364 0.641694 -0.183138
H81   H     H_    0.213943 0.128084 0.654757 0.114314
H82   H     H_    0.141354 0.086454 0.763300 0.123224
H83   H     H_    0.046384 0.139319 0.795205 0.121686
H84   H     H_    0.024087 0.234266 0.717074 0.133319
H85   H     H_    0.095350 0.276582 0.609017 0.145152
C131  C     C_R   0.838916 0.793850 0.376377 0.131535
C132  C     C_R   0.827197 0.848068 0.332283 -0.138112
C133  C     C_R   0.868360 0.871988 0.270722 -0.146926
C134  C     C_R   0.921877 0.842265 0.252800 -0.113054
C135  C     C_R   0.934388 0.788747 0.296802 -0.138013
C136  C     C_R   0.893291 0.764657 0.358389 -0.183155
H86   H     H_    0.786116 0.871965 0.345387 0.114294
H87   H     H_    0.858739 0.913631 0.236940 0.123201
H88   H     H_    0.953712 0.860764 0.205036 0.121671
H89   H     H_    0.975968 0.765775 0.283060 0.133292
H90   H     H_    0.904669 0.723421 0.391021 0.145154
C137  C     C_R   0.838546 0.206461 0.375495 0.131444
C138  C     C_R   0.826657 0.152400 0.331027 -0.138106
C139  C     C_R   0.867643 0.128633 0.269039 -0.147159
C140  C     C_R   0.921156 0.158347 0.251066 -0.113178
C141  C     C_R   0.933843 0.211697 0.295450 -0.137609
C142  C     C_R   0.892922 0.235636 0.357458 -0.183159
H91   H     H_    0.785584 0.128505 0.344172 0.114333
H92   H     H_    0.857892 0.087114 0.234966 0.123205
H93   H     H_    0.952850 0.139968 0.202968 0.121700
H94   H     H_    0.975421 0.234661 0.281671 0.133377
H95   H     H_    0.904433 0.276743 0.390382 0.145200
C143  C     C_R   0.161524 0.793442 0.624757 0.131431
C144  C     C_R   0.173457 0.847443 0.669363 -0.138130
C145  C     C_R   0.132513 0.871148 0.731469 -0.147252
C146  C     C_R   0.078994 0.841436 0.749410 -0.113209
C147  C     C_R   0.066257 0.788151 0.704873 -0.137519
C148  C     C_R   0.107140 0.764272 0.642753 -0.183177
H96   H     H_    0.214533 0.871339 0.656235 0.114361
H97   H     H_    0.142301 0.912618 0.765655 0.123248
H98   H     H_    0.047331 0.859766 0.797597 0.121729
H99   H     H_    0.024672 0.765193 0.718620 0.133403
H100  H     H_    0.095587 0.723218 0.609706 0.145229
C149  C     C_3   0.696971 0.768623 0.322685 -0.369670
C150  C     C_3   0.724944 0.732946 0.245186 -0.850940
H101  H     H_    0.773455 0.742441 0.239694 0.256193
H102  H     H_    0.718374 0.684777 0.255732 0.253301
H103  H     H_    0.703230 0.745400 0.179596 0.234300
H104  H     H_    0.648500 0.758338 0.327152 0.200769
H105  H     H_    0.700671 0.816511 0.306307 0.194632
C151  C     C_3   0.303083 0.231452 0.677316 -0.369618
C152  C     C_3   0.275117 0.267141 0.754812 -0.850917
H106  H     H_    0.281650 0.315310 0.744216 0.253294
H107  H     H_    0.226616 0.257617 0.760353 0.256186
H108  H     H_    0.296860 0.254730 0.820404 0.234262
H109  H     H_    0.299405 0.183567 0.693732 0.194614
H110  H     H_    0.351551 0.241749 0.672824 0.200751
C153  C     C_3   0.303691 0.767942 0.677027 -0.369660
C154  C     C_3   0.275964 0.732012 0.754441 -0.851031
H111  H     H_    0.227499 0.741587 0.760487 0.256132
H112  H     H_    0.282383 0.683872 0.743356 0.253304
H113  H     H_    0.297970 0.744155 0.819947 0.234104
H114  H     H_    0.352131 0.757617 0.672043 0.200770
H115  H     H_    0.300116 0.815774 0.693873 0.194584
C155  C     C_3   0.696441 0.231927 0.322902 -0.369621
C156  C     C_3   0.724226 0.267804 0.245473 -0.851003
H116  H     H_    0.717761 0.315949 0.256431 0.253301
H117  H     H_    0.772703 0.258257 0.239569 0.256142
H118  H     H_    0.702300 0.255586 0.179937 0.234106
H119  H     H_    0.700046 0.184084 0.306150 0.194588
H120  H     H_    0.647993 0.242242 0.327763 0.200754
C157  C     C_3   0.196968 0.268594 0.322684 -0.369618
C158  C     C_3   0.224935 0.232905 0.245190 -0.850881
H121  H     H_    0.273439 0.242417 0.239663 0.256186
H122  H     H_    0.218390 0.184737 0.255777 0.253290
H123  H     H_    0.203202 0.245323 0.179594 0.234278
H124  H     H_    0.148500 0.258298 0.327175 0.200760
H125  H     H_    0.200646 0.316479 0.306268 0.194608
C159  C     C_3   0.803006 0.731354 0.677309 -0.369668
C160  C     C_3   0.775033 0.767030 0.754808 -0.850942
H126  H     H_    0.781602 0.815199 0.744262 0.253301
H127  H     H_    0.726522 0.757534 0.760301 0.256194
H128  H     H_    0.796748 0.754577 0.820397 0.234301
H129  H     H_    0.799305 0.683465 0.693686 0.194633
H130  H     H_    0.851477 0.741638 0.672842 0.200771
C161  C     C_3   0.803519 0.268119 0.677100 -0.369621
C162  C     C_3   0.775729 0.232255 0.754539 -0.850978
H131  H     H_    0.727256 0.241820 0.760455 0.256144
H132  H     H_    0.782173 0.184107 0.743579 0.253303
H133  H     H_    0.797668 0.244465 0.820069 0.234120
H134  H     H_    0.851966 0.257796 0.672243 0.200768
H135  H     H_    0.799923 0.315964 0.693840 0.194585
C163  C     C_3   0.196303 0.732064 0.322989 -0.369661
C164  C     C_3   0.224038 0.767990 0.245575 -0.851024
H136  H     H_    0.217646 0.816132 0.256675 0.253308
H137  H     H_    0.272497 0.758391 0.239511 0.256129
H138  H     H_    0.202017 0.755865 0.180073 0.234101
H139  H     H_    0.199872 0.684232 0.306144 0.194588
H140  H     H_    0.147865 0.742397 0.327971 0.200774
C165  C     C_R   0.436199 0.104561 0.051403 0.109844
C166  C     C_R   0.423941 0.145993 0.982012 -0.129711
C167  C     C_R   0.391727 0.197649 0.001206 -0.143528
C168  C     C_R   0.370753 0.208100 0.089540 -0.106269
C169  C     C_R   0.381683 0.166701 0.158582 -0.139921
C170  C     C_R   0.414289 0.115223 0.139838 -0.170620
H141  H     H_    0.439491 0.138357 0.912989 0.126325
H142  H     H_    0.382877 0.229481 0.947483 0.123418
H143  H     H_    0.345735 0.248062 0.104320 0.133529
H144  H     H_    0.364575 0.174219 0.226667 0.142333
H145  H     H_    0.420925 0.083731 0.194290 0.148018
C171  C     C_R   0.563797 0.895460 0.948598 0.109791
C172  C     C_R   0.576037 0.854014 0.017973 -0.129822
C173  C     C_R   0.608264 0.802367 0.998778 -0.143546
C174  C     C_R   0.629268 0.791936 0.910456 -0.106273
C175  C     C_R   0.618352 0.833348 0.841429 -0.139950
C176  C     C_R   0.585735 0.884818 0.860175 -0.170570
H146  H     H_    0.560464 0.861634 0.086983 0.126357
H147  H     H_    0.617102 0.770522 0.052486 0.123433
H148  H     H_    0.654296 0.751980 0.895677 0.133509
H149  H     H_    0.635479 0.825843 0.773357 0.142302
H150  H     H_    0.579113 0.916323 0.805739 0.148031
C177  C     C_R   0.564157 0.104330 0.948594 0.109866
C178  C     C_R   0.576487 0.145773 0.017951 -0.129786
C179  C     C_R   0.608877 0.197315 0.998748 -0.143410
C180  C     C_R   0.629971 0.207631 0.910448 -0.106174
C181  C     C_R   0.618982 0.166208 0.841448 -0.139904
C182  C     C_R   0.586190 0.114851 0.860195 -0.170589
H151  H     H_    0.560856 0.138236 0.086953 0.126390
H152  H     H_    0.617771 0.229164 0.052438 0.123339
H153  H     H_    0.655126 0.247505 0.895666 0.133616
H154  H     H_    0.636187 0.173616 0.773394 0.142344
H155  H     H_    0.579512 0.083332 0.805781 0.148014
C183  C     C_R   0.435809 0.895709 0.051431 0.109873
C184  C     C_R   0.423536 0.854210 0.982131 -0.129913
C185  C     C_R   0.391097 0.802702 0.001357 -0.143434
C186  C     C_R   0.369886 0.792482 0.089617 -0.106141
C187  C     C_R   0.380814 0.833964 0.158554 -0.139925
C188  C     C_R   0.413661 0.885283 0.139788 -0.170511
H156  H     H_    0.439245 0.861680 0.913156 0.126461
H157  H     H_    0.382248 0.770808 0.947716 0.123326
H158  H     H_    0.344687 0.752638 0.104413 0.133667
H159  H     H_    0.363517 0.826632 0.226570 0.142348
H160  H     H_    0.420279 0.916858 0.194142 0.147985
C189  C     C_R   0.936198 0.604539 0.051400 0.109792
C190  C     C_R   0.923956 0.645984 0.982024 -0.129815
C191  C     C_R   0.891725 0.697629 0.001218 -0.143553
C192  C     C_R   0.870719 0.708059 0.089538 -0.106274
C193  C     C_R   0.881638 0.666648 0.158566 -0.139945
C194  C     C_R   0.914258 0.615180 0.139822 -0.170578
H161  H     H_    0.939531 0.638365 0.913015 0.126357
H162  H     H_    0.882885 0.729473 0.947509 0.123434
H163  H     H_    0.845687 0.748012 0.104316 0.133511
H164  H     H_    0.864508 0.674151 0.226637 0.142305
H165  H     H_    0.920883 0.583675 0.194258 0.148020
C195  C     C_R   0.063813 0.395450 0.948583 0.109815
C196  C     C_R   0.076027 0.353980 0.017936 -0.129798
C197  C     C_R   0.108253 0.302334 0.998721 -0.143555
C198  C     C_R   0.129288 0.291934 0.910407 -0.106264
C199  C     C_R   0.118406 0.333375 0.841407 -0.139950
C200  C     C_R   0.085786 0.384841 0.860171 -0.170569
H166  H     H_    0.060434 0.361577 0.086944 0.126375
H167  H     H_    0.117067 0.270469 0.052411 0.123433
H168  H     H_    0.154315 0.251981 0.895613 0.133542
H169  H     H_    0.135563 0.325898 0.773343 0.142312
H170  H     H_    0.079192 0.416370 0.805757 0.147997
C201  C     C_R   0.064189 0.604293 0.948572 0.109873
C202  C     C_R   0.076462 0.645790 0.017872 -0.129903
C203  C     C_R   0.108904 0.697297 0.998648 -0.143436
C204  C     C_R   0.130115 0.707518 0.910388 -0.106141
C205  C     C_R   0.119186 0.666037 0.841450 -0.139918
C206  C     C_R   0.086337 0.614719 0.860214 -0.170524
H171  H     H_    0.060754 0.638320 0.086847 0.126461
H172  H     H_    0.117754 0.729191 0.052290 0.123323
H173  H     H_    0.155316 0.747361 0.895594 0.133673
H174  H     H_    0.136484 0.673368 0.773434 0.142348
H175  H     H_    0.079718 0.583145 0.805860 0.147975
C207  C     C_R   0.935834 0.395679 0.051424 0.109832
C208  C     C_R   0.923545 0.354198 0.982106 -0.129871
C209  C     C_R   0.891146 0.302665 0.001333 -0.143432
C210  C     C_R   0.869996 0.292400 0.089616 -0.106174
C211  C     C_R   0.880939 0.333864 0.158573 -0.139930
C212  C     C_R   0.913743 0.385210 0.139804 -0.170534
H176  H     H_    0.939216 0.361697 0.913117 0.126438
H177  H     H_    0.882286 0.270783 0.947677 0.123348
H178  H     H_    0.844833 0.252533 0.104415 0.133637
H179  H     H_    0.863691 0.326496 0.226610 0.142313
H180  H     H_    0.920379 0.416766 0.194178 0.147995

loop_
_geom_bond_atom_site_label_1
_geom_bond_atom_site_label_2
_ccdc_geom_bond_type
C77   H5    S    
C136  H90   S    
C93   C94   S    
C71   C83   S    
C197  H167  S    
C101  C106  A    
C169  C170  A    
C152  H108  S    
C145  H97   S    
C7    O15   A    
Cu3   O15   S    
C173  H147  S    
C33   C125  S    
C89   C90   S    
C79   C80   S    
C150  H101  S    
C31   C59   S    
C125  C130  A    
C151  H109  S    
C55   C155  S    
C4    O12   A    
C139  H92   S    
Cu1   O4    S    
Cu2   O12   S    
C70   C74   S    
C165  C170  A    
C127  H82   S    
C8    O8    A    
C38   C87   S    
C60   C161  S    
C34   C131  S    
C98   H53   S    
Cu1   N2    S    
C200  H170  S    
C1    O1    A    
Cu4   N3    S    
C27   C75   S    
C5    O5    A    
C88   H28   S    
C166  C167  A    
C164  H136  S    
C154  H113  S    
C137  C138  A    
C171  C172  A    
C177  C182  A    
C107  C108  A    
C84   H18   S    
C157  C158  S    
C3    O3    A    
C28   C195  S    
C162  H131  S    
C79   H9    S    
C146  H98   S    
C31   C113  S    
C125  C126  A    
C38   C57   S    
C148  H100  S    
C181  C182  A    
C172  H146  S    
C178  C179  A    
C40   C91   S    
C151  C152  S    
C97   C98   S    
C203  H172  S    
C34   C54   S    
C110  H68   S    
C28   C71   S    
C198  C199  A    
C175  H149  S    
C90   H31   S    
C191  C192  A    
C1    C48   S    
C2    C47   S    
C3    C46   S    
C149  H104  S    
C25   C76   S    
C86   H21   S    
C193  H164  S    
C186  C187  A    
C44   C55   S    
C137  C142  A    
C14   C50   T    
C123  H79   S    
C39   C60   S    
C18   N2    T    
C82   H12   S    
C190  H161  S    
C92   H37   S    
C58   C157  S    
C159  H129  S    
C98   H51   S    
C89   H35   S    
C1    O9    A    
C134  H88   S    
C194  H165  S    
C30   C61   S    
C103  C104  A    
C102  C103  A    
C187  H159  S    
C32   C119  S    
C138  C139  A    
C38   C62   S    
Cu2   O3    S    
C53   C151  S    
C114  H71   S    
C81   H15   S    
Cu4   O13   S    
C184  H156  S    
C95   H50   S    
C177  C178  A    
C99   C100  S    
C70   C77   S    
C84   H16   S    
C156  H117  S    
C191  H162  S    
C135  C136  A    
C72   C81   S    
C161  H134  S    
C158  H121  S    
C31   C43   S    
C162  H133  S    
C9    C61   S    
C140  H93   S    
C11   C63   S    
C147  H99   S    
C80   H7    S    
C42   C53   S    
Cu3   N4    S    
C12   C64   S    
C42   C95   S    
C183  C184  A    
C157  H125  S    
C81   C82   S    
Cu1   O10   S    
C210  H178  S    
C185  C186  A    
C132  C133  A    
C176  H150  S    
C190  C191  A    
C59   C67   S    
C120  H76   S    
C85   H25   S    
C53   C61   S    
C163  H140  S    
C37   C85   S    
C199  C200  A    
C55   C63   S    
C56   C64   S    
C25   C71   S    
C167  H142  S    
C193  C194  A    
C117  H74   S    
C24   C171  S    
Cu1   O1    S    
C96   H47   S    
C17   C73   S    
C23   C70   S    
C126  C127  A    
C90   H33   S    
C19   N3    T    
C170  H145  S    
C121  C122  A    
C98   H52   S    
C33   C66   S    
C26   C75   S    
C4    C45   S    
C160  H127  S    
C32   C44   S    
C89   H34   S    
C158  H122  S    
C135  H89   S    
C77   C78   S    
C2    O10   A    
C168  C169  A    
C44   C99   S    
C143  C148  A    
C43   C97   S    
C6    O6    A    
C153  H115  S    
C21   C69   S    
C164  H137  S    
C154  H112  S    
C185  H157  S    
C122  C123  A    
C201  C206  A    
C184  C185  A    
C15   C67   S    
C115  C116  A    
C103  H62   S    
C108  H66   S    
C211  C212  A    
C188  H160  S    
C106  H65   S    
C5    O13   A    
C104  H63   S    
C15   C51   T    
C91   H39   S    
C20   N4    T    
C59   C163  S    
C128  H83   S    
C157  H124  S    
C171  C176  A    
C85   C86   S    
C77   H4    S    
C141  H94   S    
C29   C41   S    
C212  H180  S    
C7    C50   S    
C87   C88   S    
C168  H143  S    
C3    O11   A    
C143  C144  A    
C4    O4    A    
C152  H107  S    
C97   H54   S    
C166  H141  S    
C8    O16   A    
C155  H119  S    
C203  C204  A    
C23   C165  S    
C93   H44   S    
C131  C132  A    
C29   C101  S    
C150  H102  S    
C27   C189  S    
C108  C109  A    
C151  H110  S    
Cu3   O5    S    
C110  C111  A    
C175  C176  A    
C43   C67   S    
C180  C181  A    
C91   C92   S    
C97   H55   S    
C107  C112  A    
C22   C183  S    
C22   C70   S    
C9    C45   T    
C111  H69   S    
C150  H103  S    
C26   C72   S    
C11   C47   T    
C12   C48   T    
C179  C180  A    
C131  C136  A    
C144  C145  A    
Cu1   Cu2   S    
C192  C193  A    
C88   H27   S    
C6    O14   A    
C95   C96   S    
C155  C156  S    
C84   H17   S    
C118  H75   S    
C134  C135  A    
C78   H3    S    
C162  H132  S    
C79   H10   S    
C102  H61   S    
C187  C188  A    
C87   H30   S    
C94   H43   S    
C209  H177  S    
C30   C107  S    
C114  C115  A    
C92   H36   S    
C69   C73   S    
C99   H59   S    
C72   C76   S    
C100  H58   S    
C163  C164  S    
C161  C162  S    
C34   C38   S    
C142  H95   S    
C94   H42   S    
C10   C62   S    
C138  H91   S    
C183  C188  A    
C144  H96   S    
C132  H86   S    
C119  C124  A    
C202  C203  A    
C90   H32   S    
C120  C121  A    
C192  H163  S    
C54   C62   S    
C199  H169  S    
C172  C173  A    
C122  H78   S    
C33   C37   S    
C113  C114  A    
C36   C143  S    
C57   C159  S    
C86   H22   S    
C129  H84   S    
C140  C141  A    
C36   C56   S    
C117  C118  A    
C7    O7    A    
C35   C137  S    
C133  C134  A    
C105  H64   S    
C126  H81   S    
C149  H105  S    
C159  H130  S    
C41   C93   S    
C29   C57   S    
C207  C212  A    
C21   C23   S    
C22   C24   S    
C86   H23   S    
C32   C60   S    
C28   C76   S    
C156  H116  S    
C196  C197  A    
C205  C206  A    
C173  C174  A    
C204  H173  S    
C16   C52   T    
C57   C65   S    
C202  H171  S    
C201  C202  A    
C115  H72   S    
Cu4   O7    S    
C197  C198  A    
C211  H179  S    
C80   H6    S    
C154  H111  S    
Cu2   N1    S    
C101  C102  A    
C139  C140  A    
C169  H144  S    
C128  C129  A    
C112  H70   S    
C17   N1    T    
C83   H20   S    
C105  C106  A    
C100  H56   S    
C209  C210  A    
C60   C68   S    
C109  H67   S    
C207  C208  A    
C30   C42   S    
C195  C200  A    
C8    C49   S    
C27   C72   S    
C116  H73   S    
C174  C175  A    
C96   H46   S    
C165  C166  A    
Cu3   O14   S    
C35   C39   S    
C167  C168  A    
C195  C196  A    
C36   C67   S    
C13   C65   S    
C160  H126  S    
C158  H123  S    
C87   H29   S    
Cu2   O9    S    
C180  H153  S    
C83   H19   S    
C82   H11   S    
C20   C76   S    
C92   H38   S    
C210  C211  A    
C153  C154  S    
C111  C112  A    
C10   C46   T    
C208  C209  A    
C5    C52   S    
C109  C110  A    
C16   C68   S    
C6    C51   S    
C146  C147  A    
C93   H45   S    
C179  H152  S    
Cu2   O2    S    
C181  H154  S    
C18   C74   S    
C40   C59   S    
C91   H40   S    
C174  H148  S    
Cu4   O16   S    
C95   H49   S    
C78   H1    S    
C23   C73   S    
C34   C65   S    
C69   C79   S    
C58   C66   S    
C24   C69   S    
C156  H118  S    
C33   C53   S    
C41   C54   S    
C35   C55   S    
C36   C40   S    
C198  H168  S    
C80   H8    S    
C124  H80   S    
C145  C146  A    
C41   C65   S    
C152  H106  S    
C21   C74   S    
Cu1   O11   S    
C196  H166  S    
C104  C105  A    
C189  C194  A    
C155  H120  S    
C163  H139  S    
C149  C150  S    
C14   C66   S    
C208  H176  S    
C78   H2    S    
Cu3   O8    S    
C186  H158  S    
C13   C49   T    
C25   C201  S    
C206  H175  S    
C39   C89   S    
C116  C117  A    
C96   H48   S    
C113  C118  A    
C44   C68   S    
C141  C142  A    
C159  C160  S    
C129  C130  A    
C160  H128  S    
C29   C62   S    
C153  H114  S    
C31   C64   S    
C37   C58   S    
C32   C63   S    
C37   C61   S    
C25   C27   S    
C39   C63   S    
C88   H26   S    
C26   C28   S    
C133  H87   S    
C40   C64   S    
C82   H13   S    
C164  H138  S    
C205  H174  S    
C19   C75   S    
C189  C190  A    
C161  H135  S    
C71   C75   S    
C24   C74   S    
C119  C120  A    
C94   H41   S    
C35   C68   S    
C54   C149  S    
C182  H155  S    
C30   C58   S    
C121  H77   S    
C2    O2    A    
C56   C153  S    
C130  H85   S    
Cu4   O6    S    
C123  C124  A    
C85   H24   S    
C147  C148  A    
Cu3   Cu4   S    
C43   C56   S    
C26   C207  S    
C81   H14   S    
C127  C128  A    
C42   C66   S    
C204  C205  A    
C21   C177  S    
C22   C73   S    
C83   C84   S    
C178  H151  S    
C99   H60   S    
C100  H57   S    
