data_mof_unit_63782.cif
_audit_creation_date              2012-12-10T18:06:09-0500
_audit_creation_method            fapswitch 2.2
_symmetry_space_group_name_H-M    P1
_symmetry_Int_Tables_number       1
_space_group_crystal_system       triclinic
_cell_length_a                    25.989982
_cell_length_b                    25.965305
_cell_length_c                    22.193028
_cell_angle_alpha                 89.993781
_cell_angle_beta                  54.197994
_cell_angle_gamma                 90.029839
_cell_volume                      12146.7450029

loop_
_atom_site_label
_atom_site_type_symbol
_atom_type_description
_atom_site_fract_x
_atom_site_fract_y
_atom_site_fract_z
_atom_type_partial_charge
C1    C     C_R   0.400338 0.250034 0.699431 0.836497
C2    C     C_3   0.221425 0.723208 0.975067 -0.206232
C3    C     C_3   0.259178 0.201943 0.975547 0.245463
C4    C     C_3   0.759750 0.298079 0.975448 0.245431
C5    C     C_3   0.240324 0.701927 0.024550 0.245446
C6    C     C_3   0.240822 0.298057 0.024453 0.245462
C7    C     C_3   0.759182 0.701943 0.975547 0.245462
C8    C     C_3   0.693928 0.272199 0.024742 -0.206059
C9    C     C_3   0.306105 0.727869 0.975256 -0.206064
C10   C     C_3   0.306330 0.271754 0.975234 -0.206062
C11   C     C_3   0.693672 0.728243 0.024767 -0.206036
C12   C     C_3   0.193895 0.772132 0.024744 -0.206060
C13   C     C_3   0.221727 0.277131 0.974989 -0.206133
C14   C     C_3   0.806072 0.227801 0.975258 -0.206057
C15   C     C_3   0.806328 0.771757 0.975233 -0.206035
C16   C     C_3   0.193670 0.228247 0.024766 -0.206032
C17   C     C_1   0.639322 0.250123 0.221179 -0.132432
C18   C     C_1   0.360677 0.749878 0.778821 -0.132418
C19   C     C_1   0.360714 0.250086 0.778814 -0.132365
C20   C     C_1   0.639286 0.749915 0.221186 -0.132312
C21   C     C_1   0.139322 0.750122 0.221179 -0.132435
C22   C     C_1   0.860678 0.249877 0.778821 -0.132431
C23   C     C_1   0.860714 0.750085 0.778814 -0.132350
C24   C     C_3   0.778275 0.722873 0.025011 -0.206142
C25   C     C_1   0.139286 0.249915 0.221186 -0.132343
C26   C     C_2   0.555753 0.443931 0.362279 0.951595
C27   C     C_2   0.444238 0.556072 0.637734 0.950204
C28   C     C_2   0.445068 0.444588 0.638895 0.933097
C29   C     C_2   0.555001 0.555379 0.361033 0.933306
C30   C     C_2   0.055676 0.943924 0.362307 0.951541
C31   C     C_2   0.944323 0.056076 0.637693 0.951453
C32   C     C_2   0.945083 0.944625 0.638952 0.933412
C33   C     C_2   0.054919 0.055372 0.361044 0.933449
C34   C     C_3   0.270969 0.853096 0.946925 -0.905095
C35   C     C_3   0.278575 0.776793 0.024933 -0.206211
C36   C     C_3   0.728871 0.146894 0.053080 -0.905044
C37   C     C_3   0.730089 0.853059 0.052865 -0.906115
C38   C     C_3   0.269902 0.146942 0.947135 -0.906100
C39   C     C_3   0.771129 0.353106 0.946920 -0.905051
C40   C     C_3   0.229031 0.646905 0.053075 -0.905151
C41   C     C_3   0.230098 0.353059 0.052865 -0.906133
C42   C     C_3   0.769911 0.646941 0.947135 -0.906127
C43   C     C_3   0.721384 0.223268 0.975067 -0.206224
C44   C     C_3   0.721725 0.777127 0.974989 -0.206142
C45   C     C_3   0.278273 0.222870 0.025011 -0.206133
C46   C     C_3   0.713294 0.250196 0.073297 0.140214
C47   C     C_3   0.286706 0.749806 0.926703 0.140222
C48   C     C_3   0.286728 0.250172 0.926701 0.140250
C49   C     C_R   0.599662 0.749966 0.300568 0.836635
C50   C     C_3   0.713272 0.749828 0.073299 0.140250
C51   C     C_3   0.213294 0.750195 0.073297 0.140225
C52   C     C_3   0.786706 0.249804 0.926703 0.140214
C53   C     C_3   0.786728 0.750172 0.926701 0.140250
C54   C     C_3   0.213272 0.249829 0.073299 0.140249
C55   C     C_1   0.672700 0.250196 0.154415 -0.048622
C56   C     C_1   0.327299 0.749806 0.845585 -0.048638
C57   C     C_1   0.327337 0.250156 0.845580 -0.048372
C58   C     C_1   0.672663 0.749845 0.154420 -0.048364
C59   C     C_1   0.172701 0.750195 0.154415 -0.048629
C60   C     C_R   0.599679 0.250046 0.300558 0.828280
C61   C     C_1   0.827300 0.249804 0.845585 -0.048625
C62   C     C_1   0.827337 0.750155 0.845580 -0.048356
C63   C     C_1   0.172663 0.249845 0.154420 -0.048353
C64   C     C_R   0.300232 0.216584 0.452854 -0.182040
C65   C     C_R   0.699768 0.783416 0.547146 -0.182033
C66   C     C_R   0.699724 0.216567 0.547157 -0.181733
C67   C     C_R   0.300276 0.783433 0.452843 -0.181733
C68   C     C_R   0.800232 0.716584 0.452854 -0.182042
C69   C     C_R   0.199768 0.283416 0.547146 -0.182037
C70   C     C_R   0.199724 0.716568 0.547157 -0.181727
C71   C     C_R   0.400321 0.749954 0.699442 0.828771
C72   C     C_R   0.800276 0.283432 0.452843 -0.181733
C73   C     C_R   0.246841 0.216573 0.452870 -0.177108
C74   C     C_R   0.753159 0.783427 0.547130 -0.177103
C75   C     C_R   0.753107 0.216546 0.547156 -0.175999
C76   C     C_R   0.246893 0.783454 0.452844 -0.176000
C77   C     C_R   0.746841 0.716572 0.452870 -0.177086
C78   C     C_R   0.253159 0.283427 0.547130 -0.177081
C79   C     C_R   0.253107 0.716546 0.547156 -0.176063
C80   C     C_R   0.746893 0.283454 0.452844 -0.175981
C81   C     C_R   0.196316 0.249989 0.500015 0.003480
C82   C     C_R   0.900338 0.750034 0.699431 0.836701
C83   C     C_R   0.803684 0.750011 0.499985 0.003484
C84   C     C_R   0.803674 0.249979 0.499999 0.001497
C85   C     C_R   0.196326 0.750021 0.500001 0.001501
C86   C     C_R   0.696316 0.749989 0.500015 0.003434
C87   C     C_R   0.303684 0.250011 0.499985 0.003459
C88   C     C_R   0.303674 0.749979 0.499999 0.001551
C89   C     C_R   0.696326 0.250021 0.500001 0.001512
C90   C     C_R   0.490303 0.026705 0.452714 -0.185698
C91   C     C_R   0.509697 0.973295 0.547286 -0.185703
C92   C     C_R   0.509697 0.026707 0.547285 -0.185884
C93   C     C_R   0.099662 0.249966 0.300568 0.836710
C94   C     C_R   0.490302 0.973293 0.452715 -0.185883
C95   C     C_R   0.990303 0.526705 0.452714 -0.185698
C96   C     C_R   0.009697 0.473295 0.547286 -0.185696
C97   C     C_R   0.009697 0.526707 0.547285 -0.185892
C98   C     C_R   0.990302 0.473293 0.452715 -0.185891
C99   C     C_R   0.499999 0.946310 0.500001 0.006235
C100  C     C_R   0.500000 0.053690 0.499999 0.006211
C101  C     C_R   0.999999 0.446310 0.500001 0.006217
C102  C     C_R   0.000000 0.553690 0.499999 0.006215
C103  C     C_R   0.640244 0.250035 0.499994 0.799204
C104  C     C_R   0.099679 0.750046 0.300558 0.828231
C105  C     C_R   0.359756 0.749965 0.500006 0.799163
C106  C     C_R   0.359768 0.250026 0.499994 0.795733
C107  C     C_R   0.640232 0.749974 0.500006 0.795906
C108  C     C_R   0.140244 0.750035 0.499994 0.799223
C109  C     C_R   0.859756 0.249965 0.500006 0.799225
C110  C     C_R   0.859768 0.750026 0.499994 0.795704
C111  C     C_R   0.140232 0.249973 0.500006 0.795720
C112  C     C_R   0.500001 0.109785 0.499999 0.787566
C113  C     C_R   0.499999 0.890215 0.500001 0.787505
C114  C     C_R   0.000001 0.609785 0.499999 0.787549
C115  C     C_R   0.900321 0.249954 0.699442 0.828263
C116  C     C_R   0.999999 0.390215 0.500001 0.787545
C117  C     C_R   0.500074 0.390062 0.500008 0.878702
C118  C     C_R   0.499924 0.609938 0.499983 0.881242
C119  C     C_R   0.000077 0.890062 0.500013 0.879242
C120  C     C_R   0.999923 0.109938 0.499987 0.879406
C121  C     C_R   0.529320 0.472908 0.432196 -0.082179
C122  C     C_R   0.470657 0.527093 0.567807 -0.082758
C123  C     C_R   0.471312 0.473018 0.568164 -0.089148
C124  C     C_R   0.528658 0.526980 0.431824 -0.090147
C125  C     C_R   0.029289 0.972905 0.432210 -0.082290
C126  C     C_3   0.778616 0.276731 0.024933 -0.206218
C127  C     C_R   0.970709 0.027095 0.567790 -0.082324
C128  C     C_R   0.971385 0.973023 0.568168 -0.089751
C129  C     C_R   0.028612 0.026977 0.431831 -0.089814
C130  C     C_R   0.499537 0.553755 0.499807 -0.165339
C131  C     C_R   0.500459 0.446246 0.500183 -0.165269
C132  C     C_R   0.999522 0.053755 0.499804 -0.165386
C133  C     C_R   0.000478 0.946245 0.500195 -0.165379
C134  C     C_3   0.259676 0.798074 0.975450 0.245424
C135  C     C_3   0.740250 0.201921 0.024552 0.245427
C136  C     C_3   0.740818 0.798057 0.024453 0.245459
H1    H     H_    0.647882 0.290827 0.045627 0.153484
H2    H     H_    0.801506 0.299053 0.045976 0.153782
H3    H     H_    0.800882 0.700230 0.046116 0.153633
H4    H     H_    0.199122 0.299776 0.953883 0.153651
H5    H     H_    0.698494 0.200947 0.954024 0.153782
H6    H     H_    0.301429 0.799164 0.045976 0.153789
H7    H     H_    0.300878 0.200224 0.046116 0.153634
H8    H     H_    0.699118 0.799770 0.953883 0.153636
H9    H     H_    0.338697 0.190448 0.415993 0.165165
H10   H     H_    0.661303 0.809552 0.584006 0.165160
H11   H     H_    0.661221 0.190417 0.584029 0.165286
H12   H     H_    0.352179 0.709296 0.954370 0.153465
H13   H     H_    0.338779 0.809583 0.415971 0.165286
H14   H     H_    0.838697 0.690448 0.415994 0.165165
H15   H     H_    0.161302 0.309552 0.584006 0.165175
H16   H     H_    0.161221 0.690417 0.584029 0.165276
H17   H     H_    0.838779 0.309583 0.415971 0.165288
H18   H     H_    0.245183 0.190425 0.416014 0.168470
H19   H     H_    0.754817 0.809575 0.583986 0.168472
H20   H     H_    0.754728 0.190381 0.584027 0.169685
H21   H     H_    0.245272 0.809619 0.415973 0.169690
H22   H     H_    0.745183 0.690425 0.416014 0.168472
H23   H     H_    0.352593 0.290018 0.954330 0.153265
H24   H     H_    0.254817 0.309575 0.583986 0.168518
H25   H     H_    0.254728 0.690381 0.584027 0.169609
H26   H     H_    0.745272 0.309619 0.415973 0.169694
H27   H     H_    0.482719 0.046786 0.415742 0.164450
H28   H     H_    0.517281 0.953214 0.584258 0.164445
H29   H     H_    0.517282 0.046789 0.584256 0.164389
H30   H     H_    0.482718 0.953211 0.415743 0.164389
H31   H     H_    0.982719 0.546786 0.415742 0.164451
H32   H     H_    0.017281 0.453214 0.584258 0.164452
H33   H     H_    0.017282 0.546789 0.584256 0.164386
H34   H     H_    0.647411 0.709976 0.045670 0.153274
H35   H     H_    0.982718 0.453211 0.415743 0.164388
H36   H     H_    0.633543 0.416671 0.266936 0.342125
H37   H     H_    0.366403 0.582480 0.733780 0.342116
H38   H     H_    0.371115 0.432771 0.745558 0.342712
H39   H     H_    0.628805 0.566731 0.254162 0.342842
H40   H     H_    0.133425 0.916613 0.266968 0.342125
H41   H     H_    0.866569 0.083330 0.733080 0.342126
H42   H     H_    0.871325 0.933280 0.745849 0.342833
H43   H     H_    0.128661 0.066688 0.254134 0.342845
H44   H     H_    0.245640 0.880136 0.994599 0.248100
H45   H     H_    0.147821 0.790705 0.045630 0.153483
H46   H     H_    0.322529 0.861731 0.912672 0.246592
H47   H     H_    0.253039 0.857914 0.912530 0.244285
H48   H     H_    0.754159 0.119849 0.005408 0.248086
H49   H     H_    0.746793 0.142023 0.087477 0.244288
H50   H     H_    0.677297 0.138312 0.087332 0.246590
H51   H     H_    0.755712 0.880071 0.005135 0.247718
H52   H     H_    0.678622 0.861992 0.087080 0.246691
H53   H     H_    0.748048 0.857595 0.087270 0.244262
H54   H     H_    0.244277 0.119930 0.994865 0.247714
H55   H     H_    0.251943 0.142409 0.912730 0.244267
H56   H     H_    0.852119 0.209173 0.954373 0.153487
H57   H     H_    0.321369 0.138006 0.912920 0.246691
H58   H     H_    0.745841 0.380150 0.994592 0.248085
H59   H     H_    0.822703 0.361688 0.912668 0.246593
H60   H     H_    0.753207 0.357977 0.912523 0.244283
H61   H     H_    0.254360 0.619865 0.005401 0.248050
H62   H     H_    0.246961 0.642087 0.087470 0.244293
H63   H     H_    0.177471 0.638270 0.087328 0.246607
H64   H     H_    0.255723 0.380071 0.005135 0.247714
H65   H     H_    0.178631 0.361995 0.087080 0.246698
H66   H     H_    0.248057 0.357591 0.087270 0.244257
H67   H     H_    0.852589 0.790024 0.954330 0.153275
H68   H     H_    0.744288 0.619929 0.994865 0.247717
H69   H     H_    0.751952 0.642405 0.912730 0.244258
H70   H     H_    0.821378 0.638007 0.912920 0.246692
H71   H     H_    0.147407 0.209983 0.045670 0.153280
H72   H     H_    0.198570 0.700837 0.954024 0.153775
O1    O     O_3   0.500000 0.250030 0.500000 -0.490850
O2    O     O_R   0.112550 0.219620 0.335580 -0.627244
O3    O     O_R   0.112550 0.780380 0.335580 -0.631351
O4    O     O_R   0.887450 0.219620 0.664420 -0.631349
O5    O     O_R   0.594260 0.219670 0.543090 -0.648169
O6    O     O_R   0.405740 0.780330 0.456910 -0.648153
O7    O     O_R   0.405740 0.219670 0.456910 -0.648470
O8    O     O_R   0.594260 0.780330 0.543090 -0.648451
O9    O     O_R   0.094260 0.719670 0.543090 -0.648160
O10   O     O_R   0.905740 0.280330 0.456910 -0.648157
O11   O     O_R   0.905740 0.719670 0.456910 -0.648470
O12   O     O_3   0.500000 0.749970 0.500000 -0.490837
O13   O     O_R   0.094260 0.280330 0.543090 -0.648466
O14   O     O_R   0.508800 0.134220 0.543090 -0.650287
O15   O     O_R   0.491200 0.865780 0.456910 -0.650307
O16   O     O_R   0.491200 0.134220 0.456910 -0.649780
O17   O     O_R   0.508800 0.865780 0.543090 -0.649829
O18   O     O_R   0.008800 0.634220 0.543090 -0.650301
O19   O     O_R   0.991200 0.365780 0.456910 -0.650302
O20   O     O_R   0.991200 0.634220 0.456910 -0.649781
O21   O     O_R   0.008800 0.365780 0.543090 -0.649783
O22   O     O_R   0.448100 0.365830 0.543110 -0.625355
O23   O     O_3   1.000000 0.750030 0.500000 -0.490843
O24   O     O_R   0.551900 0.634170 0.456890 -0.625140
O25   O     O_R   0.551900 0.365830 0.456890 -0.622082
O26   O     O_R   0.448100 0.634170 0.543110 -0.622784
O27   O     O_R   0.948100 0.865830 0.543110 -0.625275
O28   O     O_R   0.051900 0.134170 0.456890 -0.625262
O29   O     O_R   0.051900 0.865830 0.456890 -0.622096
O30   O     O_R   0.948100 0.134170 0.543110 -0.622144
O31   O     O_R   0.637370 0.280400 0.456880 -0.641895
O32   O     O_R   0.362630 0.719600 0.543120 -0.642118
O33   O     O_R   0.362630 0.280400 0.543120 -0.645874
O34   O     O_3   1.000000 0.249970 0.500000 -0.490844
O35   O     O_R   0.637370 0.719600 0.456880 -0.645884
O36   O     O_R   0.137370 0.780400 0.456880 -0.641888
O37   O     O_R   0.862630 0.219600 0.543120 -0.641903
O38   O     O_R   0.862630 0.780400 0.543120 -0.645956
O39   O     O_R   0.137370 0.219600 0.456880 -0.645956
O40   O     O_R   0.448170 0.219660 0.664410 -0.638716
O41   O     O_R   0.551830 0.780340 0.335590 -0.638758
O42   O     O_R   0.551830 0.219660 0.335590 -0.638152
O43   O     O_R   0.448170 0.780340 0.664410 -0.638174
O44   O     O_R   0.948170 0.719660 0.664410 -0.638743
O45   O     O_R   0.387450 0.280380 0.664420 -0.627356
O46   O     O_R   0.051830 0.280340 0.335590 -0.638744
O47   O     O_R   0.051830 0.719660 0.335590 -0.638151
O48   O     O_R   0.948170 0.280340 0.664410 -0.638150
O49   O     O_2   0.519925 0.424726 0.349773 -0.648756
O50   O     O_R   0.621347 0.437632 0.312045 -0.733064
O51   O     O_2   0.480108 0.576197 0.649508 -0.649138
O52   O     O_R   0.378582 0.561400 0.688771 -0.733070
O53   O     O_2   0.477397 0.412196 0.642391 -0.643700
O54   O     O_R   0.383433 0.454629 0.701107 -0.755798
O55   O     O_2   0.522947 0.588090 0.357596 -0.643484
O56   O     O_R   0.612550 0.719620 0.335580 -0.627321
O57   O     O_R   0.616397 0.544874 0.298648 -0.757378
O58   O     O_2   0.019816 0.924766 0.349815 -0.648756
O59   O     O_R   0.121261 0.937570 0.312067 -0.733056
O60   O     O_2   0.980186 0.075296 0.650136 -0.648784
O61   O     O_R   0.878732 0.062365 0.687987 -0.733053
O62   O     O_2   0.977152 0.911906 0.642349 -0.643329
O63   O     O_R   0.883706 0.955137 0.701373 -0.757412
O64   O     O_2   0.022868 0.088111 0.357652 -0.643319
O65   O     O_R   0.116276 0.044831 0.298611 -0.757527
O66   O     O_R   0.612550 0.280380 0.335580 -0.631334
O67   O     O_R   0.387450 0.719620 0.664420 -0.631282
O68   O     O_R   0.887450 0.780380 0.664420 -0.627245
Zn1   Zn    Zn3+2 0.574170 0.293410 0.438410 1.022477
Zn2   Zn    Zn3+2 0.487410 0.793350 0.438420 0.978755
Zn3   Zn    Zn3+2 0.487410 0.206650 0.438420 0.974508
Zn4   Zn    Zn3+2 0.512590 0.793350 0.561580 0.974723
Zn5   Zn    Zn3+2 0.012590 0.706650 0.561580 0.978827
Zn6   Zn    Zn3+2 0.987410 0.293350 0.438420 0.978831
Zn7   Zn    Zn3+2 0.987410 0.706650 0.438420 0.974476
Zn8   Zn    Zn3+2 0.012590 0.293350 0.561580 0.974496
Zn9   Zn    Zn3+2 0.425830 0.706590 0.561590 1.022547
Zn10  Zn    Zn3+2 0.425830 0.293410 0.561590 1.019789
Zn11  Zn    Zn3+2 0.574170 0.706590 0.438410 1.020207
Zn12  Zn    Zn3+2 0.074170 0.793410 0.438410 1.022526
Zn13  Zn    Zn3+2 0.925830 0.206590 0.561590 1.022531
Zn14  Zn    Zn3+2 0.925830 0.793410 0.561590 1.019826
Zn15  Zn    Zn3+2 0.074170 0.206590 0.438410 1.019855
Zn16  Zn    Zn3+2 0.512590 0.206650 0.561580 0.978766

loop_
_geom_bond_atom_site_label_1
_geom_bond_atom_site_label_2
_ccdc_geom_bond_type
O19   Zn6   S    
C25   C93   S    
C67   H13   S    
O27   Zn14  S    
C74   C83   A    
C28   C123  S    
O15   Zn2   S    
C115  O4    A    
O12   Zn11  S    
C21   C59   T    
C52   C61   S    
C54   C63   S    
C7    C24   S    
C117  O22   A    
C68   C77   A    
C7    C42   S    
O43   Zn4   S    
C109  O10   A    
C32   O62   D    
C44   C53   S    
C14   C52   S    
C38   H54   S    
C46   C55   S    
O12   Zn4   S    
C71   O67   A    
C96   H32   S    
C95   C102  A    
C112  O16   A    
C107  O35   A    
C79   H25   S    
C41   H64   S    
C35   C134  S    
C71   O43   A    
O30   Zn13  S    
C66   C89   A    
O40   Zn16  S    
C93   O46   A    
O34   Zn13  S    
O37   Zn13  S    
C39   H59   S    
C6    C10   S    
C102  C114  S    
H38   O54   S    
C113  O17   A    
C12   H45   S    
C124  C130  A    
C72   C84   A    
C108  O9    A    
C78   H24   S    
C47   C134  S    
C35   C51   S    
O23   Zn12  S    
C2    H72   S    
C7    C53   S    
O24   Zn11  S    
O67   Zn9   S    
C36   C135  S    
C12   C51   S    
H42   O63   S    
C18   C71   S    
O1    Zn10  S    
C70   C79   A    
C68   C83   A    
O13   Zn8   S    
C15   H67   S    
C40   H63   S    
C2    C47   S    
C14   C126  S    
C38   H57   S    
O44   Zn5   S    
C37   H51   S    
C26   O49   D    
O1    Zn1   S    
O17   Zn4   S    
C16   C54   S    
C125  C129  A    
C40   H61   S    
O47   Zn7   S    
C5    C51   S    
C32   O63   S    
C30   O59   S    
C41   H66   S    
O29   Zn12  S    
C76   C85   A    
O34   Zn6   S    
C78   C87   A    
C23   C82   S    
C3    C48   S    
C42   H68   S    
C31   C127  S    
C48   C57   S    
C60   O66   A    
O23   Zn7   S    
C43   C52   S    
C14   C135  S    
H43   O65   S    
C28   O53   D    
C29   C124  S    
O14   Zn16  S    
C42   H69   S    
C113  O15   A    
O23   Zn14  S    
C23   C62   T    
C64   C73   A    
C26   C121  S    
C64   C87   A    
C14   H56   S    
C30   C125  S    
C109  O37   A    
C12   C134  S    
C89   C103  S    
O22   Zn10  S    
C49   O56   A    
C24   C50   S    
C76   H21   S    
C34   H47   S    
C91   C92   A    
O45   Zn10  S    
C15   C136  S    
O1    Zn3   S    
C65   C74   A    
C5    C9    S    
C20   C49   S    
C117  O25   A    
C10   C45   S    
C83   C110  S    
C11   C44   S    
C110  O11   A    
C80   H26   S    
O46   Zn6   S    
O20   Zn7   S    
C15   C24   S    
C82   O44   A    
O1    Zn16  S    
C2    C5    S    
C20   C58   T    
C9    C35   S    
O38   Zn14  S    
C105  O6    A    
O23   Zn5   S    
O3    Zn12  S    
C95   H31   S    
C45   C54   S    
O36   Zn12  S    
O10   Zn6   S    
O26   Zn9   S    
C9    H12   S    
C84   C109  S    
C4    C126  S    
C32   C128  S    
C72   C80   A    
C22   C61   T    
C88   C105  S    
C40   H62   S    
C117  C131  S    
O28   Zn15  S    
C8    C46   S    
C68   H14   S    
C17   C60   S    
C114  O20   A    
C111  O39   A    
C38   H55   S    
C13   C16   S    
O39   Zn15  S    
C93   O2    A    
C91   C99   A    
C65   H10   S    
C70   C85   A    
C3    C16   S    
C119  O27   A    
O35   Zn11  S    
C47   C56   S    
C44   C136  S    
O66   Zn1   S    
C29   O57   S    
C34   H44   S    
C8    C43   S    
C16   H71   S    
C94   H30   S    
C65   C86   A    
C19   C57   T    
C27   O52   S    
C67   C88   A    
C104  O47   A    
C15   C53   S    
C6    C54   S    
C116  O21   A    
C36   H49   S    
C73   C81   A    
C80   C89   A    
C46   C135  S    
C21   C104  S    
C92   H29   S    
O34   Zn8   S    
C115  O48   A    
C73   H18   S    
C85   C108  S    
C97   C102  A    
C77   H22   S    
C129  C132  A    
C49   O41   A    
C96   C101  A    
C79   C88   A    
C27   C122  S    
C1    O45   A    
C90   C94   A    
C24   H3    S    
C1    C19   S    
O32   Zn9   S    
C116  O19   A    
C50   C58   S    
C13   H4    S    
C119  O29   A    
C3    C45   S    
H41   O61   S    
C8    H1    S    
C118  C130  S    
C114  O18   A    
C26   O50   S    
C37   C136  S    
C66   H11   S    
C9    C47   S    
C33   O64   D    
C10   C48   S    
C43   H5    S    
O2    Zn15  S    
C41   H65   S    
C127  C128  A    
O25   Zn1   S    
C33   C129  S    
C72   H17   S    
C123  C131  A    
C99   C113  S    
C98   C101  A    
C39   H60   S    
C90   H27   S    
O18   Zn5   S    
C11   C50   S    
C28   O54   S    
C66   C75   A    
O31   Zn1   S    
C74   H19   S    
C42   H70   S    
C75   C84   A    
C69   C81   A    
C11   H34   S    
C103  O31   A    
C5    C40   S    
C45   H7    S    
C101  C116  S    
C34   C134  S    
C10   H23   S    
C37   H53   S    
O11   Zn7   S    
C64   H9    S    
C86   C107  S    
C4    C8    S    
C2    C12   S    
H39   O57   S    
C95   C98   A    
C7    C11   S    
C106  O7    A    
C119  C133  S    
C33   O65   S    
C4    C52   S    
C111  O13   A    
C37   H52   S    
C97   H33   S    
O41   Zn2   S    
C25   C63   T    
C127  C132  A    
C121  C124  A    
H40   O59   S    
C75   H20   S    
C107  O8    A    
C81   C111  S    
C3    C38   S    
C118  O24   A    
C6    C41   S    
C31   O61   S    
C36   H48   S    
O33   Zn10  S    
C17   C55   T    
C18   C56   T    
O68   Zn14  S    
C110  O38   A    
O7    Zn3   S    
C60   O42   A    
O8    Zn4   S    
C69   C78   A    
C121  C131  A    
C90   C100  A    
C39   H58   S    
O48   Zn8   S    
C69   H15   S    
C70   H16   S    
H37   O52   S    
O5    Zn16  S    
C35   H6    S    
O21   Zn8   S    
O16   Zn3   S    
O12   Zn9   S    
C82   O68   A    
C53   C62   S    
C118  O26   A    
O9    Zn5   S    
C4    C39   S    
C44   H8    S    
C96   C97   A    
C108  O36   A    
C43   C135  S    
C30   O58   D    
C98   H35   S    
C22   C115  S    
C77   C86   A    
O6    Zn2   S    
O12   Zn2   S    
C51   C59   S    
C92   C100  A    
C125  C133  A    
C103  O5    A    
C126  H2    S    
C31   O60   D    
C120  C132  S    
O56   Zn11  S    
C112  O14   A    
C46   C126  S    
C1    O40   A    
C13   C48   S    
C100  C112  S    
C27   O51   D    
O42   Zn3   S    
C50   C136  S    
C128  C133  A    
C120  O28   A    
C6    C13   S    
O34   Zn15  S    
C87   C106  S    
C94   C99   A    
C29   O55   D    
C105  O32   A    
C34   H46   S    
C36   H50   S    
C91   H28   S    
O4    Zn13  S    
C120  O30   A    
C67   C76   A    
C106  O33   A    
C104  O3    A    
C122  C123  A    
H36   O50   S    
C122  C130  A    
