data_mof_unit_42888.cif
_audit_creation_date              2012-12-11T14:15:40-0500
_audit_creation_method            fapswitch 2.2
_symmetry_space_group_name_H-M    P1
_symmetry_Int_Tables_number       1
_space_group_crystal_system       triclinic
_cell_length_a                    11.15258
_cell_length_b                    12.71623
_cell_length_c                    23.607808
_cell_angle_alpha                 90.050061
_cell_angle_beta                  96.468358
_cell_angle_gamma                 68.641519
_cell_volume                      3095.32023604

loop_
_atom_site_label
_atom_site_type_symbol
_atom_type_description
_atom_site_fract_x
_atom_site_fract_y
_atom_site_fract_z
_atom_type_partial_charge
C1    C     C_R   0.148641 0.616997 0.428667 0.547590
C2    C     C_R   0.590378 0.607523 0.320986 0.227343
C3    C     C_R   0.727312 0.719901 0.319062 -0.167126
C4    C     C_R   0.693008 0.740288 0.260830 0.029684
C5    C     C_R   0.606974 0.693582 0.232997 -0.005109
C6    C     C_R   0.578418 0.706807 0.174857 -0.113067
C7    C     C_R   0.718975 0.813631 0.170103 -0.130499
C8    C     C_R   0.747879 0.801450 0.229409 -0.123017
C9    C     C_1   0.235570 0.161175 0.123037 0.003207
C10   C     C_2   0.181376 0.232127 0.226304 -0.111562
C11   C     C_2   0.156713 0.164979 0.263538 -0.114478
C12   C     C_R   0.747453 0.605778 0.405089 0.574030
C13   C     C_1   0.133497 0.199715 0.320964 -0.032779
C14   C     C_1   0.210402 0.195837 0.169646 -0.039257
C15   C     C_1   0.116716 0.233054 0.368491 0.012372
C16   C     C_1   0.166442 0.747758 0.122974 -0.010654
C17   C     C_2   0.145627 0.677938 0.226039 -0.134189
C18   C     C_2   0.218270 0.695765 0.271539 -0.108032
C19   C     C_1   0.206648 0.662103 0.328486 0.014063
C20   C     C_1   0.154767 0.715529 0.169452 -0.054720
C21   C     C_1   0.189223 0.637822 0.375527 0.047330
C22   C     C_1   0.626957 0.758337 0.864521 -0.016239
C23   C     C_R   0.101200 0.282915 0.423272 0.542271
C24   C     C_2   0.697890 0.715837 0.760743 -0.124502
C25   C     C_2   0.615544 0.697434 0.719434 -0.127422
C26   C     C_1   0.654137 0.665957 0.663472 -0.042959
C27   C     C_1   0.661967 0.740147 0.817660 -0.055635
C28   C     C_1   0.692186 0.637675 0.617830 0.001619
C29   C     C_R   0.204459 0.176314 0.852825 -0.030170
C30   C     C_R   0.111703 0.223024 0.640349 -0.003031
C31   C     C_R   0.011831 0.169318 0.715531 -0.135096
C32   C     C_R   0.011486 0.193513 0.657832 -0.131012
C33   C     C_R   0.214280 0.222951 0.680020 -0.113405
C34   C     C_R   0.150180 0.615486 0.590645 0.548134
C35   C     C_R   0.209275 0.209974 0.737504 0.047364
C36   C     C_R   0.108192 0.181089 0.755810 0.008826
C37   C     C_R   0.108010 0.161805 0.813864 -0.146841
C38   C     C_R   0.291602 0.221632 0.834445 -0.090247
C39   C     C_R   0.301883 0.229174 0.776972 0.238483
C40   C     C_R   0.135863 0.760821 0.847767 0.032754
C41   C     C_R   0.193462 0.629819 0.649192 0.006071
C42   C     C_R   0.262823 0.541103 0.743590 -0.132065
C43   C     C_R   0.260703 0.533545 0.685078 -0.135936
C44   C     C_R   0.136722 0.734656 0.672191 -0.120115
C45   C     C_R   0.750391 0.601661 0.566280 0.549280
C46   C     C_R   0.135786 0.742028 0.730569 0.005589
C47   C     C_R   0.203054 0.645365 0.767281 0.032628
C48   C     C_R   0.207509 0.655537 0.826647 0.246212
C49   C     C_R   0.057306 0.851568 0.809973 -0.175702
C50   C     C_R   0.060643 0.843307 0.752037 -0.161481
C51   C     C_R   0.265807 0.109498 0.069532 0.545419
C52   C     C_R   0.594870 0.776375 0.082243 0.544094
C53   C     C_R   0.189476 0.787507 0.069699 0.547009
C54   C     C_R   0.241378 0.115436 0.907744 0.546168
C55   C     C_R   0.573337 0.776984 0.917948 0.544078
C56   C     C_R   0.100286 0.277667 0.584879 0.538365
C57   C     C_R   0.165158 0.788350 0.906282 0.571820
C58   C     C_R   0.636456 0.763634 0.142919 0.024951
C59   C     C_R   0.681640 0.648954 0.348777 0.021649
C60   C     C_R   0.553278 0.630721 0.263084 -0.113928
Cr1   Cr    Cr6+3 0.189770 0.415650 0.511620 1.047921
Cr2   Cr    Cr6+3 0.930400 0.667320 0.496770 1.025210
Cr3   Cr    Cr6+3 0.879870 0.417010 0.491650 1.070749
Cr4   Cr    Cr6+3 0.149500 0.973980 0.985330 1.021634
Cr5   Cr    Cr6+3 0.457000 0.976510 0.994660 1.026304
Cr6   Cr    Cr6+3 0.411170 0.724270 0.995270 1.005098
H1    H     H_    0.509369 0.672370 0.154420 0.137957
H2    H     H_    0.078439 0.635549 0.231082 0.135246
H3    H     H_    0.519846 0.702595 0.727961 0.134672
H4    H     H_    0.794045 0.709681 0.752423 0.146442
H5    H     H_    0.039130 0.128662 0.828139 0.123389
H6    H     H_    0.363195 0.237604 0.864615 0.143289
H7    H     H_    0.934158 0.146781 0.728863 0.099252
H8    H     H_    0.931282 0.193279 0.627419 0.127296
H9    H     H_    0.292752 0.244249 0.666667 0.173937
H10   H     H_    0.761173 0.860425 0.145707 0.125448
H11   H     H_    0.000998 0.933149 0.825100 0.140162
H12   H     H_    0.304234 0.464214 0.769680 0.199455
H13   H     H_    0.004737 0.916439 0.724046 0.115032
H14   H     H_    0.301741 0.450557 0.668052 0.161706
H15   H     H_    0.082535 0.808672 0.644414 0.129782
H16   H     H_    0.486894 0.595316 0.241101 0.142360
H17   H     H_    0.814204 0.837806 0.250493 0.116869
H18   H     H_    0.797920 0.751841 0.340122 0.139712
H19   H     H_    0.156515 0.082584 0.251439 0.135695
H20   H     H_    0.182346 0.314202 0.238597 0.143194
H21   H     H_    0.283080 0.740445 0.266487 0.139290
O1    O     O_R   0.196340 0.303200 0.448500 -0.499189
O2    O     O_R   0.811960 0.658090 0.547150 -0.495295
O3    O     O_R   0.757930 0.506140 0.547110 -0.499601
O4    O     O_R   0.988670 0.321620 0.556040 -0.499772
O5    O     O_3   0.000020 0.499990 0.500010 -0.262035
O6    O     O_R   0.113660 0.883270 0.047820 -0.504041
O7    O     O_R   0.186930 0.068530 0.043990 -0.495817
O8    O     O_R   0.377770 0.089040 0.054220 -0.505577
O9    O     O_R   0.562800 0.872960 0.056970 -0.495168
O10   O     O_R   0.555390 0.700940 0.062700 -0.525392
O11   O     O_R   0.295020 0.731920 0.049950 -0.504815
O12   O     O_R   0.199310 0.519670 0.454880 -0.473434
O13   O     O_R   0.094290 0.884230 0.921550 -0.533657
O14   O     O_R   0.168980 0.069410 0.926940 -0.501802
O15   O     O_R   0.358400 0.089990 0.927950 -0.526257
O16   O     O_R   0.544850 0.873850 0.939920 -0.489960
O17   O     O_R   0.536020 0.701900 0.936430 -0.537029
O18   O     O_R   0.277070 0.732810 0.932890 -0.481119
O19   O     O_3   0.339220 0.891590 0.991750 -0.250725
O20   O     O_R   0.045660 0.691380 0.441680 -0.523757
O21   O     O_R   0.811930 0.659460 0.430950 -0.523397
O22   O     O_R   0.757900 0.507620 0.421760 -0.441073
O23   O     O_R   0.988630 0.322990 0.439840 -0.491953
O24   O     O_R   0.196380 0.301720 0.573850 -0.529762
O25   O     O_R   0.199350 0.518300 0.571080 -0.505130
O26   O     O_R   0.045700 0.689900 0.567030 -0.516446
O27   O     O_3   0.400457 0.258296 0.759445 -0.606313
C61   C     C_3   0.516284 0.162066 0.765647 -0.019693
H22   H     H_    0.504127 0.091520 0.740565 0.138887
H23   H     H_    0.547257 0.133294 0.811322 0.138679
C62   C     C_3   0.623295 0.191974 0.743510 -0.376628
H24   H     H_    0.638973 0.261221 0.768201 0.155055
H25   H     H_    0.714995 0.116855 0.748127 0.090639
H26   H     H_    0.596145 0.219780 0.697728 0.158932
O28   O     O_3   0.275276 0.563329 0.864139 -0.563901
C63   C     C_3   0.410798 0.537198 0.866426 0.009246
H27   H     H_    0.435499 0.613964 0.863166 0.161470
H28   H     H_    0.451821 0.482529 0.831479 0.119309
C64   C     C_3   0.478373 0.471640 0.922193 -0.321445
H29   H     H_    0.460822 0.391241 0.924287 0.137301
H30   H     H_    0.584436 0.451850 0.924741 0.098356
H31   H     H_    0.441140 0.522056 0.959148 0.185661
Cl1   Cl    Cl    0.524327 0.522407 0.355858 -0.598584

loop_
_geom_bond_atom_site_label_1
_geom_bond_atom_site_label_2
_ccdc_geom_bond_type
C57   O18   A    
C1    C21   S    
C64   H29   S    
C8    H17   S    
C34   O25   A    
C6    C58   A    
C54   O14   A    
C35   C36   A    
C9    C51   S    
C24   C27   S    
C4    C8    A    
C50   H13   S    
C1    O12   A    
O27   C61   S    
C24   H4    S    
C7    C8    A    
C34   O26   A    
Cr6   O10   S    
C36   C37   A    
C19   C21   T    
Cr4   O6    S    
C32   H8    S    
C5    C6    A    
C2    C60   A    
C63   H28   S    
Cr2   O21   S    
C29   C54   S    
C40   C49   A    
Cr2   O2    S    
C55   O16   A    
C52   O10   A    
C17   C20   S    
C18   C19   S    
C16   C53   S    
C33   C35   A    
C62   H24   S    
C12   C59   S    
C60   H16   S    
C33   H9    S    
C56   O4    A    
C31   C32   A    
C61   H23   S    
Cr2   O5    S    
C29   C38   A    
C45   O2    A    
C56   O24   A    
C5    C60   A    
Cr1   O5    S    
C61   C62   S    
C15   C23   S    
C41   C43   A    
Cr1   O12   S    
C34   C41   S    
Cr5   O15   S    
Cr6   O19   S    
C12   O22   A    
C44   C46   A    
Cr5   O9    S    
Cr4   O14   S    
C48   O28   S    
C38   H6    S    
C28   C45   S    
C53   O6    A    
Cr6   O17   S    
C63   H27   S    
C24   C25   D    
Cr2   O26   S    
C44   H15   S    
C10   C14   S    
C12   O21   A    
C2    C59   A    
C63   C64   S    
Cr2   O20   S    
C64   H31   S    
C43   H14   S    
C57   O13   A    
C30   C56   S    
C55   O17   A    
C62   H26   S    
Cr3   O5    S    
C35   C39   A    
C9    C14   T    
Cr1   O1    S    
C47   C48   A    
Cr5   O8    S    
C16   C20   T    
C39   O27   S    
C17   C18   D    
C45   O3    A    
C22   C55   S    
C52   C58   S    
C1    O20   A    
C6    H1    S    
C42   H12   S    
C22   C27   T    
C37   H5    S    
C41   C44   A    
C25   H3    S    
C42   C43   A    
Cr5   O16   S    
Cr6   O18   S    
C29   C37   A    
C3    C4    A    
Cr1   O24   S    
Cr5   O19   S    
C40   C48   A    
C23   O23   A    
C46   C47   A    
C10   H20   S    
C17   H2    S    
C64   H30   S    
C40   C57   S    
C7    C58   A    
C30   C33   A    
C54   O15   A    
C4    C5    A    
Cr4   O19   S    
C7    H10   S    
C53   O11   A    
C46   C50   A    
C26   C28   T    
C18   H21   S    
C23   O1    A    
Cr6   O11   S    
Cr3   O23   S    
C13   C15   T    
C25   C26   S    
Cr4   O7    S    
C30   C32   A    
C11   C13   S    
C38   C39   A    
C11   H19   S    
Cr3   O3    S    
C2    Cl1   S    
C49   H11   S    
C52   O9    A    
C42   C47   A    
C62   H25   S    
C31   H7    S    
C10   C11   D    
C51   O7    A    
Cr4   O13   S    
C49   C50   A    
Cr3   O4    S    
C3    H18   S    
C31   C36   A    
O28   C63   S    
Cr1   O25   S    
C61   H22   S    
C51   O8    A    
Cr3   O22   S    
C3    C59   A    
