data_mof_unit_66025.cif
_audit_creation_date              2012-12-10T18:31:23-0500
_audit_creation_method            fapswitch 2.2
_symmetry_space_group_name_H-M    P1
_symmetry_Int_Tables_number       1
_space_group_crystal_system       triclinic
_cell_length_a                    27.613076
_cell_length_b                    27.697218
_cell_length_c                    27.554094
_cell_angle_alpha                 109.402687
_cell_angle_beta                  109.358523
_cell_angle_gamma                 109.529771
_cell_volume                      16246.8885649

loop_
_atom_site_label
_atom_site_type_symbol
_atom_type_description
_atom_site_fract_x
_atom_site_fract_y
_atom_site_fract_z
_atom_type_partial_charge
C1    C     C_R   0.918836 0.918910 0.500123 0.904318
C2    C     C_3   0.785335 0.731296 0.468246 -0.376441
C3    C     C_3   0.739144 0.683764 0.471321 -0.391166
C4    C     C_R   0.918825 0.999942 0.418709 0.887301
C5    C     C_1   0.625740 0.626020 0.500520 -0.146964
C6    C     C_3   0.794169 0.792967 0.504606 0.139466
C7    C     C_3   0.760740 0.758294 0.569116 -0.184086
C8    C     C_3   0.710197 0.710943 0.503457 0.198759
C9    C     C_3   0.683995 0.741106 0.472038 -0.034639
C10   C     C_3   0.734402 0.791101 0.475032 -0.526873
C11   C     C_1   0.663684 0.664196 0.501697 -0.041634
C12   C     C_3   0.791653 0.999066 0.291235 0.091222
C13   C     C_1   0.838924 0.837884 0.502914 -0.019855
C14   C     C_1   0.875313 0.874812 0.501300 -0.130974
C15   C     C_3   0.206460 0.029363 0.774358 0.353594
C16   C     C_R   0.081193 0.081006 0.499904 0.895088
C17   C     C_3   0.272052 0.043378 0.724355 0.192233
C18   C     C_3   0.320149 0.049586 0.779023 -0.443431
C19   C     C_1   0.375037 0.001336 0.876187 -0.098816
C20   C     C_3   0.208924 0.005361 0.714383 0.037081
C21   C     C_3   0.251626 0.021913 0.820908 0.100222
C22   C     C_3   0.291392 0.005176 0.797192 0.064432
C23   C     C_3   0.753410 0.052554 0.272617 0.348475
C24   C     C_3   0.250539 0.942742 0.741232 -0.467872
C25   C     C_3   0.199894 0.941918 0.694307 -0.477278
C26   C     C_1   0.337415 0.003070 0.840573 0.059418
C27   C     C_1   0.163205 0.002568 0.665814 0.123739
C28   C     C_R   0.081306 0.000124 0.581417 0.906126
C29   C     C_1   0.125730 0.000707 0.626459 -0.084406
C30   C     C_3   0.184154 0.237441 0.470340 -0.162931
C31   C     C_3   0.233772 0.172446 0.454763 0.335874
C32   C     C_3   0.279991 0.223672 0.451692 0.174499
C33   C     C_1   0.374771 0.373130 0.498834 -0.080978
C34   C     C_3   0.708483 0.000051 0.209213 0.018503
C35   C     C_3   0.210211 0.202951 0.495946 -0.028168
C36   C     C_3   0.234432 0.288730 0.474961 -0.376447
C37   C     C_3   0.292428 0.285823 0.495453 -0.010351
C38   C     C_3   0.315032 0.293079 0.559345 -0.230463
C39   C     C_3   0.262837 0.251479 0.563441 0.382878
C40   C     C_3   0.695961 0.956481 0.233068 -0.217872
C41   C     C_1   0.337689 0.333732 0.497138 0.124958
C42   C     C_1   0.163745 0.159626 0.497621 0.093213
C43   C     C_1   0.125896 0.124524 0.499488 -0.092909
C44   C     C_R   0.500480 0.081022 0.081688 0.919656
C45   C     C_3   0.802816 0.041685 0.266964 0.017020
C46   C     C_R   0.581944 0.999986 0.081928 0.894434
C47   C     C_R   0.500998 0.918902 0.919692 0.886922
C48   C     C_R   0.419458 0.999913 0.919271 0.922466
C49   C     C_R   0.499903 0.580970 0.580985 0.899076
C50   C     C_R   0.581193 0.581041 0.499844 0.906328
C51   C     C_R   0.500087 0.418792 0.418756 0.915491
C52   C     C_3   0.746645 0.946007 0.227566 -0.222722
C53   C     C_R   0.418889 0.418894 0.500091 0.914782
C54   C     C_3   0.458047 0.230883 0.179348 0.226421
C55   C     C_3   0.560554 0.260299 0.249356 -0.597275
C56   C     C_3   0.758188 0.989755 0.204097 0.097220
C57   C     C_3   0.561837 0.311192 0.297012 0.235657
C58   C     C_1   0.499745 0.374267 0.374243 -0.105033
C59   C     C_3   0.496308 0.206150 0.207372 0.081116
C60   C     C_3   0.452245 0.272877 0.228119 -0.437461
C61   C     C_3   0.498749 0.290353 0.290850 0.076530
C62   C     C_3   0.482623 0.234679 0.298856 -0.219448
C63   C     C_3   0.473964 0.181379 0.244837 0.197852
C64   C     C_1   0.874495 0.999692 0.374241 -0.166903
C65   C     C_1   0.499413 0.336655 0.336645 0.074742
C66   C     C_1   0.497943 0.161546 0.162167 0.124881
C67   C     C_1   0.837035 0.999396 0.336666 0.004405
C68   C     C_1   0.499459 0.124956 0.125417 -0.079820
C69   C     C_3   0.436498 0.729241 0.756431 0.184397
C70   C     C_3   0.548990 0.780060 0.817810 -0.197500
C71   C     C_3   0.546040 0.727802 0.770124 -0.420110
C72   C     C_1   0.499249 0.624681 0.625349 -0.113711
C73   C     C_3   0.495906 0.789437 0.789010 0.110304
C74   C     C_3   0.434412 0.682055 0.703812 0.132666
C75   C     C_3   0.496535 0.706199 0.707455 0.087329
C76   C     C_1   0.626133 0.999988 0.126279 -0.130422
C77   C     C_3   0.506884 0.759621 0.696140 -0.171812
C78   C     C_1   0.663371 0.999970 0.163755 0.054746
C79   C     C_3   0.505666 0.808703 0.744042 -0.155852
C80   C     C_1   0.498034 0.661260 0.662447 0.081115
C81   C     C_1   0.498408 0.836443 0.835975 0.123430
C82   C     C_1   0.500188 0.874544 0.874517 -0.111763
C83   C     C_3   0.741894 0.009364 0.296315 0.026477
C84   C     C_3   0.810328 0.807453 0.569797 0.295918
H1    H     H_    0.744695 0.902733 0.209053 0.163886
H2    H     H_    0.274276 0.017072 0.685368 0.141223
H3    H     H_    0.345436 0.094901 0.817286 0.261205
H4    H     H_    0.352767 0.041179 0.767720 0.185427
H5    H     H_    0.156367 0.910507 0.685229 0.272673
H6    H     H_    0.199394 0.923939 0.651366 0.187957
H7    H     H_    0.231283 0.909186 0.753085 0.219367
H8    H     H_    0.225359 0.982971 0.822934 0.166902
H9    H     H_    0.276823 0.929885 0.721900 0.209128
H10   H     H_    0.220923 0.288764 0.432349 0.246985
H11   H     H_    0.323105 0.224766 0.469439 0.072432
H12   H     H_    0.827833 0.731179 0.484284 0.228110
H13   H     H_    0.165838 0.256724 0.496709 0.137214
H14   H     H_    0.242341 0.331594 0.506798 0.161463
H15   H     H_    0.348754 0.279096 0.565552 0.198526
H16   H     H_    0.457937 0.312732 0.224026 0.233535
H17   H     H_    0.483911 0.258927 0.166078 0.169817
H18   H     H_    0.592247 0.247997 0.271216 0.191965
H19   H     H_    0.577242 0.275637 0.222576 0.249679
H20   H     H_    0.593216 0.320888 0.341343 0.086389
H21   H     H_    0.407266 0.251938 0.222134 0.210166
H22   H     H_    0.521580 0.247260 0.339973 0.162486
H23   H     H_    0.761345 0.665470 0.495547 0.208386
H24   H     H_    0.437982 0.714283 0.789262 0.139741
H25   H     H_    0.590882 0.820802 0.834994 0.176004
H26   H     H_    0.538671 0.690806 0.779420 0.238863
H27   H     H_    0.589765 0.742262 0.772228 0.181381
H28   H     H_    0.549530 0.850041 0.769952 0.160981
H29   H     H_    0.470209 0.742687 0.651235 0.160339
H30   H     H_    0.402533 0.674574 0.661137 0.152756
H31   H     H_    0.779627 0.734966 0.588374 0.224320
H32   H     H_    0.769569 0.719949 0.421076 0.183085
H33   H     H_    0.721730 0.808325 0.592236 0.180358
H34   H     H_    0.705193 0.646090 0.425835 0.204789
H35   H     H_    0.707088 0.752185 0.607275 0.204522
H36   H     H_    0.614596 0.718378 0.394483 0.196021
H37   H     H_    0.653885 0.685169 0.383576 0.210706
H38   H     H_    0.286084 0.022536 0.935181 0.351755
H39   H     H_    0.207922 0.105682 0.825966 0.274014
H40   H     H_    0.267012 0.119365 0.816546 0.257141
H41   H     H_    0.220966 0.127626 0.675878 0.383354
H42   H     H_    0.071482 0.900152 0.738087 0.421393
H43   H     H_    0.803354 0.973152 0.161834 0.209242
H44   H     H_    0.730154 0.940736 0.116868 0.187561
H45   H     H_    0.738541 0.834255 0.500997 0.171026
H46   H     H_    0.119648 0.225885 0.396281 0.212019
H47   H     H_    0.098758 0.169964 0.409316 0.180757
H48   H     H_    0.276205 0.122856 0.455120 0.231309
H49   H     H_    0.307438 0.180682 0.519529 0.187828
H50   H     H_    0.084055 0.064605 0.367835 0.355828
H51   H     H_    0.321351 0.257741 0.347514 0.386232
H52   H     H_    0.237877 0.317583 0.584366 0.161793
H53   H     H_    0.202428 0.259257 0.591293 0.206820
H54   H     H_    0.300710 0.232050 0.695286 0.420406
H55   H     H_    0.357223 0.357204 0.647742 0.271023
H56   H     H_    0.723431 0.784927 0.429923 0.200587
H57   H     H_    0.323757 0.376724 0.599741 0.215861
H58   H     H_    0.854721 0.109698 0.261986 0.242252
H59   H     H_    0.881189 0.116750 0.329758 0.222110
H60   H     H_    0.684028 0.401644 0.346161 0.355596
H61   H     H_    0.383238 0.150092 0.195529 0.235522
H62   H     H_    0.398546 0.110780 0.226942 0.186674
H63   H     H_    0.803433 0.156475 0.396196 0.352937
H64   H     H_    0.492393 0.137515 0.290152 0.191111
H65   H     H_    0.552899 0.188088 0.298774 0.179756
H66   H     H_    0.394463 0.211101 0.277400 0.210268
H67   H     H_    0.664057 0.761104 0.495669 0.147371
H68   H     H_    0.425456 0.183980 0.317877 0.210562
H69   H     H_    0.330654 0.083507 0.055536 0.407249
H70   H     H_    0.345630 0.605125 0.735539 0.385691
H71   H     H_    0.593763 0.777398 0.892215 0.208039
H72   H     H_    0.521008 0.729252 0.854635 0.231070
H73   H     H_    0.698811 0.028622 0.340335 0.223319
H74   H     H_    0.771595 0.056990 0.384333 0.189089
H75   H     H_    0.422086 0.785181 0.682210 0.248950
H76   H     H_    0.477268 0.847002 0.697148 0.184918
H77   H     H_    0.341181 0.798573 0.748607 0.388322
H78   H     H_    0.812593 0.850428 0.592373 0.117127
H79   H     H_    0.562903 0.813150 0.679152 0.196257
H80   H     H_    0.598786 0.807169 0.737371 0.198180
H81   H     H_    0.949626 0.851917 0.591717 0.367392
H82   H     H_    0.651495 0.922116 0.219548 0.175121
N1    N     N_3   0.739702 0.785004 0.607219 -0.436801
N2    N     N_3   0.411627 0.133575 0.205944 -0.356812
N3    N     N_3   0.508875 0.155639 0.267460 -0.428524
N4    N     N_3   0.433359 0.220348 0.311397 -0.435109
N5    N     N_3   0.552127 0.772179 0.868787 -0.453089
N6    N     N_3   0.733275 0.019121 0.347356 -0.430284
N7    N     N_3   0.461616 0.823600 0.716659 -0.377773
N8    N     N_3   0.562258 0.783286 0.694586 -0.445677
N9    N     N_3   0.636241 0.697857 0.410517 -0.426924
N10   N     N_3   0.221449 0.091504 0.795430 -0.339720
N11   N     N_3   0.767241 0.980165 0.153331 -0.423436
N12   N     N_3   0.134290 0.199761 0.409585 -0.324644
N13   N     N_3   0.265832 0.147725 0.483501 -0.361610
N14   N     N_3   0.242530 0.286688 0.596153 -0.386933
N15   N     N_3   0.347785 0.355222 0.606875 -0.407703
N16   N     N_3   0.861139 0.086740 0.284655 -0.424081
O1    O     O_R   0.938480 0.973210 0.534620 -0.596424
O2    O     O_R   0.465120 0.561230 0.526490 -0.613087
O3    O     O_R   0.596160 0.561300 0.534600 -0.613688
O4    O     O_R   0.938660 0.903940 0.465380 -0.622709
O5    O     O_R   0.526700 0.561310 0.465150 -0.609664
O6    O     O_R   0.534880 0.438520 0.473260 -0.612052
O7    O     O_R   0.465420 0.438530 0.403810 -0.606096
O8    O     O_R   0.473300 0.438440 0.534600 -0.610359
O9    O     O_R   0.403840 0.438450 0.465150 -0.604165
O10   O     O_R   0.938390 0.034620 0.473090 -0.618114
O11   O     O_R   0.938570 0.965350 0.403850 -0.613757
O12   O     O_R   0.535350 0.096040 0.062000 -0.607564
O13   O     O_R   0.061340 0.096060 0.534620 -0.623511
O14   O     O_R   0.061520 0.026790 0.465380 -0.577683
O15   O     O_R   0.061430 0.034650 0.596150 -0.578371
O16   O     O_R   0.061610 0.965380 0.526910 -0.618729
O17   O     O_R   0.465990 0.026750 0.062060 -0.599327
O18   O     O_2   0.341850 0.134446 0.909397 -0.233837
O19   O     O_2   0.251269 0.097534 0.914974 -0.209869
O20   O     O_3   0.320731 0.056342 0.942474 -0.504627
O21   O     O_2   0.343050 0.164046 0.782222 -0.229271
O22   O     O_2   0.303275 0.109810 0.675581 -0.250792
O23   O     O_R   0.527600 0.965350 0.062260 -0.620197
O24   O     O_3   0.233042 0.127072 0.713702 -0.530764
O25   O     O_2   0.132457 0.018210 0.820322 -0.213699
O26   O     O_2   0.086998 0.989704 0.715720 -0.254859
O27   O     O_3   0.112843 0.918465 0.746118 -0.585968
O28   O     O_2   0.144364 0.122470 0.336568 -0.203400
O29   O     O_2   0.196822 0.070477 0.355475 -0.201291
O30   O     O_3   0.119836 0.062658 0.388132 -0.525137
O31   O     O_2   0.259385 0.154954 0.340859 -0.200272
O32   O     O_2   0.217644 0.220836 0.347749 -0.240607
O33   O     O_3   0.330391 0.265265 0.388093 -0.586227
O34   O     O_R   0.596960 0.034640 0.062190 -0.602570
O35   O     O_2   0.253474 0.155192 0.579589 -0.267959
O36   O     O_2   0.353620 0.238659 0.629552 -0.280141
O37   O     O_3   0.285304 0.249280 0.671921 -0.501308
O38   O     O_2   0.557171 0.371747 0.236267 -0.248094
O39   O     O_2   0.597127 0.428734 0.343281 -0.296160
O40   O     O_3   0.662070 0.396608 0.306566 -0.486129
O41   O     O_2   0.764797 0.148313 0.262528 -0.237624
O42   O     O_2   0.701594 0.115304 0.302709 -0.303931
O43   O     O_3   0.816086 0.168736 0.370555 -0.526706
O44   O     O_2   0.337960 0.184441 0.116250 -0.276443
O45   O     O_R   0.466180 0.903930 0.939410 -0.599109
O46   O     O_2   0.392473 0.191415 0.062660 -0.168606
O47   O     O_3   0.372194 0.107884 0.088502 -0.541353
O48   O     O_2   0.397392 0.564378 0.645601 -0.261335
O49   O     O_2   0.445058 0.612725 0.753795 -0.336693
O50   O     O_3   0.338055 0.591206 0.694303 -0.447426
O51   O     O_2   0.328444 0.697758 0.668774 -0.272898
O52   O     O_2   0.336151 0.706010 0.762292 -0.264353
O53   O     O_3   0.380640 0.802156 0.759000 -0.562488
O54   O     O_2   0.893440 0.837317 0.676757 -0.205801
O55   O     O_2   0.884343 0.762432 0.591059 -0.328734
O56   O     O_R   0.535540 0.973220 0.939340 -0.624146
O57   O     O_3   0.936394 0.872420 0.616865 -0.503959
O58   O     O_R   0.404560 0.965340 0.939210 -0.608279
O59   O     O_R   0.473920 0.034630 0.939150 -0.606751
O60   O     O_R   0.534590 0.561220 0.595940 -0.611555
S1    S     S_3+6 0.291989 0.080518 0.898126 0.063992
S2    S     S_3+6 0.405042 0.610787 0.699727 0.044603
S3    S     S_3+6 0.368160 0.732558 0.735016 0.027032
S4    S     S_3+6 0.882357 0.818704 0.614538 0.041335
S5    S     S_3+6 0.289458 0.113075 0.724620 0.033293
S6    S     S_3+6 0.132501 0.988931 0.763618 0.045084
S7    S     S_3+6 0.172976 0.107249 0.381470 0.121242
S8    S     S_3+6 0.268942 0.214221 0.379207 0.085873
S9    S     S_3+6 0.289799 0.221368 0.610212 0.037438
S10   S     S_3+6 0.593330 0.378985 0.295305 0.038071
S11   S     S_3+6 0.757580 0.122650 0.301557 0.027846
S12   S     S_3+6 0.388060 0.178274 0.110241 0.059726
Zn1   Zn    Zn3+2 0.999880 0.046250 0.546230 1.048366
Zn2   Zn    Zn3+2 0.000120 0.953750 0.453770 1.038087
Zn3   Zn    Zn3+2 0.454450 0.953720 0.000750 1.040872
Zn4   Zn    Zn3+2 0.547080 0.046250 0.000660 1.040052
Zn5   Zn    Zn3+2 0.546380 0.499870 0.546250 1.028775
Zn6   Zn    Zn3+2 0.453620 0.499880 0.453500 1.036083

loop_
_geom_bond_atom_site_label_1
_geom_bond_atom_site_label_2
_ccdc_geom_bond_type
C46   O23   A    
C66   C68   T    
C34   C56   S    
C77   N8    S    
C23   C45   S    
O13   Zn1   S    
C45   N16   S    
C27   C29   T    
O36   S9    D    
C4    O10   A    
C54   H17   S    
O43   S11   S    
O34   Zn4   S    
C23   S11   S    
H74   N6    S    
O25   S6    D    
C46   C76   S    
C49   O60   A    
H63   O43   S    
C7    C8    S    
O23   Zn3   S    
C1    O4    A    
H33   N1    S    
O4    Zn2   S    
O49   S2    D    
C30   H13   S    
C25   H6    S    
O2    Zn6   S    
C38   N15   S    
C23   C83   S    
C15   N10   S    
O57   S4    S    
H65   N3    S    
C28   C29   S    
C70   H25   S    
O1    Zn1   S    
C5    C11   T    
C9    N9    S    
C55   C59   S    
H73   N6    S    
C38   C39   S    
C63   N3    S    
H37   N9    S    
C20   C25   S    
C17   S5    S    
C74   H30   S    
C71   H26   S    
C55   H19   S    
H41   O24   S    
C17   C20   S    
C31   S7    S    
C84   S4    S    
O60   Zn5   S    
C47   C82   S    
C7    H31   S    
C35   C42   S    
C19   C26   T    
O47   S12   S    
C7    N1    S    
C51   O6    A    
H46   N12   S    
C12   C52   S    
C2    H32   S    
O3    Zn5   S    
H51   O33   S    
C62   C63   S    
C45   C56   S    
C8    C9    S    
C49   C72   S    
C71   H27   S    
O32   S8    D    
O33   S8    S    
C69   C73   S    
C70   C71   S    
O58   Zn3   S    
C53   O8    A    
O28   S7    D    
H60   O40   S    
C54   C59   S    
C51   O7    A    
O48   S2    D    
C21   S1    S    
C74   S2    S    
C69   H24   S    
H64   N3    S    
C7    C84   S    
C18   C22   S    
C13   C14   T    
C54   S12   S    
C40   C83   S    
H69   O47   S    
C2    C6    S    
C10   H56   S    
C77   H29   S    
C50   O5    A    
C73   C81   S    
C48   O58   A    
H47   N12   S    
O42   S11   D    
C39   N14   S    
C56   N11   S    
C77   C79   S    
C33   C53   S    
C15   C20   S    
C62   N4    S    
C12   C67   S    
O5    Zn6   S    
H81   O57   S    
O37   S9    S    
H50   O30   S    
C74   C75   S    
C17   H2    S    
H43   N11   S    
H59   N16   S    
O54   S4    D    
O31   S8    D    
C6    C84   S    
C24   C25   S    
C3    C8    S    
O59   Zn4   S    
C12   C45   S    
C19   C48   S    
H49   N13   S    
C54   C60   S    
C25   H5    S    
H57   N15   S    
C3    H23   S    
H52   N14   S    
C40   C52   S    
C53   O9    A    
C81   C82   T    
C12   C83   S    
C31   N13   S    
C60   C61   S    
O12   Zn4   S    
C35   C39   S    
C70   N5    S    
O11   Zn2   S    
H39   N10   S    
C37   C38   S    
C16   O14   A    
C3    H34   S    
H71   N5    S    
O17   Zn3   S    
C49   O2    A    
H68   N4    S    
C32   C37   S    
O41   S11   D    
C58   C65   T    
C16   C43   S    
C31   C32   S    
C55   H18   S    
O39   S10   D    
C15   C21   S    
C21   H8    S    
C23   C34   S    
C79   N7    S    
C83   N6    S    
C32   H11   S    
C70   C73   S    
C17   C18   S    
C73   C79   S    
C39   S9    S    
C69   C74   S    
C51   C58   S    
O9    Zn6   S    
O29   S7    D    
C57   S10   S    
H80   N8    S    
C75   C77   S    
O27   S6    S    
O14   Zn2   S    
C47   O56   A    
O26   S6    D    
C1    O1    A    
O46   S12   D    
C79   H28   S    
C69   S3    S    
C63   N2    S    
H58   N16   S    
C52   H1    S    
H54   O37   S    
C46   O34   A    
C55   C57   S    
H75   N7    S    
C22   C24   S    
C5    C50   S    
C44   C68   S    
H40   N10   S    
C42   C43   T    
C24   H7    S    
H35   N1    S    
C84   H78   S    
C9    C10   S    
O16   Zn2   S    
C57   H20   S    
H62   N2    S    
C36   C37   S    
H36   N9    S    
O7    Zn6   S    
H70   O50   S    
O50   S2    S    
C40   H82   S    
O8    Zn5   S    
C64   C67   T    
C28   O15   A    
C76   C78   T    
C38   H15   S    
C60   H16   S    
H42   O27   S    
H55   N15   S    
C6    C10   S    
O24   S5    S    
C30   N12   S    
C57   C61   S    
C48   O59   A    
C20   C27   S    
C1    C14   S    
O10   Zn1   S    
C30   C35   S    
C4    C64   S    
H72   N5    S    
C59   C63   S    
C18   H3    S    
O19   S1    D    
C30   C36   S    
C33   C41   T    
C15   S6    S    
H38   O20   S    
O38   S10   D    
C2    C3    S    
C10   H45   S    
C72   C80   T    
C16   O13   A    
C24   H9    S    
C34   C78   S    
C6    C13   S    
C71   C75   S    
C50   O3    A    
O51   S3    D    
H66   N4    S    
H53   N14   S    
H77   O53   S    
C8    C11   S    
O20   S1    S    
O6    Zn5   S    
C2    H12   S    
C44   O12   A    
O55   S4    D    
O56   Zn4   S    
C31   C35   S    
O21   S5    D    
C61   C65   S    
C37   C41   S    
C61   C62   S    
C28   O16   A    
O22   S5    D    
C18   H4    S    
O45   Zn3   S    
H48   N13   S    
C36   H10   S    
O44   S12   D    
C75   C80   S    
C47   O45   A    
C4    O11   A    
O15   Zn1   S    
C44   O17   A    
C9    H67   S    
C62   H22   S    
C22   C26   S    
O18   S1    D    
O52   S3    D    
C34   C40   S    
C32   S8    S    
C36   H14   S    
H44   N11   S    
O35   S9    D    
O30   S7    S    
C21   C22   S    
H79   N8    S    
O53   S3    S    
H76   N7    S    
C60   H21   S    
C52   C56   S    
C59   C66   S    
H61   N2    S    
O40   S10   S    
