data_mof_unit_34551.cif
_audit_creation_date              2012-12-11T16:34:38-0500
_audit_creation_method            fapswitch 2.2
_symmetry_space_group_name_H-M    P1
_symmetry_Int_Tables_number       1
_space_group_crystal_system       triclinic
_cell_length_a                    8.320718
_cell_length_b                    17.429265
_cell_length_c                    26.98438
_cell_angle_alpha                 96.337918
_cell_angle_beta                  92.258263
_cell_angle_gamma                 83.7931
_cell_volume                      3865.1698464

loop_
_atom_site_label
_atom_site_type_symbol
_atom_type_description
_atom_site_fract_x
_atom_site_fract_y
_atom_site_fract_z
_atom_type_partial_charge
Ba1   Ba    Ba6+2 0.856110 0.463800 0.523550 1.646567
Ba2   Ba    Ba6+2 0.333710 0.536130 0.476450 1.651184
C1    C     C_3   0.664269 0.190488 0.657041 -0.364062
C2    C     C_R   0.872405 0.562058 0.175743 0.601269
C3    C     C_2   0.740452 0.519451 0.270431 -0.057042
C4    C     C_3   0.172027 0.292602 0.658187 0.292253
C5    C     C_3   0.694958 0.515355 0.323959 -0.039925
C6    C     C_1   0.981993 0.487619 0.343983 0.026362
C7    C     C_2   0.024173 0.492020 0.297379 -0.104728
C8    C     C_2   0.897903 0.506811 0.256905 0.200688
C9    C     C_R   0.023530 0.501857 0.102841 -0.075514
C10   C     C_R   0.098759 0.444744 0.132158 -0.081364
C11   C     C_R   0.216302 0.387666 0.109337 -0.011396
C12   C     C_3   0.667019 0.268492 0.637028 0.340570
C13   C     C_R   0.909434 0.560121 0.124964 -0.028025
C14   C     C_2   0.839049 0.517951 0.359601 -0.201486
C15   C     C_2   0.349564 0.481485 0.641097 -0.279920
C16   C     C_3   0.156307 0.271911 0.710885 -0.347165
C17   C     C_R   0.211487 0.440840 0.977054 0.024899
C18   C     C_R   0.030242 0.561198 0.971842 0.020420
C19   C     C_R   0.140062 0.500716 0.949001 0.051139
C20   C     C_R   0.313448 0.379805 0.951680 -0.095722
C21   C     C_R   0.348267 0.379213 0.901538 -0.059164
C22   C     C_R   0.283318 0.439241 0.873933 -0.032215
C23   C     C_3   0.495537 0.656931 0.627769 0.302829
C24   C     C_R   0.178837 0.500102 0.897547 -0.077901
C25   C     C_R   0.113245 0.560372 0.869711 -0.033465
C26   C     C_R   0.154855 0.559810 0.819183 0.592166
C27   C     C_R   0.319928 0.439036 0.823045 0.579606
C28   C     C_3   0.201960 0.301252 0.417134 0.307903
C29   C     C_2   0.454404 0.487263 0.729270 -0.069721
C30   C     C_3   0.496231 0.490447 0.675176 -0.054626
C31   C     C_1   0.208101 0.514151 0.656688 0.037484
C32   C     C_2   0.168475 0.513881 0.703987 -0.111097
C33   C     C_2   0.297859 0.499279 0.743619 0.198714
C34   C     C_3   0.463531 0.688701 0.681698 -0.369485
C35   C     C_R   0.177434 0.443217 0.028967 0.012408
C36   C     C_R   0.062757 0.501610 0.051363 0.056154
C37   C     C_R   0.987382 0.560187 0.022691 0.021619
C38   C     C_R   0.255602 0.389039 0.059467 -0.123740
C39   C     C_R   0.833531 0.616080 0.095865 -0.052549
C40   C     C_3   0.221347 0.213757 0.403590 -0.375320
C41   C     C_R   0.967655 0.621098 0.942780 -0.098478
C42   C     C_R   0.008449 0.620632 0.893122 -0.059774
C43   C     C_R   0.870488 0.615958 0.046085 -0.099149
C44   C     C_R   0.410798 0.280038 0.520881 -0.288409
C45   C     C_3   0.082591 0.715673 0.335748 0.274559
C46   C     C_R   0.553214 0.255589 0.495668 0.074367
C47   C     C_R   0.610565 0.176287 0.489996 -0.113797
C48   C     C_R   0.524122 0.121648 0.509258 -0.007066
C49   C     C_R   0.377708 0.147012 0.533366 -0.130887
C50   C     C_R   0.320261 0.226244 0.538373 0.007919
C51   C     C_R   0.590006 0.835838 0.509490 -0.117908
C52   C     C_3   0.991863 0.698814 0.582278 0.306678
C53   C     C_R   0.642783 0.756227 0.504922 0.019577
C54   C     C_R   0.877320 0.779471 0.460786 0.062203
C55   C     C_R   0.825374 0.859475 0.464979 -0.135655
C56   C     C_3   0.157066 0.738883 0.289166 -0.340679
C57   C     C_R   0.680384 0.887980 0.489237 -0.005515
C58   C     C_1   0.627532 0.970650 0.495780 0.003846
C59   C     C_1   0.581094 0.039456 0.501895 0.003186
C60   C     C_R   0.783653 0.728534 0.479728 -0.263658
C61   C     C_3   0.972817 0.786319 0.595908 -0.378394
C62   C     C_3   0.700725 0.355617 0.373183 0.295995
C63   C     C_3   0.734328 0.321484 0.319718 -0.354762
C64   C     C_2   0.907571 0.709090 0.324632 0.802089
C65   C     C_2   0.303046 0.323938 0.135033 0.936135
C66   C     C_3   0.503690 0.736145 0.371622 0.343696
C67   C     C_3   0.514696 0.818310 0.358697 -0.390308
C68   C     C_R   0.056475 0.448386 0.183415 0.601969
H1    H     H_    0.781923 0.267662 0.617269 0.103838
H2    H     H_    0.815222 0.372586 0.391122 0.021404
H3    H     H_    0.608850 0.406668 0.373307 0.026584
H4    H     H_    0.768666 0.180216 0.683184 0.135595
H5    H     H_    0.817140 0.267044 0.319717 0.144340
H6    H     H_    0.792953 0.362431 0.299445 0.070402
H7    H     H_    0.619348 0.308612 0.299764 0.131342
H8    H     H_    0.562768 0.276431 0.610612 -0.027910
H9    H     H_    0.671658 0.143381 0.625576 0.078428
H10   H     H_    0.380461 0.639062 0.610345 0.031865
H11   H     H_    0.588349 0.606022 0.626857 0.030264
H12   H     H_    0.301847 0.198424 0.371332 0.137786
H13   H     H_    0.378683 0.742645 0.682900 0.139530
H14   H     H_    0.408009 0.645936 0.701258 0.074246
H15   H     H_    0.578718 0.701885 0.701412 0.124594
H16   H     H_    0.550139 0.189348 0.676839 0.123068
H17   H     H_    0.210760 0.315116 0.737879 0.129939
H18   H     H_    0.142210 0.658353 0.343536 0.059826
H19   H     H_    0.132069 0.697572 0.256051 0.114145
H20   H     H_    0.107559 0.798540 0.281876 0.150858
H21   H     H_    0.288398 0.737644 0.293106 0.140197
H22   H     H_    0.596971 0.724931 0.400794 0.061016
H23   H     H_    0.274955 0.184077 0.435456 0.061187
H24   H     H_    0.385401 0.733140 0.387606 0.093024
H25   H     H_    0.641810 0.826354 0.351212 0.141414
H26   H     H_    0.474197 0.860822 0.390843 0.092376
H27   H     H_    0.111773 0.352313 0.656329 0.075140
H28   H     H_    0.437443 0.830927 0.325557 0.133449
H29   H     H_    0.149980 0.485614 0.288305 0.148205
H30   H     H_    0.552004 0.480307 0.756831 0.108427
H31   H     H_    0.427232 0.330903 0.884333 0.125230
H32   H     H_    0.366520 0.330134 0.969082 0.076857
H33   H     H_    0.349837 0.345896 0.045315 0.088338
H34   H     H_    0.101404 0.192981 0.393676 0.125151
H35   H     H_    0.644045 0.526016 0.242456 0.109415
H36   H     H_    0.743407 0.660769 0.111592 0.128630
H37   H     H_    0.888154 0.670495 0.957430 0.072297
H38   H     H_    0.302666 0.291084 0.650446 -0.017764
H39   H     H_    0.956656 0.668199 0.872981 0.123240
H40   H     H_    0.042830 0.524509 0.714257 0.136973
H41   H     H_    0.802846 0.660406 0.026868 0.072178
H42   H     H_    0.822728 0.540901 0.398360 0.089583
H43   H     H_    0.360568 0.449953 0.604135 0.069742
H44   H     H_    0.482091 0.857221 0.530041 0.084577
H45   H     H_    0.872162 0.679004 0.572027 0.006269
H46   H     H_    0.306993 0.105427 0.546939 0.081019
H47   H     H_    0.898799 0.899130 0.450509 0.086334
H48   H     H_    0.719311 0.157055 0.469369 0.088730
H49   H     H_    0.365061 0.340847 0.524150 0.065590
H50   H     H_    0.026611 0.272313 0.719388 0.135994
H51   H     H_    0.824941 0.667204 0.477159 0.066268
H52   H     H_    0.219807 0.213386 0.714801 0.122178
H53   H     H_    0.322357 0.321164 0.426161 0.012401
H54   H     H_    0.123615 0.314994 0.449995 0.060443
H55   H     H_    0.716073 0.723949 0.276266 0.363877
H56   H     H_    0.073293 0.684917 0.550193 0.067483
H57   H     H_    0.518572 0.269855 0.155563 0.318906
H58   H     H_    0.886885 0.801927 0.626773 0.134456
H59   H     H_    0.926108 0.816407 0.563451 0.062551
H60   H     H_    0.091851 0.806494 0.607929 0.123902
N1    N     N_R   0.942717 0.505603 0.204538 -0.425560
N2    N     N_R   0.256721 0.499244 0.796007 -0.424254
O1    O     O_2   0.910880 0.540430 0.617910 -0.463625
O2    O     O_2   0.205858 0.773988 0.468966 -0.498514
O3    O     O_3   0.103410 0.772255 0.376430 -0.635873
O4    O     O_3   0.142880 0.540370 0.557740 -0.490053
O5    O     O_3   0.562610 0.408580 0.475460 -0.486787
O6    O     O_2   0.365880 0.685750 0.523280 -0.457729
O7    O     O_3   0.552760 0.715156 0.603587 -0.640047
O8    O     O_2   0.361224 0.561809 0.326332 -0.518102
O9    O     O_3   0.526602 0.681396 0.329154 -0.593379
O10   O     O_2   0.122168 0.399950 0.209439 -0.568746
O11   O     O_2   0.407380 0.384706 0.802762 -0.597001
O12   O     O_3   0.640142 0.299247 0.397732 -0.634298
O13   O     O_2   0.778949 0.615299 0.194610 -0.583908
O14   O     O_2   0.101997 0.614035 0.796107 -0.598048
O15   O     O_3   0.675650 0.402220 0.588450 -0.489562
O16   O     O_2   0.831812 0.440825 0.673651 -0.495027
O17   O     O_3   0.056581 0.664027 0.623878 -0.626549
O18   O     O_3   0.654957 0.327850 0.676787 -0.588480
O19   O     O_2   0.823810 0.314230 0.476690 -0.463854
O20   O     O_3   0.086630 0.363340 0.564170 -0.489228
O21   O     O_2   0.984469 0.225818 0.532658 -0.485453
O22   O     O_2   0.833921 0.676905 0.352736 -0.681655
O23   O     O_3   0.097254 0.239157 0.624525 -0.601343
O24   O     O_R   0.830831 0.737652 0.282197 -0.736478
O25   O     O_2   0.227299 0.275965 0.151099 -0.555025
O26   O     O_R   0.472442 0.316181 0.137975 -0.758763
O27   O     O_2   0.278810 0.459550 0.382060 -0.463143
O28   O     O_3   0.046820 0.459570 0.442260 -0.497995
O29   O     O_3   0.514050 0.597710 0.411540 -0.484015
O30   O     O_3   0.132386 0.335915 0.376038 -0.622503
O31   O     O_3   0.627090 0.591350 0.524530 -0.476034
O32   O     O_3   0.103080 0.636600 0.435820 -0.477243
P1    P     P_3+3 0.078810 0.562990 0.610370 0.999753
P2    P     P_3+3 0.645380 0.325580 0.462150 0.988656
P3    P     P_3+3 0.121769 0.262451 0.564078 0.938106
P4    P     P_3+3 0.110900 0.436950 0.389630 0.998166
P5    P     P_3+3 0.073157 0.738832 0.434709 0.957975
P6    P     P_3+3 0.665628 0.417189 0.653536 0.973141
P7    P     P_3+3 0.548771 0.688522 0.539193 0.950101
P8    P     P_3+3 0.524727 0.587585 0.346867 1.000564

loop_
_geom_bond_atom_site_label_1
_geom_bond_atom_site_label_2
_ccdc_geom_bond_type
C6    C7    D    
C19   C24   A    
Ba2   P4    S    
C54   P5    S    
C40   H23   S    
C12   H1    S    
C40   H12   S    
C67   H26   S    
C1    H9    S    
O20   P3    S    
C51   C57   A    
C15   H43   S    
C3    H35   S    
O27   P4    D    
C52   H56   S    
C24   C25   A    
C63   H6    S    
C55   H47   S    
C17   C19   A    
C22   C24   A    
C32   C33   S    
C35   C38   A    
C50   P3    S    
C36   C37   A    
Ba1   O5    S    
C55   C57   A    
C27   N2    Am   
O4    P1    S    
C34   H13   S    
C23   H10   S    
C53   C60   A    
C44   C50   A    
C16   H17   S    
C54   C55   A    
Ba1   O20   S    
Ba1   Ba2   S    
C56   H21   S    
C61   H60   S    
C1    H4    S    
C22   C27   A    
C11   C38   A    
C30   P6    S    
C6    P4    S    
C8    N1    S    
O29   P8    S    
C9    C13   A    
C25   C42   A    
C29   C30   S    
O23   P3    S    
Ba2   O27   S    
O2    P5    D    
O16   P6    D    
C21   C22   A    
O7    P7    S    
C52   O17   S    
Ba1   O4    S    
C17   C35   A    
C7    C8    S    
C45   C64   S    
C4    O23   S    
O15   P6    S    
C37   C43   A    
C45   O3    S    
C42   H39   S    
O28   P4    S    
C57   C58   S    
C6    C14   D    
C5    P8    S    
O21   P3    D    
C1    H16   S    
C23   H11   S    
O32   P5    S    
C15   C31   D    
Ba1   O1    S    
Ba2   O29   S    
C53   P7    S    
O5    P2    S    
C48   C49   A    
C2    N1    Am   
C51   C53   A    
C4    C16   S    
C44   C46   A    
C68   O10   D    
C63   H7    S    
C39   H36   S    
C49   C50   A    
Ba2   O6    S    
C4    H27   S    
C17   C20   A    
O17   P1    S    
C13   C39   A    
Ba2   O32   S    
C3    C5    S    
C18   C37   A    
C66   C67   S    
C62   O12   S    
O9    P8    S    
Ba2   O4    S    
O12   P2    S    
C58   C59   T    
C26   N2    Am   
C9    C36   A    
C41   C42   A    
C35   C36   A    
O1    P1    D    
C12   H8    S    
C47   H48   S    
Ba1   P1    S    
C62   H3    S    
C52   H45   S    
C12   O18   S    
C31   C32   D    
C66   O9    S    
C65   O25   D    
C41   H37   S    
C29   H30   S    
C18   C19   A    
C28   H53   S    
C56   H20   S    
H57   O26   S    
C1    C12   S    
C16   H52   S    
O30   P4    S    
Ba2   O28   S    
C46   C47   A    
H55   O24   S    
C28   H54   S    
C32   H40   S    
O3    P5    S    
C54   C60   A    
Ba1   O15   S    
C28   O30   S    
C16   H50   S    
C18   C41   A    
O31   P7    S    
C51   H44   S    
C14   H42   S    
C64   O22   D    
C11   C65   S    
C15   C30   S    
C10   C68   A    
C5    C14   S    
C39   C43   A    
C23   O7    S    
O6    P7    D    
Ba2   O5    S    
Ba1   O28   S    
C31   P1    S    
C61   H58   S    
C67   H25   S    
C40   H34   S    
Ba2   O31   S    
C9    C10   A    
C43   H41   S    
C34   H15   S    
O19   P2    D    
C26   O14   D    
C49   H46   S    
C20   H32   S    
C45   H18   S    
C2    C13   A    
C3    C8    D    
C67   H28   S    
C45   C56   S    
C64   O24   S    
C21   H31   S    
Ba1   P2    S    
C34   H14   S    
C2    O13   D    
C62   C63   S    
C68   N1    Am   
C66   H22   S    
C44   H49   S    
Ba1   O19   S    
C65   O26   S    
C29   C33   D    
C61   H59   S    
C56   H19   S    
C66   H24   S    
O8    P8    D    
C23   C34   S    
C46   P2    S    
C10   C11   A    
Ba1   O31   S    
C7    H29   S    
C47   C48   A    
C52   C61   S    
C25   C26   A    
C48   C59   S    
C4    H38   S    
C20   C21   A    
C28   C40   S    
O18   P6    S    
C33   N2    S    
C60   H51   S    
C63   H5    S    
C62   H2    S    
C38   H33   S    
C27   O11   D    
