data_mof_unit_47368.cif
_audit_creation_date              2013-03-05T16:32:59-0500
_audit_creation_method            fapswitch 2.2
_symmetry_space_group_name_H-M    P1
_symmetry_Int_Tables_number       1
_space_group_crystal_system       triclinic
_cell_length_a                    23.497418
_cell_length_b                    10.860559
_cell_length_c                    9.602707
_cell_angle_alpha                 90.887903
_cell_angle_beta                  89.700208
_cell_angle_gamma                 91.044434
_cell_volume                      2449.83235502

loop_
_atom_site_label
_atom_site_type_symbol
_atom_site_description
_atom_site_fract_x
_atom_site_fract_y
_atom_site_fract_z
_atom_type_partial_charge
O1    O     O_R   0.500000 0.319640 0.618810 -0.557160
O2    O     O_R   0.500010 0.319680 0.381230 -0.560432
C1    C     C_R   0.498940 0.262675 0.499074 0.823045
O3    O     O_R   0.417880 0.499940 0.618820 -0.540300
O4    O     O_R   0.417880 0.499980 0.381240 -0.542445
C2    C     C_R   0.391209 0.499379 0.499959 0.840830
Cu1   Cu    Cu3+1 0.500000 0.499980 0.640670 1.019769
Cu2   Cu    Cu3+1 0.500000 0.500020 0.359330 1.015114
O5    O     O_R   0.499990 0.680320 0.618770 -0.581007
O6    O     O_R   0.500000 0.680360 0.381190 -0.599159
O7    O     O_R   0.582120 0.500020 0.618760 -0.582653
O8    O     O_R   0.582120 0.500060 0.381180 -0.584728
C3    C     C_R   0.499822 0.737620 0.500659 0.835728
C4    C     C_R   0.609015 0.500652 0.499680 0.839333
C5    C     C_R   0.881917 0.608544 0.553376 0.636564
N1    N     N_R   0.852332 0.507966 0.502448 -0.461548
C6    C     C_R   0.879330 0.404635 0.456012 0.616830
C7    C     C_R   0.938820 0.400912 0.454882 -0.003906
C8    C     C_R   0.970335 0.503157 0.507276 -0.040607
C9    C     C_R   0.941955 0.607348 0.561911 -0.139938
C10   C     C_R   0.967335 0.297681 0.401645 -0.099708
C11   C     C_R   0.026567 0.296204 0.397924 -0.115613
C12   C     C_R   0.058572 0.397625 0.448141 -0.018594
C13   C     C_R   0.030434 0.501006 0.503944 -0.004854
C14   C     C_R   0.062376 0.602241 0.555660 -0.079428
C15   C     C_R   0.034276 0.704059 0.612673 -0.168757
C16   C     C_R   0.974778 0.707162 0.618597 0.337956
C17   C     C_R   0.118261 0.398611 0.443470 0.601828
N2    N     N_R   0.148630 0.498399 0.493521 -0.453938
C18   C     C_R   0.122037 0.598526 0.550551 0.640586
O9    O     O_2   0.853075 0.709970 0.591282 -0.426237
O10   O     O_2   0.848528 0.306253 0.409899 -0.486553
O11   O     O_2   0.145788 0.301205 0.388379 -0.485088
O12   O     O_2   0.153306 0.694008 0.602234 -0.486664
C19   C     C_R   0.241092 0.576069 0.399821 0.385532
C20   C     C_R   0.300743 0.577000 0.406716 -0.209095
H1    H     H_    0.325439 0.637402 0.339881 0.196065
C21   C     C_R   0.328937 0.499453 0.497919 -0.089454
C22   C     C_R   0.297484 0.418414 0.581200 -0.109368
H2    H     H_    0.318623 0.353236 0.646247 0.222165
C23   C     C_R   0.238301 0.418244 0.577878 -0.118672
C24   C     C_R   0.209698 0.496998 0.488805 0.213000
C25   C     C_R   0.761729 0.518295 0.371200 0.388964
C26   C     C_R   0.702013 0.512896 0.373077 -0.250502
H3    H     H_    0.679139 0.518433 0.275923 0.187027
C27   C     C_R   0.671737 0.503135 0.499082 -0.091410
C28   C     C_R   0.701785 0.497401 0.624554 -0.160653
H4    H     H_    0.679622 0.489511 0.723255 0.174102
C29   C     C_R   0.760988 0.500645 0.624059 -0.107723
C30   C     C_R   0.791302 0.510625 0.498682 0.216878
C31   C     C_R   0.493342 0.066554 0.623022 0.105010
C32   C     C_R   0.494119 0.129642 0.497899 -0.071575
C33   C     C_R   0.489121 0.061876 0.372603 -0.141596
H5    H     H_    0.487430 0.107398 0.273369 0.203766
C34   C     C_R   0.489584 0.933364 0.374026 -0.182362
H6    H     H_    0.487050 0.883613 0.275585 0.165293
C35   C     C_R   0.496407 0.871099 0.500429 -0.042067
C36   C     C_R   0.496224 0.940238 0.624429 0.026459
C37   C     C_3   0.533859 0.945202 0.751096 0.129815
C38   C     C_3   0.529252 0.084487 0.749372 -0.438150
H7    H     H_    0.504629 0.121948 0.839105 0.211958
H8    H     H_    0.569911 0.134699 0.727001 0.217963
C39   C     C_R   0.547359 0.535842 0.073393 0.170708
N3    N     N_R   0.500360 0.500930 0.147930 -0.266047
C40   C     C_R   0.456411 0.446672 0.074036 0.308842
C41   C     C_R   0.456120 0.447897 0.925781 0.325273
N4    N     N_R   0.500360 0.500890 0.852020 -0.266439
C42   C     C_R   0.547705 0.533941 0.926713 0.134762
C43   C     C_3   0.578751 0.654043 0.922031 -0.360893
C44   C     C_3   0.577707 0.657208 0.080260 -0.425129
H9    H     H_    0.622210 0.645454 0.877122 0.228101
H10   H     H_    0.552212 0.724534 0.875076 0.211716
H11   H     H_    0.550906 0.731584 0.124628 0.205990
H12   H     H_    0.943974 0.218053 0.361363 0.210796
H13   H     H_    0.783599 0.494310 0.721615 0.192266
H14   H     H_    0.513390 0.904341 0.844474 0.095460
N5    N     N_R   0.592858 0.907183 0.728144 0.139828
O13   O     O_R   0.609123 0.854474 0.612390 -0.351195
O14   O     O_R   0.629928 0.926146 0.826646 -0.315125
N6    N     N_R   0.411233 0.383026 0.144471 0.174932
O15   O     O_R   0.360607 0.429582 0.148013 -0.288798
O16   O     O_R   0.417173 0.267927 0.175351 -0.349060
H15   H     H_    0.047152 0.215492 0.355149 0.207744
N7    N     N_R   0.408855 0.391908 0.855309 0.159156
O17   O     O_R   0.412212 0.278899 0.809814 -0.359010
O18   O     O_R   0.359188 0.442219 0.866278 -0.316359
H16   H     H_    0.620710 0.650719 0.126742 0.216009
H17   H     H_    0.058520 0.781244 0.655977 0.223772
N8    N     N_R   0.949109 0.810045 0.688219 0.171930
O19   O     O_R   0.919253 0.792187 0.800876 -0.248413
O20   O     O_R   0.965686 0.921523 0.658176 -0.302053
N9    N     N_R   0.213351 0.654025 0.301959 0.154744
O21   O     O_R   0.239628 0.751272 0.254341 -0.292380
O22   O     O_R   0.164040 0.622788 0.249992 -0.307526
H18   H     H_    0.214400 0.356601 0.644834 0.186197
N10   N     N_R   0.791368 0.532532 0.240478 0.148303
O23   O     O_R   0.841155 0.586751 0.235273 -0.304437
O24   O     O_R   0.766521 0.501022 0.124096 -0.333302

loop_
_geom_bond_atom_site_label_1
_geom_bond_atom_site_label_2
_geom_bond_distance
_ccdc_geom_bond_type
C34   H6    1.082904 S    
N2    C24   1.435756 S    
C7    C10   1.404741 A    
C23   C24   1.401613 A    
C8    C9    1.416294 A    
C37   N5    1.468277 S    
Cu1   Cu2   2.701632 S    
C28   C29   1.390890 A    
C23   H18   1.082986 S    
C33   H5    1.081560 S    
C26   H3    1.082146 S    
Cu1   O7    1.939940 S    
C15   C16   1.399900 A    
C20   H1    1.083636 S    
N1    C30   1.435513 S    
O4    C2    1.298098 A    
O7    C4    1.303659 A    
C3    C35   1.453369 S    
C5    N1    1.369285 A    
C38   H8    1.113011 S    
C7    C8    1.411098 A    
C43   H9    1.111344 S    
C19   C24   1.415924 A    
O5    C3    1.302177 A    
C39   C42   1.408339 A    
C19   C20   1.403396 A    
N1    C6    1.366808 A    
N10   O24   1.301797 A    
C12   C13   1.410543 A    
C2    C21   1.463466 S    
C16   N8    1.434048 S    
N8    O20   1.301247 A    
C19   N9    1.440830 S    
C33   C34   1.396236 A    
C41   N4    1.377192 A    
C37   C38   1.518898 S    
C40   N6    1.429132 S    
C10   C11   1.392463 A    
O3    Cu1   1.942065 S    
C44   H16   1.110632 S    
C26   C27   1.404857 A    
C6    C7    1.399166 A    
N5    O14   1.300730 A    
C5    C9    1.413838 A    
C18   O12   1.349668 S    
N4    C42   1.366290 A    
C13   C14   1.405591 A    
C4    C27   1.473538 S    
C22   H2    1.080617 S    
C42   C43   1.484030 S    
C14   C15   1.400922 A    
N5    O13   1.301198 A    
C41   N7    1.425349 S    
C10   H12   1.083217 S    
C31   C32   1.392219 A    
C38   H7    1.111425 S    
O1    C1    1.297338 A    
C43   H10   1.099687 S    
C25   C26   1.403368 A    
N2    C18   1.369534 A    
C28   H4    1.082862 S    
C39   C44   1.487877 S    
Cu2   O8    1.942065 S    
N10   O23   1.301162 A    
C44   H11   1.111600 S    
N9    O22   1.301206 A    
C25   N10   1.441397 S    
C31   C36   1.375035 A    
C12   C17   1.402868 A    
N7    O17   1.300001 A    
C29   H13   1.083130 S    
Cu2   N3    2.030161 S    
N6    O16   1.299346 A    
O8    C4    1.304398 A    
C17   O11   1.349582 S    
C29   C30   1.400320 A    
C34   C35   1.409874 A    
O3    C2    1.304871 A    
C32   C33   1.404987 A    
C14   C18   1.403783 A    
Cu1   O5    1.973094 S    
C27   C28   1.402475 A    
C17   N2    1.368940 A    
O1    Cu1   1.966573 S    
O2    Cu2   1.973094 S    
N7    O18   1.300710 A    
N6    O15   1.301096 A    
O6    C3    1.296462 A    
O4    Cu2   1.939945 S    
C1    C32   1.447058 S    
C25   C30   1.415123 A    
C5    O9    1.348113 S    
C9    C16   1.421942 A    
N3    C40   1.374666 A    
C20   C21   1.401604 A    
C8    C13   1.412970 A    
C36   C37   1.507290 S    
C11   H15   1.083179 S    
C35   C36   1.397880 A    
C21   C22   1.397255 A    
N9    O21   1.301546 A    
O2    C1    1.298203 A    
C43   C44   1.519368 S    
Cu1   N4    2.029465 S    
C39   N3    1.364019 A    
C15   H17   1.083701 S    
C22   C23   1.391154 A    
Cu2   O6    1.966572 S    
C40   C41   1.423977 A    
C6    O10   1.349840 S    
C11   C12   1.403033 A    
C31   C38   1.489768 S    
N8    O19   1.301412 A    
C37   H14   1.110113 S    
