data_mof_unit_22843.cif
_audit_creation_date              2012-10-26T18:47:35-0400
_audit_creation_method            fapswitch 2.2
_symmetry_space_group_name_H-M    P1
_symmetry_Int_Tables_number       1
_space_group_crystal_system       triclinic
_cell_length_a                    10.913196
_cell_length_b                    12.922805
_cell_length_c                    11.708944
_cell_angle_alpha                 100.437108
_cell_angle_beta                  95.922886
_cell_angle_gamma                 90.675323
_cell_volume                      1614.52636288

loop_
_atom_site_label
_atom_site_type_symbol
_atom_type_description
_atom_site_fract_x
_atom_site_fract_y
_atom_site_fract_z
_atom_type_partial_charge
C1    C     C_R   0.500226 0.299338 0.478319 0.555220
C2    C     C_R   0.402357 0.975297 0.614188 -0.145503
C3    C     C_R   0.580469 0.131163 0.388657 -0.213272
C4    C     C_R   0.419531 0.868837 0.611343 -0.213271
C5    C     C_R   0.439914 0.134327 0.538225 0.248352
C6    C     C_R   0.560086 0.865673 0.461775 0.248353
C7    C     C_R   0.460240 0.027644 0.538476 0.018402
C8    C     C_R   0.539760 0.972356 0.461524 0.018402
C9    C     C_R   0.402575 0.387891 0.014941 -0.153077
C10   C     C_R   0.597425 0.612109 0.985059 -0.153076
C11   C     C_R   0.411356 0.397283 0.138586 0.425668
C12   C     C_R   0.499774 0.700662 0.521680 0.555219
C13   C     C_R   0.588644 0.602717 0.861414 0.425668
C14   C     C_R   0.539189 0.550859 0.160149 -0.003389
C15   C     C_R   0.460811 0.449141 0.839851 -0.003390
C16   C     C_R   0.261834 0.499241 0.497862 0.533376
C17   C     C_R   0.738166 0.500759 0.502138 0.533376
C18   C     C_R   0.534536 0.541181 0.036673 -0.054106
C19   C     C_R   0.465464 0.458819 0.963327 -0.054106
C20   C     C_R   0.142025 0.506472 0.096986 -0.143648
C21   C     C_R   0.857974 0.493527 0.903014 -0.143649
C22   C     C_R   0.129074 0.528870 0.216249 -0.074383
C23   C     C_R   0.872215 0.500186 0.505186 -0.004355
C24   C     C_R   0.870925 0.471130 0.783751 -0.074382
C25   C     C_R   0.084530 0.450676 0.271324 0.025895
C26   C     C_R   0.915470 0.549324 0.728676 0.025895
C27   C     C_R   0.051675 0.350581 0.205338 -0.036689
C28   C     C_R   0.948326 0.649418 0.794662 -0.036691
C29   C     C_R   0.062012 0.326929 0.085390 0.302216
C30   C     C_R   0.937990 0.673070 0.914610 0.302215
C31   C     C_R   0.107540 0.406983 0.031113 -0.093529
C32   C     C_R   0.892461 0.593017 0.968887 -0.093529
C33   C     C_R   0.920598 0.478418 0.397682 -0.168896
C34   C     C_R   0.127785 0.499814 0.494813 -0.004355
C35   C     C_R   0.079402 0.521582 0.602318 -0.168896
C36   C     C_3   0.625782 0.776613 0.850285 -0.000325
C37   C     C_3   0.703108 0.849373 0.795653 -0.369052
C38   C     C_3   0.374218 0.223387 0.149714 -0.000325
C39   C     C_3   0.296893 0.150626 0.204347 -0.369050
C40   C     C_3   0.056565 0.197495 0.915300 -0.024722
C41   C     C_3   0.026732 0.080683 0.872428 -0.373120
C42   C     C_3   0.943429 0.802506 0.084698 -0.024723
C43   C     C_3   0.973258 0.919320 0.127565 -0.373118
C44   C     C_3   0.751085 0.797483 0.450097 -0.014168
C45   C     C_R   0.953301 0.522071 0.609523 -0.041186
C46   C     C_3   0.841135 0.750056 0.365946 -0.383376
C47   C     C_3   0.248915 0.202516 0.549904 -0.014168
C48   C     C_3   0.158866 0.249947 0.634054 -0.383375
C49   C     C_R   0.046699 0.477929 0.390477 -0.041186
C50   C     C_R   0.495391 0.813766 0.533764 0.000891
C51   C     C_R   0.504609 0.186234 0.466236 0.000890
C52   C     C_R   0.597642 0.024703 0.385812 -0.145503
Cu1   Cu    Cu3+1 0.509250 0.507730 0.615930 0.993474
Cu2   Cu    Cu3+1 0.490750 0.492270 0.384070 0.993474
H1    H     H_    0.115443 0.394659 0.938380 0.080060
H2    H     H_    0.849788 0.392256 0.735135 0.112792
H3    H     H_    0.013028 0.291179 0.246988 0.106895
H4    H     H_    0.986974 0.708821 0.753014 0.106896
H5    H     H_    0.859591 0.461347 0.316905 0.134104
H6    H     H_    0.140409 0.538653 0.683095 0.134104
H7    H     H_    0.369906 0.828466 0.666708 0.120802
H8    H     H_    0.630094 0.171534 0.333292 0.120803
H9    H     H_    0.658360 0.984263 0.326021 0.160507
H10   H     H_    0.341640 0.015737 0.673979 0.160507
H11   H     H_    0.645128 0.801917 0.946237 0.102213
H12   H     H_    0.884559 0.605340 0.061620 0.080061
H13   H     H_    0.526573 0.787891 0.824336 0.136021
H14   H     H_    0.695936 0.823541 0.699847 0.147741
H15   H     H_    0.670448 0.931075 0.815672 0.098517
H16   H     H_    0.801298 0.848842 0.831118 0.173353
H17   H     H_    0.473427 0.212108 0.175662 0.136019
H18   H     H_    0.354870 0.198083 0.053762 0.102216
H19   H     H_    0.198703 0.151157 0.168883 0.173356
H20   H     H_    0.329553 0.068924 0.184327 0.098518
H21   H     H_    0.304066 0.176459 0.300153 0.147741
H22   H     H_    0.157765 0.210191 0.916345 0.124814
H23   H     H_    0.406819 0.385492 0.783598 0.159205
H24   H     H_    0.005137 0.241964 0.853795 0.127915
H25   H     H_    0.926250 0.064501 0.870385 0.157571
H26   H     H_    0.054145 0.055967 0.783059 0.089676
H27   H     H_    0.077775 0.033983 0.931578 0.164314
H28   H     H_    0.994853 0.758041 0.146208 0.127915
H29   H     H_    0.842229 0.789809 0.083646 0.124814
H30   H     H_    0.922223 0.966015 0.068407 0.164316
H31   H     H_    0.945832 0.944039 0.216929 0.089676
H32   H     H_    0.073740 0.935502 0.129620 0.157571
H33   H     H_    0.740533 0.742430 0.511402 0.139346
H34   H     H_    0.593181 0.614508 0.216401 0.159205
H35   H     H_    0.791521 0.874187 0.499847 0.114777
H36   H     H_    0.856607 0.804668 0.305747 0.132192
H37   H     H_    0.930476 0.737201 0.415236 0.103245
H38   H     H_    0.803878 0.673436 0.314484 0.153925
H39   H     H_    0.208478 0.125812 0.500156 0.114778
H40   H     H_    0.259466 0.257567 0.488595 0.139344
H41   H     H_    0.196125 0.326568 0.685514 0.153926
H42   H     H_    0.069524 0.262801 0.584764 0.103245
H43   H     H_    0.143395 0.195338 0.694256 0.132192
H44   H     H_    0.344605 0.326963 0.958717 0.080236
H45   H     H_    0.655395 0.673037 0.041283 0.080235
H46   H     H_    0.175867 0.567277 0.054627 0.125590
H47   H     H_    0.824132 0.432723 0.945372 0.125588
H48   H     H_    0.150211 0.607744 0.264864 0.112793
N1    N     N_R   0.523180 0.519350 0.790130 -0.221000
N2    N     N_R   0.476820 0.480650 0.209870 -0.221000
O1    O     O_R   0.506570 0.354460 0.582000 -0.477699
O2    O     O_3   0.343242 0.329266 0.188412 -0.519305
O3    O     O_3   0.018968 0.227008 0.027930 -0.584109
O4    O     O_3   0.981037 0.772990 0.972072 -0.584108
O5    O     O_3   0.637017 0.811048 0.386303 -0.571207
O6    O     O_3   0.362983 0.188953 0.613697 -0.571207
O7    O     O_R   0.493430 0.645540 0.418000 -0.477699
O8    O     O_R   0.490940 0.341410 0.386200 -0.482662
O9    O     O_R   0.509060 0.658590 0.613800 -0.482663
O10   O     O_R   0.327460 0.506540 0.597900 -0.529898
O11   O     O_R   0.672540 0.493460 0.402100 -0.529898
O12   O     O_R   0.311830 0.493480 0.402100 -0.466633
O13   O     O_R   0.688170 0.506520 0.597900 -0.466633
O14   O     O_3   0.656758 0.670734 0.811588 -0.519305

loop_
_geom_bond_atom_site_label_1
_geom_bond_atom_site_label_2
_ccdc_geom_bond_type
C9    H44   S    
C23   C45   A    
C48   H41   S    
C37   H15   S    
C27   C29   A    
C14   C18   A    
C2    C7    A    
C42   H28   S    
C41   H26   S    
C13   O14   S    
C36   H13   S    
C7    C8    A    
Cu1   Cu2   S    
C15   C19   A    
C48   H43   S    
C17   C23   S    
Cu2   N2    S    
C36   C37   S    
C24   C26   A    
C18   C19   A    
C1    O8    A    
C38   C39   S    
Cu1   O13   S    
C46   H38   S    
C5    O6    S    
C33   C49   A    
C37   H14   S    
C34   C35   A    
C39   H20   S    
C26   C45   S    
C16   C34   S    
C9    C19   A    
Cu1   O9    S    
C23   C33   A    
C22   C25   A    
Cu2   O12   S    
C11   N2    A    
C39   H21   S    
C13   N1    A    
C44   H33   S    
C36   O14   S    
C8    C52   A    
C17   O13   A    
C21   H47   S    
C44   O5    S    
C33   H5    S    
C37   H16   S    
C43   H30   S    
C16   O12   A    
C2    H10   S    
C10   C18   A    
C21   C32   A    
C38   H18   S    
C43   H31   S    
C27   H3    S    
C5    C7    A    
C3    C51   A    
C36   H11   S    
C6    C8    A    
C46   H37   S    
C44   C46   S    
C4    H7    S    
C10   C13   A    
C40   H22   S    
C4    C50   A    
C35   H6    S    
C38   O2    S    
C2    C4    A    
C1    C51   S    
C14   N2    A    
C47   C48   S    
C20   H46   S    
C41   H27   S    
Cu2   O11   S    
C11   O2    S    
C47   H39   S    
Cu2   O8    S    
C6    C50   A    
C9    C11   A    
C40   O3    S    
C40   C41   S    
C20   C22   A    
C6    O5    S    
C40   H24   S    
C24   H2    S    
C42   C43   S    
C35   C45   A    
Cu1   O10   S    
C17   O11   A    
C32   H12   S    
C12   O9    A    
C3    H8    S    
C38   H17   S    
C34   C49   A    
C48   H42   S    
C30   O4    S    
C43   H32   S    
C5    C51   A    
C42   H29   S    
C52   H9    S    
C16   O10   A    
C41   H25   S    
C12   C50   S    
C3    C52   A    
C46   H36   S    
C28   H4    S    
C25   C27   A    
C47   O6    S    
C26   C28   A    
C22   H48   S    
C31   H1    S    
C28   C30   A    
C14   H34   S    
C29   C31   A    
C30   C32   A    
C15   H23   S    
Cu1   N1    S    
C47   H40   S    
Cu2   O7    S    
C39   H19   S    
C10   H45   S    
C25   C49   S    
Cu1   O1    S    
C21   C24   A    
C29   O3    S    
C15   N1    A    
C42   O4    S    
C12   O7    A    
C44   H35   S    
C1    O1    A    
C20   C31   A    
