data_mof_unit_65417.cif
_audit_creation_date              2013-03-05T15:41:29-0500
_audit_creation_method            fapswitch 2.2
_symmetry_space_group_name_H-M    P1
_symmetry_Int_Tables_number       1
_space_group_crystal_system       triclinic
_cell_length_a                    21.758058
_cell_length_b                    21.747603
_cell_length_c                    22.053712
_cell_angle_alpha                 60.046843
_cell_angle_beta                  118.58314
_cell_angle_gamma                 89.858204
_cell_volume                      7529.63475701

loop_
_atom_site_label
_atom_site_type_symbol
_atom_site_description
_atom_site_fract_x
_atom_site_fract_y
_atom_site_fract_z
_atom_type_partial_charge
O1    O     O_R   0.590490 0.448940 0.499990 -0.613688
O2    O     O_R   0.590420 0.551070 0.499980 -0.613908
C1    C     C_R   0.615825 0.502963 0.493705 0.972040
O3    O     O_R   0.438430 0.510550 0.376780 -0.617937
O4    O     O_R   0.438360 0.612680 0.376770 -0.617154
C2    C     C_R   0.418645 0.581683 0.337219 0.900937
Zn1   Zn    Zn3+2 0.500050 0.431810 0.500010 0.995631
Zn2   Zn    Zn3+2 0.499950 0.568190 0.499990 0.992297
O5    O     O_R   0.409580 0.448930 0.500020 -0.616996
O6    O     O_R   0.409510 0.551060 0.500010 -0.623019
O7    O     O_R   0.561640 0.387320 0.623230 -0.611516
O8    O     O_R   0.561570 0.489450 0.623220 -0.612776
C3    C     C_R   0.382322 0.498780 0.502949 0.926781
C4    C     C_R   0.581336 0.418354 0.662713 0.919131
C5    C     C_3   0.280638 0.730925 0.971102 -0.160857
C6    C     C_3   0.314800 0.761628 0.025677 -0.155865
H1    H     H_    0.370061 0.769298 0.048301 0.150729
H2    H     H_    0.306313 0.714960 0.945851 0.144300
H3    H     H_    0.232909 0.883936 0.945422 0.147459
C7    C     C_1   0.373739 0.626862 0.248149 -0.164028
C8    C     C_1   0.124314 0.874579 0.751821 -0.176566
C9    C     C_3   0.256405 0.678916 0.029070 -0.161052
C10   C     C_3   0.289781 0.710398 0.082084 0.190460
C11   C     C_3   0.181922 0.741030 0.974280 -0.157066
C12   C     C_3   0.206952 0.792251 0.917887 0.192076
C13   C     C_3   0.216098 0.771726 0.028896 -0.151857
C14   C     C_3   0.240318 0.823759 0.970875 -0.155274
C15   C     C_1   0.335778 0.664772 0.173055 -0.060110
C16   C     C_1   0.161431 0.837409 0.826918 -0.062751
H4    H     H_    0.190443 0.787674 0.054172 0.148780
H5    H     H_    0.126660 0.733366 0.951643 0.146023
H6    H     H_    0.263799 0.618750 0.054480 0.145259
C17   C     C_2   0.758821 0.570972 0.450741 0.202035
C18   C     C_2   0.819032 0.508646 0.508528 -0.006024
C19   C     C_2   0.694100 0.570665 0.456137 -0.146718
C20   C     C_2   0.672894 0.509586 0.477163 -0.310700
H7    H     H_    0.664765 0.620299 0.443674 0.191754
H8    H     H_    0.698128 0.462877 0.481837 0.176431
C21   C     C_3   0.716508 0.205705 0.029990 -0.211541
C22   C     C_3   0.689237 0.292483 0.973159 -0.135045
H9    H     H_    0.636640 0.329140 0.949829 0.146464
H10   H     H_    0.687532 0.170077 0.056043 0.163845
H11   H     H_    0.780431 0.329778 0.050134 0.160015
C23   C     C_1   0.626420 0.373250 0.751651 -0.158969
C24   C     C_1   0.875870 0.125458 0.248349 -0.143961
C25   C     C_3   0.737174 0.203643 0.972485 -0.214672
C26   C     C_3   0.710922 0.289703 0.917480 0.142574
C27   C     C_3   0.814021 0.206051 0.025482 0.361968
C28   C     C_3   0.794180 0.207466 0.082404 0.088479
C29   C     C_3   0.788506 0.291903 0.969220 -0.205474
C30   C     C_3   0.767621 0.293583 0.026743 -0.216334
C31   C     C_1   0.664619 0.335363 0.826659 -0.017348
C32   C     C_1   0.839107 0.162564 0.173316 0.021238
H12   H     H_    0.817954 0.326915 0.943428 0.174152
H13   H     H_    0.725076 0.167236 0.949350 0.169610
C33   C     C_2   0.243653 0.434586 0.555474 -0.146795
C34   C     C_2   0.182214 0.493478 0.494715 -0.327900
H14   H     H_    0.246720 0.386668 0.609028 0.169759
H15   H     H_    0.176093 0.537250 0.436680 0.159822
C35   C     C_2   0.306821 0.432977 0.548071 -0.152524
C36   C     C_2   0.320626 0.496800 0.511290 -0.330942
H16   H     H_    0.343420 0.379518 0.575730 0.170000
H17   H     H_    0.289014 0.548911 0.492411 0.160810
O9    O     O_R   0.051050 0.909420 0.500010 -0.617010
O10   O     O_R   0.948920 0.909510 0.500030 -0.611937
C37   C     C_R   0.001743 0.879277 0.503081 0.939776
O11   O     O_R   0.112670 0.938280 0.623210 -0.624348
O12   O     O_R   0.010540 0.938370 0.623230 -0.608538
C38   C     C_R   0.080856 0.918678 0.662753 0.890435
Zn3   Zn    Zn3+2 0.068190 0.999870 0.499990 0.997765
Zn4   Zn    Zn3+2 0.931810 0.999990 0.500010 0.998496
O13   O     O_R   0.051080 0.090340 0.499970 -0.611225
O14   O     O_R   0.948950 0.090430 0.499990 -0.614474
O15   O     O_R   0.989460 0.061480 0.376770 -0.594374
O16   O     O_R   0.887330 0.061570 0.376790 -0.618056
C39   C     C_R   0.000446 0.119109 0.500066 0.758483
C40   C     C_R   0.919182 0.081309 0.337304 0.904366
O17   O     O_R   0.965150 0.625240 0.430430 -0.589555
O18   O     O_R   0.034710 0.555670 0.569560 -0.630903
C41   C     C_R   0.997349 0.619477 0.499343 0.948605
O19   O     O_R   0.874770 0.534770 0.430450 -0.598888
O20   O     O_R   0.944330 0.465210 0.569580 -0.572773
C42   C     C_R   0.881397 0.502504 0.501337 0.905934
Zn5   Zn    Zn3+2 0.953560 0.546450 0.407100 1.027139
Zn6   Zn    Zn3+2 0.046440 0.453550 0.592900 1.053941
O21   O     O_R   0.965290 0.444330 0.430440 -0.645650
O22   O     O_R   0.034850 0.374760 0.569570 -0.564539
O23   O     O_R   0.055670 0.534790 0.430420 -0.622625
O24   O     O_R   0.125230 0.465230 0.569550 -0.619195
C43   C     C_R   0.993959 0.380705 0.500906 0.820213
C44   C     C_R   0.118652 0.498148 0.499006 0.928797
C45   C     C_2   0.990645 0.687881 0.556666 -0.130179
C46   C     C_2   0.988746 0.687039 0.495620 -0.283434
H18   H     H_    0.996243 0.637602 0.610334 0.173474
H19   H     H_    0.974432 0.738737 0.437481 0.164213
C47   C     C_2   0.981561 0.758474 0.549205 -0.142717
C48   C     C_2   0.008282 0.809112 0.511804 -0.332617
H20   H     H_    0.955828 0.767497 0.577105 0.174391
H21   H     H_    0.041473 0.796356 0.492730 0.159736
C49   C     C_2   0.941891 0.315651 0.434978 -0.231482
C50   C     C_2   0.973848 0.315460 0.504534 0.215106
H22   H     H_    0.925469 0.365367 0.374426 0.154226
C51   C     C_2   0.940395 0.245352 0.441659 -0.165147
C52   C     C_2   0.002466 0.186626 0.498253 0.365087
H23   H     H_    0.889569 0.242785 0.398342 0.127049
N1    N     N_R   0.882122 0.159125 0.052839 0.209047
O25   O     O_R   0.891969 0.163614 0.997245 -0.350419
O26   O     O_R   0.933223 0.112746 0.132338 -0.374526
N2    N     N_R   0.983338 0.253922 0.581357 0.223559
O27   O     O_R   0.035426 0.238298 0.654237 -0.365153
O28   O     O_R   0.934476 0.219060 0.578016 -0.369293
O29   O     O_3   0.069780 0.196901 0.539428 -0.610032
C53   C     C_3   0.116776 0.134099 0.623584 0.120122
H24   H     H_    0.139645 0.086225 0.626560 0.152314
H25   H     H_    0.087317 0.116536 0.656200 0.171468
C54   C     C_3   0.181567 0.154365 0.670494 -0.756964
H26   H     H_    0.161511 0.203037 0.668048 0.282734
H27   H     H_    0.218075 0.106077 0.737209 0.204056
H28   H     H_    0.213892 0.168871 0.641484 0.245756
N3    N     N_R   0.757024 0.639232 0.385995 0.214776
O30   O     O_R   0.813315 0.663830 0.403858 -0.389714
O31   O     O_R   0.694579 0.683886 0.314333 -0.371245
N4    N     N_R   0.828446 0.449386 0.586031 0.203595
O32   O     O_R   0.858056 0.379920 0.617839 -0.331764
O33   O     O_R   0.817916 0.465106 0.630760 -0.359373

loop_
_geom_bond_atom_site_label_1
_geom_bond_atom_site_label_2
_geom_bond_distance
_ccdc_geom_bond_type
C39   C52   1.450144 S    
C5    H2    1.110189 S    
C18   N4    1.445104 S    
C22   C26   1.537057 S    
C19   C20   1.336045 D    
O13   C39   1.267007 A    
N4    O32   1.301492 A    
C33   C34   1.336661 D    
Zn1   O7    2.000008 S    
C13   C14   1.548485 S    
C29   H12   1.110177 S    
C9    H6    1.110172 S    
C37   C48   1.437093 S    
C19   H7    1.086526 S    
C11   C13   1.548444 S    
N2    O28   1.302046 A    
O4    C2    1.276632 A    
O7    C4    1.276157 A    
O17   C41   1.267596 A    
N4    O33   1.301953 A    
N1    O25   1.300212 A    
C50   N2    1.450460 S    
C5    C6    1.547881 S    
C45   C47   1.462258 S    
C54   H26   1.109909 S    
C35   H16   1.086434 S    
C10   C13   1.533861 S    
C36   H17   1.087074 S    
O5    C3    1.278543 A    
C49   C50   1.345202 D    
C48   H21   1.087061 S    
C52   O29   1.396887 S    
C5    C9    1.547804 S    
C27   N1    1.457166 S    
C33   H14   1.086515 S    
C6    H1    1.110177 S    
C28   C30   1.538978 S    
O15   C40   1.276777 A    
C47   H20   1.086388 S    
C25   H13   1.110152 S    
Zn3   O15   2.003182 S    
O9    Zn3   2.002841 S    
C21   H10   1.110147 S    
H3    C14   1.110195 S    
C53   C54   1.521421 S    
C23   C31   1.194193 T    
C6    C14   1.548235 S    
C27   C29   1.534959 S    
C24   C32   1.194178 T    
C46   H19   1.087056 S    
O3    Zn1   1.992641 S    
C49   H22   1.086123 S    
O29   C53   1.414728 S    
O19   C42   1.282775 A    
N3    O31   1.301156 A    
C17   C18   1.358793 D    
C26   C29   1.538088 S    
Zn6   O22   2.005677 S    
C12   C16   1.448005 S    
C25   C27   1.534962 S    
C11   C12   1.533595 S    
O3    C2    1.276404 A    
O21   C43   1.280483 A    
C21   C22   1.550946 S    
Zn4   O14   2.002628 S    
Zn6   O24   1.996209 S    
O12   C38   1.277438 A    
C7    C15   1.195361 T    
O10   Zn4   2.001468 S    
C8    C16   1.195239 T    
O20   C42   1.265516 A    
C49   C51   1.462871 S    
C33   C35   1.461874 S    
C8    C38   1.417515 S    
C35   C36   1.336276 D    
O1    C1    1.271651 A    
O9    C37   1.270401 A    
C43   C50   1.460957 S    
O23   C44   1.268218 A    
Zn2   O8    1.992642 S    
C47   C48   1.336449 D    
C45   H18   1.086454 S    
C29   C30   1.554040 S    
C51   H23   1.086913 S    
C10   C15   1.448154 S    
O16   C40   1.276131 A    
C21   C25   1.553980 S    
C22   H9    1.110119 S    
C21   C28   1.539153 S    
O8    C4    1.275824 A    
C13   H4    1.110163 S    
C6    C10   1.533662 S    
O14   C39   1.283408 A    
C9    C11   1.548116 S    
C34   H15   1.087040 S    
O24   C44   1.275783 A    
C18   C42   1.452752 S    
O20   Zn6   2.009592 S    
O18   Zn6   1.998068 S    
O19   Zn5   1.996204 S    
N3    O30   1.301338 A    
C4    C23   1.415801 S    
C53   H24   1.110776 S    
Zn1   O5    2.002572 S    
C25   C26   1.537922 S    
C27   C28   1.523246 S    
C34   C44   1.437376 S    
O1    Zn1   2.003823 S    
O2    Zn2   2.002572 S    
Zn5   O23   2.009597 S    
Zn5   O21   1.998068 S    
O6    C3    1.270137 A    
O4    Zn2   2.000008 S    
C24   C40   1.415687 S    
C26   C31   1.445980 S    
C12   C14   1.533782 S    
C22   C30   1.551016 S    
C2    C7    1.417780 S    
C54   H28   1.110697 S    
O11   Zn3   1.989390 S    
C20   H8    1.087410 S    
O2    C1    1.278346 A    
C11   H5    1.110159 S    
N2    O27   1.301139 A    
Zn4   O16   1.989393 S    
H11   C30   1.110136 S    
N1    O26   1.300282 A    
C1    C20   1.441365 S    
O12   Zn4   2.003180 S    
C28   C32   1.446993 S    
C45   C46   1.336369 D    
C17   C19   1.468628 S    
C54   H27   1.110497 S    
C5    C12   1.533792 S    
O18   C41   1.276122 A    
O17   Zn5   2.005678 S    
C3    C36   1.437463 S    
C17   N3    1.440037 S    
Zn2   O6    2.003822 S    
O10   C37   1.279018 A    
O22   C43   1.271279 A    
C51   C52   1.341510 D    
C9    C10   1.533771 S    
Zn3   O13   2.001254 S    
O11   C38   1.276422 A    
C41   C46   1.436720 S    
C53   H25   1.114519 S    
