data_mof_unit_31037.cif
_audit_creation_date              2012-12-10T18:10:44-0500
_audit_creation_method            fapswitch 2.2
_symmetry_space_group_name_H-M    P1
_symmetry_Int_Tables_number       1
_space_group_crystal_system       triclinic
_cell_length_a                    12.809074
_cell_length_b                    13.262668
_cell_length_c                    15.810998
_cell_angle_alpha                 94.657654
_cell_angle_beta                  100.293575
_cell_angle_gamma                 86.01486
_cell_volume                      2629.90921164

loop_
_atom_site_label
_atom_site_type_symbol
_atom_type_description
_atom_site_fract_x
_atom_site_fract_y
_atom_site_fract_z
_atom_type_partial_charge
C1    C     C_R   0.442615 0.691148 0.489329 0.908229
C2    C     C_R   0.581878 0.215915 0.556268 -0.235745
C3    C     C_R   0.300522 0.831423 0.483754 0.359084
C4    C     C_R   0.499243 0.503175 0.661517 0.867369
C5    C     C_R   0.270832 0.924176 0.524021 0.342913
C6    C     C_R   0.347810 0.994244 0.557173 0.288348
C7    C     C_R   0.453710 0.972919 0.542336 -0.163405
C8    C     C_R   0.486686 0.874729 0.512195 -0.217559
C9    C     C_R   0.530577 0.045519 0.558398 0.137306
C10   C     C_R   0.638734 0.015132 0.580829 -0.091150
C11   C     C_R   0.670327 0.913527 0.564577 0.333302
C12   C     C_3   0.378450 0.544998 0.038169 0.143082
C13   C     C_R   0.596795 0.854133 0.509513 0.455356
C14   C     C_R   0.504947 0.144359 0.537368 -0.139752
C15   C     C_R   0.680620 0.190758 0.607730 0.518624
C16   C     C_R   0.555526 0.314501 0.523051 0.959660
C17   C     C_R   0.410078 0.800798 0.489281 -0.223020
C18   C     C_R   0.075895 0.374844 0.360102 0.365198
C19   C     C_R   0.800178 0.608266 0.620149 0.031809
C20   C     C_R   0.903374 0.628243 0.654789 -0.341975
C21   C     C_R   0.985895 0.599034 0.609799 0.386137
C22   C     C_R   0.964956 0.535520 0.530813 -0.089132
C23   C     C_3   0.496352 0.546906 0.086599 -0.210699
C24   C     C_R   0.855136 0.511619 0.499731 0.065629
C25   C     C_R   0.043775 0.490297 0.481683 -0.114304
C26   C     C_R   0.007497 0.442691 0.399128 -0.220216
C27   C     C_R   0.900559 0.453725 0.362750 0.416204
C28   C     C_R   0.498440 0.507230 0.339237 0.999198
C29   C     C_R   0.829082 0.453374 0.418410 0.331352
C30   C     C_R   0.155903 0.486302 0.508426 0.013527
C31   C     C_R   0.184525 0.384163 0.382781 0.321830
C32   C     C_3   0.373928 0.540897 0.937312 0.488221
C33   C     C_3   0.550285 0.632524 0.962309 0.225462
C34   C     C_3   0.561942 0.448764 0.057884 0.063314
C35   C     C_3   0.548962 0.644875 0.063186 0.779288
C36   C     C_1   0.495401 0.528263 0.252302 -0.008946
C37   C     C_3   0.493601 0.534767 0.919480 -0.260585
C38   C     C_3   0.220876 0.607881 0.086600 0.172371
C39   C     C_3   0.153981 0.705684 0.098297 -0.772110
C40   C     C_3   0.808024 0.876423 0.671764 0.000111
C41   C     C_3   0.926004 0.893282 0.695885 -0.637294
C42   C     C_3   0.205520 0.753304 0.363353 0.085516
C43   C     C_3   0.112450 0.686557 0.332059 -0.690366
C44   C     C_3   0.102434 0.988407 0.479035 0.120095
C45   C     C_3   0.558356 0.440373 0.958948 0.204222
C46   C     C_3   0.993430 0.009609 0.504384 -0.699811
C47   C     C_3   0.049517 0.205318 0.344341 0.205311
C48   C     C_3   0.009009 0.119636 0.279017 -0.684998
C49   C     C_3   0.674358 0.702640 0.893374 0.138533
C50   C     C_3   0.787852 0.688248 0.876533 -0.768004
C51   C     C_3   0.522929 0.826250 0.061700 0.070669
C52   C     C_3   0.492478 0.913739 0.122829 -0.689571
C53   C     C_3   0.672444 0.697004 0.192233 0.208335
C54   C     C_3   0.767912 0.762929 0.204732 -0.730584
C55   C     C_3   0.714176 0.339017 0.947116 0.144243
C56   C     C_1   0.495915 0.543538 0.178795 0.156800
C57   C     C_3   0.829592 0.345065 0.937599 -0.598771
C58   C     C_1   0.495826 0.525069 0.826804 0.212369
C59   C     C_1   0.497346 0.514405 0.751130 -0.004927
C60   C     C_R   0.712627 0.088839 0.610880 -0.207701
H1    H     H_    0.346879 0.474577 0.054541 0.187772
H2    H     H_    0.233185 0.569786 0.147545 0.150118
H3    H     H_    0.176886 0.558953 0.033534 0.194818
H4    H     H_    0.146226 0.750204 0.040900 0.278443
H5    H     H_    0.073322 0.688015 0.107165 0.195876
H6    H     H_    0.192082 0.752269 0.155601 0.244497
H7    H     H_    0.307652 0.268800 0.907254 0.412363
H8    H     H_    0.850984 0.402443 0.693034 0.365635
H9    H     H_    0.791650 0.801435 0.690071 0.141482
H10   H     H_    0.765675 0.932678 0.711956 0.148221
H11   H     H_    0.941038 0.974300 0.693960 0.241870
H12   H     H_    0.645817 0.459984 0.087566 0.241984
H13   H     H_    0.955968 0.870394 0.762255 0.226479
H14   H     H_    0.969208 0.848777 0.649255 0.310543
H15   H     H_    0.276967 0.716367 0.340217 0.157776
H16   H     H_    0.186561 0.827691 0.334535 0.102037
H17   H     H_    0.095114 0.679420 0.260782 0.205187
H18   H     H_    0.132121 0.609866 0.355582 0.256288
H19   H     H_    0.040484 0.719949 0.356277 0.260679
H20   H     H_    0.399379 0.202583 0.723888 0.405842
H21   H     H_    0.092513 0.940879 0.417349 0.124547
H22   H     H_    0.134198 0.061904 0.470069 0.139050
H23   H     H_    0.794440 0.068870 0.636356 0.199515
H24   H     H_    0.000387 0.056704 0.566286 0.283030
H25   H     H_    0.939690 0.050872 0.453911 0.208594
H26   H     H_    0.958314 0.937193 0.511424 0.272643
H27   H     H_    0.133989 0.707834 0.891273 0.378061
H28   H     H_    0.753030 0.908003 0.400213 0.369862
H29   H     H_    0.196666 0.422390 0.200721 0.355568
H30   H     H_    0.880050 0.541173 0.147541 0.388556
H31   H     H_    0.005371 0.210146 0.399134 0.165381
H32   H     H_    0.134367 0.186179 0.370779 0.126646
H33   H     H_    0.059704 0.107576 0.228623 0.266233
H34   H     H_    0.426651 0.163423 0.501846 0.213401
H35   H     H_    0.010763 0.048287 0.311103 0.152054
H36   H     H_    0.926157 0.138036 0.247357 0.296074
H37   H     H_    0.130457 0.508852 0.727907 0.387015
H38   H     H_    0.628248 0.258159 0.359120 0.369442
H39   H     H_    0.663053 0.779836 0.924613 0.116502
H40   H     H_    0.619460 0.695537 0.830385 0.122406
H41   H     H_    0.799976 0.613088 0.842107 0.261585
H42   H     H_    0.803683 0.748385 0.836393 0.174282
H43   H     H_    0.844658 0.692863 0.938470 0.263306
H44   H     H_    0.483848 0.844805 0.996039 0.189900
H45   H     H_    0.195307 0.513839 0.568789 0.249337
H46   H     H_    0.609909 0.823521 0.063148 0.143231
H47   H     H_    0.533411 0.903766 0.189833 0.266875
H48   H     H_    0.515596 0.986133 0.102701 0.227223
H49   H     H_    0.405225 0.918210 0.121158 0.281407
H50   H     H_    0.689469 0.640328 0.240417 0.223998
H51   H     H_    0.603596 0.743129 0.209620 0.213608
H52   H     H_    0.743601 0.838974 0.181104 0.220221
H53   H     H_    0.803063 0.772572 0.274141 0.258887
H54   H     H_    0.829995 0.727645 0.169285 0.268047
H55   H     H_    0.675062 0.285012 0.895597 0.198230
H56   H     H_    0.737353 0.634201 0.655365 0.130943
H57   H     H_    0.714383 0.310337 0.011163 0.191186
H58   H     H_    0.871259 0.394102 0.991711 0.241233
H59   H     H_    0.869857 0.268169 0.938526 0.223148
H60   H     H_    0.834165 0.377711 0.875978 0.284068
H61   H     H_    0.619726 0.229970 0.191694 0.387923
H62   H     H_    0.918213 0.668705 0.717555 0.185334
H63   H     H_    0.503791 0.696676 0.930631 0.091691
H64   H     H_    0.517975 0.372424 0.927517 0.202770
N1    N     N_R   0.222200 0.444690 0.455710 -0.196480
N2    N     N_R   0.776960 0.554780 0.543830 -0.076577
O1    O     O_R   0.366740 0.627160 0.478850 -0.579824
O2    O     O_2   0.185673 0.445082 0.890782 -0.262182
O3    O     O_2   0.316544 0.406176 0.796471 -0.288228
O4    O     O_3   0.344660 0.325346 0.942212 -0.537358
O5    O     O_2   0.669495 0.336600 0.732252 -0.354676
O6    O     O_2   0.827175 0.220239 0.749979 -0.335120
O7    O     O_3   0.815881 0.359660 0.643206 -0.486451
O8    O     O_3   0.776278 0.881274 0.581499 -0.597660
O9    O     O_3   0.221404 0.764825 0.454242 -0.515683
O10   O     O_2   0.265056 0.185075 0.576171 -0.349655
O11   O     O_2   0.234315 0.067864 0.679608 -0.193241
O12   O     O_R   0.544830 0.662520 0.507140 -0.611013
O13   O     O_3   0.421669 0.136021 0.697597 -0.535223
O14   O     O_3   0.169758 0.937279 0.544262 -0.496470
O15   O     O_2   0.321881 0.748499 0.946290 -0.296298
O16   O     O_2   0.323088 0.667785 0.803753 -0.217132
O17   O     O_3   0.166341 0.638937 0.881091 -0.465874
O18   O     O_2   0.724337 0.720696 0.431829 -0.309524
O19   O     O_2   0.544919 0.757666 0.352028 -0.371196
O20   O     O_3   0.682272 0.894710 0.365603 -0.573549
O21   O     O_2   0.372305 0.292168 0.342899 -0.238410
O22   O     O_2   0.212428 0.240904 0.250679 -0.271904
O23   O     O_R   0.410920 0.482310 0.608710 -0.585639
O24   O     O_3   0.268868 0.417651 0.235856 -0.537122
O25   O     O_2   0.877194 0.355601 0.200295 -0.191615
O26   O     O_2   0.734786 0.470725 0.237299 -0.307324
O27   O     O_3   0.906833 0.547335 0.210415 -0.610675
O28   O     O_3   0.036373 0.297038 0.302498 -0.511316
O29   O     O_2   0.165197 0.687961 0.596364 -0.217304
O30   O     O_2   0.095948 0.729123 0.728693 -0.274282
O31   O     O_3   0.182420 0.550012 0.708853 -0.450643
O32   O     O_2   0.825100 0.263906 0.338484 -0.294460
O33   O     O_2   0.804018 0.277089 0.486933 -0.294992
O34   O     O_R   0.589010 0.517670 0.637000 -0.635802
O35   O     O_3   0.645691 0.330325 0.366279 -0.498766
O36   O     O_3   0.657367 0.628340 0.947871 -0.507027
O37   O     O_3   0.485932 0.734494 0.083606 -0.579119
O38   O     O_3   0.657069 0.648246 0.107666 -0.631898
O39   O     O_3   0.663296 0.436609 0.940099 -0.549717
O40   O     O_2   0.429964 0.334211 0.128898 -0.206690
O41   O     O_2   0.534318 0.243324 0.028982 -0.317690
O42   O     O_3   0.631049 0.300313 0.180101 -0.449378
O43   O     O_R   0.455170 0.337480 0.492860 -0.583690
O44   O     O_R   0.633260 0.372840 0.521150 -0.494665
O45   O     O_R   0.410990 0.482330 0.363000 -0.550770
O46   O     O_R   0.589080 0.517690 0.391290 -0.558692
O47   O     O_3   0.320066 0.631489 0.068846 -0.514446
S1    S     S_3+6 0.302369 0.428745 0.888501 0.027783
S2    S     S_3+6 0.534342 0.328817 0.097572 0.040561
S3    S     S_3+6 0.749313 0.277801 0.685973 0.026365
S4    S     S_3+6 0.313626 0.098289 0.628231 0.056687
S5    S     S_3+6 0.297626 0.652825 0.890783 0.117774
S6    S     S_3+6 0.637006 0.801520 0.412973 0.012396
S7    S     S_3+6 0.262513 0.329220 0.304521 0.094265
S8    S     S_3+6 0.852916 0.453301 0.249791 0.077085
S9    S     S_3+6 0.109406 0.646176 0.660585 0.060074
S10   S     S_3+6 0.776574 0.329302 0.404686 0.074182
Zn1   Zn    Zn3+2 0.381090 0.476390 0.481110 1.083565
Zn2   Zn    Zn3+2 0.618910 0.523610 0.518890 1.083399

loop_
_geom_bond_atom_site_label_1
_geom_bond_atom_site_label_2
_ccdc_geom_bond_type
C53   H50   S    
O42   S2    S    
C8    C13   A    
C48   H35   S    
C27   C29   A    
C47   H32   S    
C19   C20   A    
C18   C26   A    
O29   S9    D    
C7    C8    A    
C4    O34   A    
C53   C54   S    
O4    S1    S    
C43   H18   S    
C4    O23   A    
C12   C23   S    
C42   H15   S    
C40   H10   S    
C15   S3    S    
C36   C56   T    
C5    C6    A    
C52   H49   S    
O41   S2    D    
H8    O7    S    
C44   H22   S    
C38   C39   S    
C60   H23   S    
C43   H19   S    
C54   H53   S    
O5    S3    D    
O44   Zn2   S    
O6    S3    D    
O17   S5    S    
C24   C29   A    
C34   S2    S    
C41   H14   S    
O21   S7    D    
C28   O46   A    
C52   H47   S    
C22   C25   A    
O23   Zn1   S    
C51   O37   S    
C51   H44   S    
C2    C16   S    
C9    C10   A    
C20   H62   S    
C37   C58   S    
C18   O28   S    
C57   H59   S    
C46   H25   S    
C53   H51   S    
C30   N1    A    
C50   H43   S    
C44   O14   S    
C21   C22   A    
C12   C32   S    
N1    Zn1   S    
C24   N2    A    
O1    Zn1   S    
C39   H5    S    
C32   S5    S    
C1    C17   S    
O34   Zn2   S    
C16   O43   A    
C44   C46   S    
O25   S8    D    
C45   H64   S    
C21   S9    S    
C39   H4    S    
C48   H33   S    
O15   S5    D    
C40   O8    S    
O45   Zn1   S    
C23   C56   S    
O12   Zn2   S    
C44   H21   S    
C40   H9    S    
C11   O8    S    
O30   S9    D    
C38   O47   S    
C25   C26   A    
C13   S6    S    
C32   S1    S    
O10   S4    D    
C33   C37   S    
C51   C52   S    
C38   H2    S    
C42   O9    S    
H37   O31   S    
O35   S10   S    
C10   C60   A    
C9    C14   A    
C27   S8    S    
O43   Zn1   S    
O13   S4    S    
C49   H39   S    
C28   O45   A    
C47   C48   S    
O18   S6    D    
O46   Zn2   S    
C23   C34   S    
O19   S6    D    
O40   S2    D    
C54   H52   S    
C34   C45   S    
C32   C37   S    
H30   O27   S    
C2    C15   A    
C52   H48   S    
C49   O36   S    
C57   H60   S    
C46   H24   S    
C40   C41   S    
O27   S8    S    
C50   H42   S    
C23   C35   S    
C55   C57   S    
C6    S4    S    
C26   C27   A    
C39   H6    S    
C22   C24   A    
O3    S1    D    
H7    O4    S    
C42   C43   S    
C55   O39   S    
C37   C45   S    
C34   H12   S    
H38   O35   S    
C5    O14   S    
O24   S7    S    
C38   H3    S    
C55   H57   S    
C25   C30   A    
C7    C9    A    
H61   O42   S    
H29   O24   S    
H28   O20   S    
C48   H36   S    
C49   H40   S    
O31   S9    S    
C47   H31   S    
N2    Zn2   S    
C1    O1    A    
C3    C5    A    
C53   O38   S    
C29   S10   S    
C6    C7    A    
C47   O28   S    
C43   H17   S    
H20   O13   S    
C19   N2    A    
C42   H16   S    
C35   O38   S    
C41   H11   S    
C31   S7    S    
O33   S10   D    
C33   O36   S    
C58   C59   T    
C30   H45   S    
C8    C17   A    
C12   H1    S    
C11   C13   A    
O16   S5    D    
C55   H55   S    
C19   H56   S    
C51   H46   S    
C54   H54   S    
C4    C59   S    
C33   C35   S    
O20   S6    S    
C3    C17   A    
C3    O9    S    
C2    C14   A    
O7    S3    S    
C35   O37   S    
C10   C11   A    
C41   H13   S    
C16   O44   A    
O11   S4    D    
C20   C21   A    
C28   C36   S    
C50   H41   S    
O22   S7    D    
C49   C50   S    
O2    S1    D    
C33   H63   S    
C31   N1    A    
C57   H58   S    
C18   C31   A    
H27   O17   S    
O26   S8    D    
C45   O39   S    
C14   H34   S    
C15   C60   A    
C1    O12   A    
O32   S10   D    
C12   O47   S    
C46   H26   S    
