data_mof_unit_34081.cif
_audit_creation_date              2013-03-05T15:46:23-0500
_audit_creation_method            fapswitch 2.2
_symmetry_space_group_name_H-M    P1
_symmetry_Int_Tables_number       1
_space_group_crystal_system       triclinic
_cell_length_a                    10.912115
_cell_length_b                    10.958288
_cell_length_c                    18.821834
_cell_angle_alpha                 90.393628
_cell_angle_beta                  90.561739
_cell_angle_gamma                 60.097191
_cell_volume                      1950.95254009

loop_
_atom_site_label
_atom_site_type_symbol
_atom_site_description
_atom_site_fract_x
_atom_site_fract_y
_atom_site_fract_z
_atom_type_partial_charge
O1    O     O_R   0.748800 0.497470 0.428000 -0.538797
O2    O     O_R   0.476420 0.724060 0.429470 -0.478494
C1    C     C_R   0.359102 0.771747 0.397166 0.551093
O3    O     O_R   0.264580 0.744340 0.416750 -0.522657
O4    O     O_R   0.309380 0.472470 0.418200 -0.505463
C2    C     C_R   0.382184 0.350678 0.389432 0.555203
O5    O     O_R   0.501710 0.260430 0.414300 -0.442355
O6    O     O_R   0.728090 0.305600 0.428960 -0.494694
C3    C     C_R   0.775642 0.380596 0.402527 0.534455
O7    O     O_R   0.738760 0.495930 0.588610 -0.531908
O8    O     O_R   0.467110 0.722640 0.578360 -0.506856
C4    C     C_R   0.344683 0.768846 0.604857 0.548255
O9    O     O_R   0.254530 0.742800 0.577360 -0.530102
O10   O     O_R   0.300070 0.471040 0.567100 -0.512279
C5    C     C_R   0.368381 0.350378 0.595171 0.546090
O11   O     O_R   0.491670 0.258900 0.574910 -0.516888
O12   O     O_R   0.718780 0.304180 0.577850 -0.504106
C6    C     C_R   0.757121 0.380280 0.612342 0.544408
Cr1   Cr    Cr6+3 0.601770 0.606860 0.505860 1.021752
Cr2   Cr    Cr6+3 0.291380 0.601660 0.495070 1.012280
Cr3   Cr    Cr6+3 0.606880 0.291510 0.499120 1.052538
O13   O     O_3   0.500010 0.500010 0.500020 -0.259233
C7    C     C_R   0.812540 0.885402 0.089039 -0.118538
C8    C     C_R   0.785386 0.023894 0.086534 -0.114713
C9    C     C_R   0.677497 0.128293 0.127701 -0.076469
C10   C     C_R   0.594614 0.094668 0.171279 0.104780
C11   C     C_R   0.353417 0.318322 0.167468 -0.043990
C12   C     C_R   0.453863 0.205450 0.280285 0.193959
C13   C     C_R   0.466610 0.209397 0.206732 -0.040412
C14   C     C_R   0.089486 0.694212 0.295292 -0.077229
C15   C     C_R   0.991782 0.808521 0.335181 -0.041391
C16   C     C_R   0.622663 0.954738 0.173202 -0.007183
C17   C     C_R   0.730756 0.851167 0.132048 -0.104960
C18   C     C_R   0.241540 0.430048 0.203366 -0.162622
C19   C     C_R   0.237844 0.435210 0.277220 -0.065249
C20   C     C_R   0.920578 0.788380 0.391199 -0.047080
C21   C     C_R   0.944823 0.653621 0.406344 -0.111603
C22   C     C_R   0.042729 0.538488 0.366561 -0.073888
C23   C     C_R   0.118360 0.557818 0.311881 0.049765
C24   C     C_R   0.348873 0.325447 0.316461 -0.009528
H1    H     H_    0.748364 0.745298 0.131709 0.102074
H2    H     H_    0.974948 0.911818 0.323658 0.119078
H3    H     H_    0.895131 0.805165 0.056586 0.106461
H4    H     H_    0.845773 0.050498 0.051175 0.152682
H5    H     H_    0.654943 0.236109 0.123707 0.101092
H6    H     H_    0.147607 0.711345 0.253931 0.112563
H7    H     H_    0.558013 0.926928 0.204737 0.141862
H8    H     H_    0.153096 0.511636 0.173788 0.145272
H9    H     H_    0.847140 0.876996 0.423098 0.150089
H10   H     H_    0.889862 0.638118 0.449782 0.130069
H11   H     H_    0.063970 0.433774 0.380145 0.109805
C25   C     C_R   0.858380 0.229341 0.296570 -0.133980
H12   H     H_    0.863316 0.143037 0.326047 0.155588
C26   C     C_R   0.880449 0.217123 0.224036 -0.146706
H13   H     H_    0.911250 0.116839 0.198948 0.149430
C27   C     C_R   0.867724 0.332215 0.185319 0.015321
C28   C     C_R   0.834574 0.457747 0.219672 -0.142356
H14   H     H_    0.827543 0.546354 0.191518 0.130848
C29   C     C_R   0.814700 0.468992 0.291579 -0.144043
H15   H     H_    0.783882 0.570096 0.315745 0.164507
C30   C     C_R   0.826171 0.354953 0.330568 0.013533
C31   C     C_R   0.443601 0.704861 0.275734 -0.117631
H16   H     H_    0.512833 0.598195 0.293919 0.125137
C32   C     C_R   0.434983 0.733595 0.203460 -0.168290
H17   H     H_    0.496913 0.649912 0.166114 0.107622
C33   C     C_R   0.340328 0.869129 0.179945 0.023595
C34   C     C_R   0.258284 0.976817 0.228534 -0.118735
H18   H     H_    0.184871 0.082228 0.210050 0.126413
C35   C     C_R   0.265026 0.947485 0.300580 -0.118879
H19   H     H_    0.197571 0.029456 0.337523 0.112875
C36   C     C_R   0.356877 0.811120 0.323946 0.063115
C37   C     C_R   0.390458 0.197655 0.693858 -0.134544
H20   H     H_    0.461819 0.105136 0.663471 0.128411
C38   C     C_R   0.380552 0.185078 0.765865 -0.122297
H21   H     H_    0.441599 0.081267 0.788840 0.136700
C39   C     C_R   0.296729 0.304560 0.807810 0.036212
C40   C     C_R   0.212980 0.435437 0.775890 -0.137902
H22   H     H_    0.144142 0.527389 0.807237 0.119292
C41   C     C_R   0.224497 0.448618 0.703215 -0.128152
H23   H     H_    0.167556 0.552594 0.679864 0.132404
C42   C     C_R   0.319216 0.330450 0.662890 0.030681
C43   C     C_R   0.744066 0.474620 0.731880 -0.122278
H24   H     H_    0.703540 0.578550 0.709744 0.132402
C44   C     C_R   0.754695 0.461353 0.804698 -0.129681
H25   H     H_    0.726955 0.554341 0.836461 0.124564
C45   C     C_R   0.814665 0.328026 0.835603 0.030145
C46   C     C_R   0.847686 0.209777 0.792884 -0.128156
H26   H     H_    0.894603 0.105520 0.815753 0.127981
C47   C     C_R   0.831529 0.224236 0.719204 -0.133391
H27   H     H_    0.859063 0.132523 0.686499 0.118158
C48   C     C_R   0.785296 0.356273 0.688306 0.035663
C49   C     C_R   0.202021 0.829282 0.713309 -0.136551
H28   H     H_    0.117037 0.826029 0.684731 0.124133
C50   C     C_R   0.194110 0.839711 0.786433 -0.139942
H29   H     H_    0.100404 0.851361 0.812060 0.121001
C51   C     C_R   0.302679 0.842186 0.825336 0.036502
C52   C     C_R   0.421463 0.829622 0.790236 -0.144713
H30   H     H_    0.506138 0.832717 0.819215 0.115954
C53   C     C_R   0.428836 0.820319 0.716880 -0.147658
H31   H     H_    0.520815 0.811694 0.690777 0.114486
C54   C     C_R   0.320552 0.817253 0.678064 0.036944
O14   O     O_R   0.186690 0.923650 0.086970 -0.522024
O15   O     O_R   0.957250 0.194250 0.084630 -0.528889
C55   C     C_R   0.913977 0.314055 0.112652 0.537985
O16   O     O_R   0.934970 0.407490 0.085330 -0.527004
O17   O     O_R   0.203780 0.365190 0.067090 -0.503835
C56   C     C_R   0.328371 0.292332 0.093617 0.544811
O18   O     O_R   0.417600 0.174890 0.067840 -0.509104
O19   O     O_R   0.375320 0.946260 0.070860 -0.502728
C57   C     C_R   0.307945 0.899515 0.105463 0.538400
O20   O     O_R   0.160600 0.919630 0.926660 -0.529605
O21   O     O_R   0.933060 0.190520 0.936020 -0.514576
C58   C     C_R   0.879046 0.310134 0.905725 0.545444
O22   O     O_R   0.908880 0.403460 0.925020 -0.520854
O23   O     O_R   0.179600 0.361450 0.918490 -0.501424
C59   C     C_R   0.291696 0.283551 0.883360 0.551684
O24   O     O_R   0.391510 0.170860 0.907530 -0.527904
O25   O     O_R   0.351130 0.942530 0.922260 -0.510431
C60   C     C_R   0.275978 0.893231 0.898003 0.547049
Cr4   Cr    Cr6+3 0.062440 0.063090 0.008210 0.986159
Cr5   Cr    Cr6+3 0.062880 0.375170 0.998920 1.007232
Cr6   Cr    Cr6+3 0.374700 0.061720 0.992470 1.017563
O26   O     O_3   0.166667 0.166667 0.999870 -0.244860
N1    N     N_R   0.551261 0.080879 0.318514 0.079061
O27   O     O_R   0.685944 0.036765 0.316537 -0.394335
O28   O     O_R   0.504379 0.020239 0.360872 -0.358483

loop_
_geom_bond_atom_site_label_1
_geom_bond_atom_site_label_2
_geom_bond_distance
_ccdc_geom_bond_type
C46   H26   1.082537 S    
C10   C16   1.406728 A    
O11   Cr3   2.057484 S    
O23   Cr5   1.944294 S    
C15   H2    1.075818 S    
C11   C13   1.421540 A    
C51   C60   1.450260 S    
C19   C23   1.479444 S    
O15   Cr4   1.952248 S    
C52   H30   1.083282 S    
C5    C42   1.447127 S    
O4    Cr2   1.958646 S    
C40   H22   1.083299 S    
C27   C28   1.391929 A    
O4    C2    1.283321 A    
O8    Cr1   1.946200 S    
C21   C22   1.397360 A    
C38   C39   1.407164 A    
C45   C58   1.456695 S    
C3    C30   1.439558 S    
C6    C48   1.457361 S    
C20   C21   1.395255 A    
C44   C45   1.397188 A    
C25   C30   1.392008 A    
C14   C15   1.393066 A    
O19   Cr6   1.948009 S    
C28   C29   1.367765 A    
O17   C56   1.282580 A    
C12   C24   1.416412 A    
C5    O11   1.272950 A    
C7    H3    1.082479 S    
C59   O24   1.255057 A    
O20   C60   1.267976 A    
C18   C19   1.390988 A    
O25   Cr6   1.955241 S    
C35   C36   1.392132 A    
O25   C60   1.266413 A    
O21   C58   1.274371 A    
C31   C32   1.390079 A    
O22   Cr5   2.072542 S    
O6    C3    1.275941 A    
C7    C17   1.394513 A    
C31   C36   1.406591 A    
C7    C8    1.394829 A    
C47   C48   1.401507 A    
C37   C42   1.391592 A    
Cr4   O26   1.974716 S    
C33   C34   1.406511 A    
C29   H15   1.082617 S    
Cr3   O13   1.980855 S    
C50   H29   1.083148 S    
C55   O16   1.268337 A    
C52   C53   1.383925 A    
C25   C26   1.382592 A    
O6    Cr3   1.938494 S    
C39   C40   1.395456 A    
C40   C41   1.389930 A    
C11   C18   1.400154 A    
C26   C27   1.406062 A    
C29   C30   1.403817 A    
O1    Cr1   2.064713 S    
C38   H21   1.081852 S    
C34   H18   1.083741 S    
O10   Cr2   1.945417 S    
Cr1   O13   1.976941 S    
O1    C3    1.255484 A    
C8    C9    1.399302 A    
C27   C55   1.440376 S    
C37   C38   1.373979 A    
O21   Cr4   1.952475 S    
C45   C46   1.407569 A    
C22   H11   1.083291 S    
C9    C10   1.406221 A    
O5    Cr3   2.080400 S    
O12   Cr3   1.958794 S    
C43   C48   1.402789 A    
O20   Cr4   2.072405 S    
C34   C35   1.388552 A    
C32   C33   1.392534 A    
C1    C36   1.443299 S    
O24   Cr6   2.066573 S    
C31   H16   1.083575 S    
C53   H31   1.082664 S    
C11   C56   1.467189 S    
O7    Cr1   2.075248 S    
C56   O18   1.261346 A    
C51   C52   1.404673 A    
C49   C50   1.380262 A    
O12   C6    1.275561 A    
O16   Cr5   2.064576 S    
C44   H25   1.083986 S    
C50   C51   1.398288 A    
C49   C54   1.405707 A    
C53   C54   1.397641 A    
Cr2   O13   1.975135 S    
C43   C44   1.376895 A    
C46   C47   1.396348 A    
C8    H4    1.079325 S    
C16   H7    1.080701 S    
C2    C24   1.476522 S    
O14   C57   1.259032 A    
C18   H8    1.084750 S    
C1    O3    1.267972 A    
C9    H5    1.083074 S    
O14   Cr4   2.072854 S    
C25   H12   1.077474 S    
N1    O28   1.301198 A    
C58   O22   1.268196 A    
C26   H13   1.082271 S    
C12   C13   1.395847 A    
O9    Cr2   2.076526 S    
O2    Cr1   1.955236 S    
C15   C20   1.397977 A    
C14   H6    1.083495 S    
O18   Cr6   2.076343 S    
C37   H20   1.083969 S    
O8    C4    1.274742 A    
C12   N1    1.436216 S    
C2    O5    1.267506 A    
C41   C42   1.410171 A    
C17   H1    1.077290 S    
C16   C17   1.396589 A    
C19   C24   1.414856 A    
Cr6   O26   1.973894 S    
C4    C54   1.451584 S    
O19   C57   1.271437 A    
C32   H17   1.083640 S    
C21   H10   1.081716 S    
C28   H14   1.077728 S    
C22   C23   1.406811 A    
O7    C6    1.264373 A    
O17   Cr5   1.953925 S    
C49   H28   1.083282 S    
C39   C59   1.448004 S    
C14   C23   1.402016 A    
O2    C1    1.266386 A    
C35   H19   1.083679 S    
Cr5   O26   1.980797 S    
C41   H23   1.083107 S    
O3    Cr2   2.066521 S    
C4    O9    1.258995 A    
C33   C57   1.442371 S    
C10   C13   1.494243 S    
C43   H24   1.080270 S    
O15   C55   1.265703 A    
O10   C5    1.265814 A    
C47   H27   1.083195 S    
C20   H9    1.082207 S    
O23   C59   1.276366 A    
N1    O27   1.299034 A    
