data_mof_unit_48949.cif
_audit_creation_date              2012-12-10T17:43:53-0500
_audit_creation_method            fapswitch 2.2
_symmetry_space_group_name_H-M    P1
_symmetry_Int_Tables_number       1
_space_group_crystal_system       triclinic
_cell_length_a                    15.877841
_cell_length_b                    14.964055
_cell_length_c                    13.839653
_cell_angle_alpha                 89.765978
_cell_angle_beta                  90.006829
_cell_angle_gamma                 87.970278
_cell_volume                      3286.16783928

loop_
_atom_site_label
_atom_site_type_symbol
_atom_type_description
_atom_site_fract_x
_atom_site_fract_y
_atom_site_fract_z
_atom_type_partial_charge
C1    C     C_R   0.501540 0.328971 0.500556 0.803499
C2    C     C_R   0.499194 0.671100 0.500092 0.809945
C3    C     C_R   0.501797 0.768273 0.502405 -0.197663
C4    C     C_R   0.504394 0.231733 0.504222 -0.168133
C5    C     C_R   0.580575 0.809259 0.504240 0.373150
C6    C     C_R   0.428259 0.188031 0.519223 0.319072
C7    C     C_R   0.583377 0.902346 0.519862 0.014591
C8    C     C_R   0.430806 0.096646 0.542778 -0.048880
C9    C     C_R   0.507147 0.952639 0.534122 -0.141783
C10   C     C_R   0.507963 0.046978 0.535974 -0.116248
C11   C     C_R   0.429483 0.909300 0.543097 0.054919
C12   C     C_R   0.585253 0.091268 0.529531 0.082778
C13   C     C_R   0.660909 0.946052 0.525069 0.437377
C14   C     C_R   0.357960 0.052928 0.574300 0.437370
C15   C     C_R   0.661178 0.039142 0.541424 0.040966
C16   C     C_R   0.358658 0.959359 0.578966 0.106569
C17   C     C_R   0.546888 0.436523 0.795951 0.279279
C18   C     C_R   0.452557 0.562693 0.203611 0.275356
C19   C     C_R   0.452967 0.563260 0.795461 0.283478
C20   C     C_R   0.547074 0.436937 0.204141 0.279037
C21   C     C_R   0.467781 0.574502 0.896680 -0.025616
C22   C     C_R   0.532001 0.425463 0.102939 -0.025965
C23   C     C_R   0.340100 0.500485 0.499985 0.812123
C24   C     C_R   0.659894 0.499595 0.500027 0.804210
C25   C     C_R   0.499947 0.499938 0.948540 -0.055421
C26   C     C_R   0.499862 0.499914 0.051027 -0.053729
C27   C     C_R   0.532073 0.425339 0.897298 -0.026374
C28   C     C_R   0.467494 0.574258 0.102328 -0.024255
C29   C     C_R   0.451601 0.656027 0.947602 0.172782
C30   C     C_R   0.547819 0.343788 0.052144 0.169999
C31   C     C_R   0.451216 0.655849 0.050883 0.170009
C32   C     C_R   0.547759 0.343710 0.948865 0.173729
C33   C     C_3   0.973323 0.461761 0.580737 0.320434
C34   C     C_3   0.026613 0.538759 0.419596 0.320114
C35   C     C_3   0.030725 0.415008 0.504880 -0.059720
C36   C     C_3   0.969206 0.585513 0.495458 -0.060206
C37   C     C_1   0.250749 0.500634 0.500011 -0.167453
C38   C     C_1   0.749227 0.499601 0.500058 -0.161045
C39   C     C_3   0.026405 0.545574 0.576109 0.320324
C40   C     C_3   0.973541 0.454945 0.424229 0.318674
C41   C     C_3   0.084093 0.499711 0.500195 -0.021405
C42   C     C_3   0.915852 0.500800 0.500133 -0.022270
C43   C     C_1   0.175432 0.500466 0.500087 0.109633
C44   C     C_1   0.824531 0.499916 0.500108 0.112700
C45   C     C_R   0.426105 0.818021 0.517640 0.084644
C46   C     C_R   0.583290 0.185040 0.511008 0.090055
Cu1   Cu    Cu3+1 0.500010 0.499990 0.597420 0.954234
Cu2   Cu    Cu3+1 0.499990 0.500010 0.402580 0.938096
N1    N     N_R   0.499960 0.499930 0.743810 -0.178570
N2    N     N_R   0.500040 0.500070 0.256190 -0.176946
O1    O     O_R   0.500020 0.370250 0.582280 -0.571589
O2    O     O_R   0.499980 0.629750 0.417720 -0.588249
O3    O     O_R   0.500010 0.370270 0.417740 -0.586028
O4    O     O_R   0.499990 0.629730 0.582260 -0.568766
O5    O     O_R   0.379080 0.499980 0.582260 -0.573577
O6    O     O_R   0.620920 0.500020 0.417740 -0.583307
O7    O     O_R   0.379070 0.500000 0.417710 -0.579288
O8    O     O_R   0.620930 0.500000 0.582290 -0.570096
C47   C     C_3   0.064908 0.318948 0.510216 -0.728433
H1    H     H_    0.011743 0.272826 0.512792 0.252294
H2    H     H_    0.104174 0.303855 0.445593 0.237200
H3    H     H_    0.104018 0.309574 0.576184 0.240139
C48   C     C_3   0.934944 0.681556 0.490188 -0.723903
H4    H     H_    0.988066 0.727734 0.487676 0.250222
H5    H     H_    0.895846 0.690940 0.424214 0.238094
H6    H     H_    0.895639 0.696584 0.554799 0.246301
C49   C     C_3   0.445325 0.744751 0.893670 -0.856894
H7    H     H_    0.457722 0.738301 0.815265 0.241427
H8    H     H_    0.382023 0.777014 0.904558 0.236266
H9    H     H_    0.494207 0.790001 0.919477 0.238331
C50   C     C_3   0.554186 0.255200 0.106270 -0.853228
H10   H     H_    0.541981 0.261842 0.184670 0.241238
H11   H     H_    0.505208 0.209899 0.080834 0.237039
H12   H     H_    0.617447 0.222900 0.095203 0.237997
C51   C     C_3   0.443879 0.744316 0.104358 -0.853355
H13   H     H_    0.380566 0.776250 0.092260 0.238271
H14   H     H_    0.455261 0.737614 0.182995 0.240576
H15   H     H_    0.492840 0.789945 0.079187 0.237404
C52   C     C_3   0.553662 0.255025 0.895616 -0.861655
H16   H     H_    0.616688 0.222262 0.907173 0.238391
H17   H     H_    0.504315 0.210156 0.921388 0.236430
H18   H     H_    0.541673 0.261617 0.817098 0.239180
O9    O     O_3   0.944019 0.422596 0.665631 -0.705897
H19   H     H_    0.995288 0.405378 0.703128 0.340999
O10   O     O_3   0.055903 0.577919 0.334694 -0.705351
H20   H     H_    0.004629 0.595120 0.297200 0.340632
O11   O     O_3   0.944466 0.408590 0.344058 -0.706623
H21   H     H_    0.995834 0.388215 0.308631 0.340702
O12   O     O_3   0.055483 0.591924 0.656280 -0.706367
H22   H     H_    0.004115 0.612333 0.691686 0.341746
C53   C     C_3   0.343429 0.774996 0.494002 -0.830795
H23   H     H_    0.349888 0.735817 0.426888 0.218580
H24   H     H_    0.324871 0.729368 0.553021 0.222918
H25   H     H_    0.292106 0.824935 0.478288 0.251602
C54   C     C_3   0.663304 0.234054 0.488087 -0.829665
H26   H     H_    0.651418 0.299379 0.452603 0.211558
H27   H     H_    0.698208 0.249019 0.554994 0.235325
H28   H     H_    0.703142 0.194584 0.436749 0.245259
O13   O     O_3   0.655373 0.760161 0.491056 -0.665563
H29   H     H_    0.644903 0.701181 0.462479 0.312761
O14   O     O_3   0.350458 0.231907 0.507747 -0.714417
H30   H     H_    0.356269 0.288651 0.471888 0.320033
O15   O     O_3   0.735958 0.896566 0.518557 -0.663809
H31   H     H_    0.781144 0.935962 0.496713 0.326753
O16   O     O_3   0.287201 0.099563 0.607513 -0.685590
H32   H     H_    0.306366 0.150918 0.645750 0.350787
C55   C     C_3   0.737466 0.076205 0.591018 -0.853803
H33   H     H_    0.771234 0.023716 0.634579 0.249565
H34   H     H_    0.782495 0.102339 0.537528 0.238454
H35   H     H_    0.717952 0.128008 0.644389 0.244222
C56   C     C_3   0.289775 0.916941 0.637349 -0.765962
H36   H     H_    0.278649 0.954824 0.705298 0.243878
H37   H     H_    0.230037 0.917802 0.595635 0.248880
H38   H     H_    0.307635 0.848003 0.660890 0.224025
C57   C     C_3   0.626220 0.394034 0.753238 -0.756407
H39   H     H_    0.669574 0.447142 0.732552 0.247824
H40   H     H_    0.662956 0.353682 0.806909 0.207675
H41   H     H_    0.613234 0.350273 0.691435 0.243887
C58   C     C_3   0.372280 0.602897 0.245361 -0.755980
H42   H     H_    0.329898 0.548646 0.265353 0.246925
H43   H     H_    0.385198 0.645636 0.307461 0.239711
H44   H     H_    0.335348 0.643416 0.191990 0.210495
C59   C     C_3   0.373486 0.605479 0.752569 -0.761870
H45   H     H_    0.336532 0.645447 0.806011 0.208116
H46   H     H_    0.386522 0.649583 0.690801 0.240629
H47   H     H_    0.330361 0.552281 0.731998 0.246587
C60   C     C_3   0.626535 0.394663 0.246425 -0.756828
H48   H     H_    0.612694 0.349221 0.306456 0.241671
H49   H     H_    0.663824 0.355837 0.192298 0.209713
H50   H     H_    0.669372 0.447536 0.268625 0.247115

loop_
_geom_bond_atom_site_label_1
_geom_bond_atom_site_label_2
_ccdc_geom_bond_type
O11   H21   S    
C48   H5    S    
O14   H30   S    
C12   C46   A    
C55   H34   S    
C36   C42   S    
C54   H26   S    
C18   N2    A    
Cu2   O6    S    
C52   H18   S    
C30   C50   S    
C54   H28   S    
C59   H45   S    
C39   C41   S    
C4    C46   A    
O10   H20   S    
C19   C59   S    
C33   C39   S    
C36   C39   S    
C34   C40   S    
C33   C42   S    
C40   O11   S    
C19   C21   A    
C8    C10   A    
C59   H46   S    
C57   H39   S    
C35   C47   S    
C6    O14   S    
C15   C55   S    
C51   H14   S    
C1    O3    A    
C20   N2    A    
C29   C49   S    
C14   O16   S    
C46   C54   S    
O9    H19   S    
C57   H40   S    
C24   C38   S    
C55   H33   S    
C13   O15   S    
C36   C48   S    
C9    C10   A    
Cu2   N2    S    
C48   H6    S    
C47   H1    S    
C41   C43   S    
C34   C41   S    
C42   C44   S    
C35   C41   S    
C10   C12   A    
C5    C7    A    
C58   H43   S    
Cu2   O3    S    
C47   H2    S    
C49   H7    S    
C17   C27   A    
Cu1   Cu2   S    
C5    O13   S    
Cu2   O7    S    
C18   C28   A    
C20   C60   S    
Cu1   N1    S    
C2    O4    A    
C17   N1    A    
C53   H23   S    
C52   H17   S    
C59   H47   S    
Cu1   O1    S    
C25   C26   A    
C23   C37   S    
C21   C29   A    
C3    C45   A    
C48   H4    S    
C49   H8    S    
C34   O10   S    
C37   C43   T    
C51   H13   S    
C60   H49   S    
C38   C44   T    
C53   H24   S    
C9    C11   A    
C11   C16   A    
C19   N1    A    
C31   C51   S    
O13   H29   S    
C12   C15   A    
C7    C13   A    
C57   H41   S    
C56   H37   S    
C33   O9    S    
C2    O2    A    
Cu1   O4    S    
C4    C6    A    
C20   C22   A    
C13   C15   A    
C55   H35   S    
C14   C16   A    
C11   C45   A    
C24   O6    A    
C60   H48   S    
C17   C57   S    
Cu1   O5    S    
C58   H44   S    
C23   O7    A    
C21   C25   A    
C47   H3    S    
C8    C14   A    
C22   C30   A    
C56   H36   S    
C27   C32   A    
C28   C31   A    
C3    C5    A    
C53   H25   S    
C50   H12   S    
C6    C8    A    
C58   H42   S    
C54   H27   S    
C23   O5    A    
C25   C27   A    
O16   H32   S    
C26   C28   A    
C1    O1    A    
C1    C4    S    
C49   H9    S    
C2    C3    S    
C60   H50   S    
C50   H10   S    
C29   C31   A    
Cu1   O8    S    
C30   C32   A    
C40   C42   S    
C33   C35   S    
C35   C40   S    
C56   H38   S    
C34   C36   S    
C45   C53   S    
C51   H15   S    
C52   H16   S    
C7    C9    A    
Cu2   O2    S    
C24   O8    A    
C22   C26   A    
C50   H11   S    
O15   H31   S    
O12   H22   S    
C18   C58   S    
C39   O12   S    
C16   C56   S    
C32   C52   S    
