data_mof_unit_55064.cif
_audit_creation_date              2012-10-26T21:05:18-0400
_audit_creation_method            fapswitch 2.2
_symmetry_space_group_name_H-M    P1
_symmetry_Int_Tables_number       1
_space_group_crystal_system       triclinic
_cell_length_a                    9.61586
_cell_length_b                    10.783897
_cell_length_c                    13.881436
_cell_angle_alpha                 92.471542
_cell_angle_beta                  84.860607
_cell_angle_gamma                 90.058424
_cell_volume                      1432.32902396

loop_
_atom_site_label
_atom_site_type_symbol
_atom_type_description
_atom_site_fract_x
_atom_site_fract_y
_atom_site_fract_z
_atom_type_partial_charge
C1    C     C_R   0.499584 0.737388 0.503405 0.539489
C2    C     C_R   0.588285 0.932915 0.443327 -0.136539
C3    C     C_R   0.588092 0.060835 0.443194 -0.145920
C4    C     C_R   0.477323 0.500425 0.682826 0.538936
C5    C     C_R   0.498487 0.129466 0.509940 0.018187
C6    C     C_R   0.872523 0.334628 0.371876 -0.081122
C7    C     C_R   0.952449 0.253017 0.309797 -0.164896
C8    C     C_R   0.095709 0.252666 0.309960 -0.159430
C9    C     C_R   0.159987 0.333959 0.372175 -0.077134
C10   C     C_R   0.082734 0.418397 0.437255 0.158704
C11   C     C_R   0.933284 0.418586 0.437182 0.160153
C12   C     C_1   0.463657 0.500474 0.786043 0.002554
C13   C     C_R   0.918556 0.577580 0.559743 0.010753
C14   C     C_R   0.066319 0.577564 0.559714 0.009748
C15   C     C_R   0.499503 0.262921 0.503104 0.523663
C16   C     C_R   0.522645 0.499621 0.317178 0.536609
C17   C     C_1   0.536136 0.498876 0.213939 -0.012088
C18   C     C_2   0.557347 0.497667 0.023291 -0.112492
C19   C     C_2   0.442087 0.500628 0.976658 -0.104765
C20   C     C_1   0.452858 0.500525 0.872939 -0.021577
C21   C     C_1   0.546701 0.498251 0.127024 -0.039506
C22   C     C_R   0.329151 0.878976 0.655419 -0.080431
C23   C     C_R   0.245640 0.947537 0.725874 0.248488
C24   C     C_R   0.245234 0.076572 0.725607 -0.081735
C25   C     C_R   0.328106 0.137621 0.654998 -0.143958
C26   C     C_R   0.411429 0.069992 0.581619 0.017598
C27   C     C_R   0.411804 0.938814 0.581808 -0.014291
C28   C     C_R   0.498900 0.871583 0.510219 0.007591
Cl1   Cl    Cl    0.143366 0.871117 0.816078 -0.616830
Cu1   Cu    Cu3+1 0.359340 0.500010 0.500010 0.930454
Cu2   Cu    Cu3+1 0.640660 0.499990 0.499990 0.941624
H1    H     H_    0.339190 0.503339 0.016080 0.148143
H2    H     H_    0.182043 0.130037 0.781068 0.152322
H3    H     H_    0.327836 0.237823 0.660067 0.151402
H4    H     H_    0.655931 0.106526 0.389125 0.111403
H5    H     H_    0.857315 0.641274 0.608752 0.137655
H6    H     H_    0.763803 0.327739 0.365150 0.176557
H7    H     H_    0.902546 0.189766 0.260946 0.126542
H8    H     H_    0.157898 0.189148 0.261213 0.132426
H9    H     H_    0.270411 0.326407 0.365655 0.182263
H10   H     H_    0.115081 0.641235 0.608713 0.142326
H11   H     H_    0.660233 0.495009 0.983854 0.146923
H12   H     H_    0.656239 0.881234 0.389363 0.134705
H13   H     H_    0.330348 0.779289 0.660560 0.152620
N1    N     N_R   0.852210 0.498790 0.499090 -0.245935
N2    N     N_R   0.148080 0.498710 0.499060 -0.247251
O1    O     O_R   0.381190 0.680360 0.500010 -0.501582
O2    O     O_R   0.618760 0.680340 0.500000 -0.495525
O3    O     O_R   0.364420 0.499990 0.637850 -0.503790
O4    O     O_R   0.601990 0.499960 0.637840 -0.488867
O5    O     O_R   0.381240 0.319660 0.500000 -0.528592
O6    O     O_R   0.618810 0.319640 0.499990 -0.514714
O7    O     O_R   0.398010 0.500040 0.362160 -0.508210
O8    O     O_R   0.635580 0.500010 0.362150 -0.512659

loop_
_geom_bond_atom_site_label_1
_geom_bond_atom_site_label_2
_ccdc_geom_bond_type
C10   N2    A    
C1    C28   S    
C23   C24   A    
C1    O2    A    
C9    H9    S    
C6    C7    A    
C8    H8    S    
C15   O5    A    
C4    C12   S    
C18   C21   S    
C9    C10   A    
Cu2   O6    S    
C19   C20   S    
C3    H4    S    
C4    O3    A    
Cu1   O5    S    
C12   C20   T    
C2    C3    A    
C6    H6    S    
C7    C8    A    
C14   N2    A    
C15   O6    A    
C13   N1    A    
C26   C27   A    
Cu1   Cu2   S    
C2    H12   S    
C14   H10   S    
C19   H1    S    
C23   Cl1   S    
C7    H7    S    
Cu2   O2    S    
C18   H11   S    
Cu2   O8    S    
C22   C27   A    
Cu1   O7    S    
C16   O8    A    
C11   N1    A    
C5    C15   S    
C10   C11   A    
Cu2   O4    S    
Cu1   O3    S    
C5    C26   A    
Cu1   O1    S    
C6    C11   A    
C25   H3    S    
C24   C25   A    
C13   H5    S    
C18   C19   D    
Cu2   N1    S    
C27   C28   A    
C16   O7    A    
C1    O1    A    
C2    C28   A    
C25   C26   A    
C13   C14   A    
Cu1   N2    S    
C22   C23   A    
C22   H13   S    
C24   H2    S    
C16   C17   S    
C4    O4    A    
C8    C9    A    
C3    C5    A    
C17   C21   T    
