data_mof_unit_65478.cif
_audit_creation_date              2012-12-10T18:40:09-0500
_audit_creation_method            fapswitch 2.2
_symmetry_space_group_name_H-M    P1
_symmetry_Int_Tables_number       1
_space_group_crystal_system       triclinic
_cell_length_a                    30.307681
_cell_length_b                    30.004879
_cell_length_c                    24.542411
_cell_angle_alpha                 89.999968
_cell_angle_beta                  127.8264
_cell_angle_gamma                 89.999853
_cell_volume                      17628.6403428

loop_
_atom_site_label
_atom_site_type_symbol
_atom_type_description
_atom_site_fract_x
_atom_site_fract_y
_atom_site_fract_z
_atom_type_partial_charge
C1    C     C_R   0.810929 0.810931 0.500512 0.843127
C2    C     C_R   0.535602 0.750608 0.069806 0.309074
C3    C     C_3   0.841410 0.104574 0.510699 0.198900
C4    C     C_3   0.658219 0.594267 0.550511 -0.255861
C5    C     C_3   0.341785 0.594298 0.449431 -0.255833
C6    C     C_3   0.158215 0.094303 0.550578 -0.255913
C7    C     C_3   0.841782 0.094283 0.449460 -0.255810
C8    C     C_3   0.655521 0.644529 0.560953 0.015003
C9    C     C_3   0.344529 0.644567 0.439073 0.014972
C10   C     C_3   0.155462 0.144572 0.560922 0.014989
C11   C     C_3   0.844505 0.144548 0.439062 0.014991
C12   C     C_3   0.656446 0.654559 0.500586 -0.055852
C13   C     C_R   0.964399 0.250603 0.930192 0.309081
C14   C     C_3   0.343552 0.654560 0.499409 -0.055862
C15   C     C_3   0.156447 0.154560 0.500591 -0.055879
C16   C     C_3   0.843554 0.154559 0.499414 -0.055861
C17   C     C_R   0.439439 0.560905 0.500182 0.874783
C18   C     C_R   0.560562 0.560903 0.499818 0.874781
C19   C     C_R   0.939438 0.060904 0.500182 0.874767
C20   C     C_R   0.060561 0.060904 0.499818 0.874762
C21   C     C_R   0.939337 0.938992 0.500131 0.955354
C22   C     C_R   0.060676 0.939005 0.499870 0.955089
C23   C     C_R   0.439328 0.439001 0.500131 0.955213
C24   C     C_R   0.035566 0.250604 0.069810 0.309078
C25   C     C_R   0.560662 0.438991 0.499869 0.955415
C26   C     C_R   0.818161 0.751035 0.634497 0.899849
C27   C     C_R   0.181840 0.751035 0.365502 0.899782
C28   C     C_R   0.318160 0.251035 0.634498 0.899731
C29   C     C_R   0.681839 0.251035 0.365503 0.899812
C30   C     C_R   0.637914 0.789576 0.254195 0.123894
C31   C     C_R   0.362058 0.789563 0.745801 0.123865
C32   C     C_R   0.137904 0.289572 0.254195 0.123865
C33   C     C_R   0.862095 0.289575 0.745804 0.123904
C34   C     C_R   0.601653 0.789365 0.182101 -0.178125
C35   C     C_3   0.854068 0.891632 0.531046 -0.158867
C36   C     C_R   0.398336 0.789356 0.817896 -0.178260
C37   C     C_R   0.101627 0.289363 0.182101 -0.178263
C38   C     C_R   0.898355 0.289363 0.817898 -0.178113
C39   C     C_R   0.573719 0.750410 0.145542 0.047256
C40   C     C_R   0.426308 0.750410 0.854453 0.047316
C41   C     C_R   0.073692 0.250407 0.145545 0.047311
C42   C     C_R   0.926281 0.250406 0.854457 0.047246
C43   C     C_R   0.581804 0.711181 0.181450 -0.261973
C44   C     C_R   0.418242 0.711187 0.818544 -0.261976
C45   C     C_R   0.081792 0.211176 0.181457 -0.261976
C46   C     C_3   0.146365 0.891775 0.469526 -0.158772
C47   C     C_R   0.918186 0.211175 0.818548 -0.261979
C48   C     C_R   0.616303 0.710508 0.253383 -0.023307
C49   C     C_R   0.383727 0.710511 0.746610 -0.023369
C50   C     C_R   0.116305 0.210502 0.253391 -0.023382
C51   C     C_R   0.883687 0.210502 0.746615 -0.023328
C52   C     C_3   0.669328 0.832300 0.290316 -0.428258
C53   C     C_3   0.631931 0.865792 0.291256 -0.804118
C54   C     C_3   0.330587 0.832271 0.709683 -0.428103
C55   C     C_3   0.367904 0.865778 0.708610 -0.804219
C56   C     C_3   0.169331 0.332294 0.290311 -0.428117
C57   C     C_3   0.353767 0.391730 0.530647 -0.158786
C58   C     C_3   0.131985 0.365758 0.291397 -0.804140
C59   C     C_3   0.830686 0.332302 0.709686 -0.428273
C60   C     C_3   0.868093 0.365798 0.708772 -0.804117
C61   C     C_3   0.940493 0.750334 0.706691 -0.385993
C62   C     C_3   0.002827 0.760744 0.748565 -0.900802
C63   C     C_3   0.059506 0.750319 0.293303 -0.386045
C64   C     C_3   0.997171 0.760727 0.251428 -0.900782
C65   C     C_3   0.440494 0.250322 0.706696 -0.386019
C66   C     C_3   0.502828 0.260730 0.748572 -0.900805
C67   C     C_3   0.559507 0.250335 0.293309 -0.385974
C68   C     C_3   0.645900 0.391620 0.468913 -0.158863
C69   C     C_3   0.497174 0.260749 0.251436 -0.900822
C70   C     C_3   0.696757 0.581327 0.477108 -0.359681
C71   C     C_3   0.686259 0.531154 0.467902 -0.916665
C72   C     C_3   0.303144 0.581309 0.522708 -0.359650
C73   C     C_3   0.313613 0.531130 0.531855 -0.916721
C74   C     C_3   0.196872 0.081305 0.477321 -0.359633
C75   C     C_3   0.186404 0.031125 0.468180 -0.916739
C76   C     C_3   0.803192 0.081320 0.522800 -0.359667
C77   C     C_3   0.813662 0.031142 0.531958 -0.916682
C78   C     C_2   0.689185 0.666265 0.630387 0.367466
C79   C     C_3   0.843487 0.910700 0.465401 -0.187062
C80   C     C_2   0.310923 0.666344 0.369670 0.367482
C81   C     C_2   0.189055 0.166358 0.630317 0.367464
C82   C     C_2   0.810871 0.166306 0.369644 0.367487
C83   C     C_2   0.618781 0.668163 0.286622 0.362921
C84   C     C_2   0.381257 0.668169 0.713370 0.362888
C85   C     C_2   0.118806 0.168150 0.286633 0.362956
C86   C     C_2   0.881194 0.168152 0.713375 0.362953
C87   C     C_2   0.918337 0.838251 0.435869 0.398411
C88   C     C_2   0.080792 0.838013 0.562939 0.398398
C89   C     C_2   0.418951 0.338088 0.436704 0.398363
C90   C     C_3   0.156651 0.910552 0.535139 -0.187182
C91   C     C_2   0.581720 0.338273 0.564213 0.398414
C92   C     C_3   0.343394 0.410598 0.465027 -0.187166
C93   C     C_R   0.189073 0.810932 0.499489 0.843159
C94   C     C_3   0.656500 0.410713 0.534558 -0.187068
C95   C     C_3   0.905885 0.905049 0.500366 0.009074
C96   C     C_3   0.094137 0.905069 0.499636 0.008950
C97   C     C_3   0.405872 0.405062 0.500367 0.008995
C98   C     C_3   0.594112 0.405047 0.499631 0.009087
C99   C     C_3   0.916995 0.886430 0.566024 -0.165987
C100  C     C_3   0.083322 0.886741 0.434008 -0.166436
C101  C     C_3   0.416775 0.386643 0.566002 -0.166313
C102  C     C_3   0.582982 0.386404 0.433973 -0.165956
C103  C     C_3   0.907023 0.838942 0.535879 -0.215936
C104  C     C_R   0.310925 0.310932 0.500507 0.843150
C105  C     C_3   0.092869 0.839119 0.463582 -0.216371
C106  C     C_3   0.407095 0.339063 0.536249 -0.216011
C107  C     C_3   0.592987 0.338927 0.464166 -0.215678
C108  C     C_3   0.896046 0.858275 0.470521 0.065165
C109  C     C_3   0.103560 0.858163 0.528922 0.065293
C110  C     C_3   0.396321 0.358198 0.470906 0.065190
C111  C     C_3   0.603983 0.358285 0.529522 0.065082
C112  C     C_3   0.833321 0.863187 0.435080 -0.236085
C113  C     C_3   0.166394 0.862902 0.564892 -0.235721
C114  C     C_3   0.333520 0.362992 0.435096 -0.236087
C115  C     C_R   0.689074 0.310931 0.499493 0.843109
C116  C     C_3   0.666700 0.363212 0.564925 -0.236342
C117  C     C_3   0.844648 0.844810 0.500794 0.014159
C118  C     C_3   0.155359 0.844817 0.499207 0.014291
C119  C     C_3   0.344641 0.344815 0.500788 0.014274
C120  C     C_3   0.655354 0.344810 0.499212 0.014170
C121  C     C_R   0.682744 0.749850 0.365640 0.942498
C122  C     C_R   0.317254 0.749850 0.634359 0.942609
C123  C     C_R   0.182745 0.249850 0.365641 0.942544
C124  C     C_R   0.817256 0.249849 0.634359 0.942458
C125  C     C_R   0.835978 0.759397 0.745878 -0.164266
C126  C     C_R   0.645168 0.749924 0.290312 -0.091263
C127  C     C_R   0.164024 0.759401 0.254122 -0.164363
C128  C     C_R   0.335976 0.259399 0.745878 -0.164433
C129  C     C_R   0.664022 0.259398 0.254121 -0.164302
C130  C     C_R   0.871112 0.761498 0.817269 -0.175223
C131  C     C_R   0.128890 0.761502 0.182731 -0.175215
C132  C     C_R   0.371110 0.261499 0.817269 -0.175217
C133  C     C_R   0.628888 0.261499 0.182731 -0.175220
C134  C     C_R   0.929005 0.758423 0.854295 0.027513
C135  C     C_R   0.070997 0.758420 0.145703 0.027516
C136  C     C_R   0.429003 0.258420 0.854297 0.027522
C137  C     C_R   0.354831 0.749920 0.709684 -0.091183
C138  C     C_R   0.570994 0.258424 0.145705 0.027515
C139  C     C_R   0.951379 0.754159 0.818602 -0.146481
C140  C     C_R   0.048623 0.754150 0.181395 -0.146488
C141  C     C_R   0.451377 0.254152 0.818605 -0.146491
C142  C     C_R   0.548621 0.254160 0.181398 -0.146484
C143  C     C_R   0.916455 0.752398 0.746067 0.136930
C144  C     C_R   0.083546 0.752390 0.253929 0.137011
C145  C     C_R   0.416454 0.252391 0.746070 0.137009
C146  C     C_R   0.583545 0.252399 0.253933 0.136934
C147  C     C_R   0.857771 0.753717 0.709884 -0.099322
C148  C     C_R   0.145166 0.249920 0.290315 -0.091211
C149  C     C_R   0.142230 0.753715 0.290115 -0.099348
C150  C     C_R   0.357770 0.253715 0.709885 -0.099377
C151  C     C_R   0.642228 0.253718 0.290116 -0.099336
C152  C     C_R   0.034015 0.759402 0.069865 0.302691
C153  C     C_R   0.965989 0.759404 0.930133 0.302692
C154  C     C_R   0.534011 0.259404 0.069866 0.302691
C155  C     C_R   0.465986 0.259402 0.930135 0.302686
C156  C     C_3   0.592282 0.654187 0.449843 -0.168840
C157  C     C_3   0.407714 0.654158 0.550208 -0.168734
C158  C     C_3   0.092286 0.154153 0.449783 -0.168761
C159  C     C_R   0.854832 0.249921 0.709687 -0.091284
C160  C     C_3   0.907716 0.154171 0.550185 -0.168811
C161  C     C_3   0.591278 0.644047 0.511035 -0.242767
C162  C     C_3   0.408771 0.644055 0.489048 -0.242803
C163  C     C_3   0.091221 0.144056 0.510938 -0.242707
C164  C     C_3   0.908747 0.144051 0.489009 -0.242791
C165  C     C_3   0.594255 0.594309 0.499533 -0.023868
C166  C     C_3   0.405746 0.594311 0.500466 -0.023851
C167  C     C_3   0.094254 0.094310 0.499534 -0.023839
C168  C     C_3   0.905745 0.094309 0.500467 -0.023860
C169  C     C_R   0.689526 0.688946 0.500295 1.014118
C170  C     C_R   0.464434 0.750608 0.930189 0.309071
C171  C     C_R   0.310472 0.688946 0.499701 1.014102
C172  C     C_R   0.189528 0.188946 0.500298 1.014025
C173  C     C_R   0.810473 0.188946 0.499705 1.014068
C174  C     C_3   0.594289 0.603750 0.438140 -0.123130
C175  C     C_3   0.405660 0.603714 0.561827 -0.123149
C176  C     C_3   0.094348 0.103707 0.438178 -0.123147
C177  C     C_3   0.905684 0.103730 0.561843 -0.123153
C178  C     C_3   0.658565 0.604578 0.489257 0.198930
C179  C     C_3   0.341387 0.604571 0.510655 0.198879
C180  C     C_3   0.158621 0.104570 0.489358 0.198879
H1    H     H_    0.798756 0.852872 0.381551 0.124146
H2    H     H_    0.147277 0.765373 0.156622 0.160129
H3    H     H_    0.689214 0.595339 0.430186 0.244733
H4    H     H_    0.740983 0.587523 0.521982 0.212706
H5    H     H_    0.305430 0.516269 0.484990 0.255280
H6    H     H_    0.357436 0.524021 0.577086 0.261014
H7    H     H_    0.285241 0.515301 0.540465 0.256342
H8    H     H_    0.310657 0.595293 0.569628 0.244655
H9    H     H_    0.258931 0.587529 0.477812 0.212683
H10   H     H_    0.194577 0.016267 0.515040 0.255306
H11   H     H_    0.142584 0.024015 0.422941 0.261010
H12   H     H_    0.214783 0.015294 0.459584 0.256325
H13   H     H_    0.352723 0.265369 0.843378 0.160135
H14   H     H_    0.189365 0.095285 0.430403 0.244667
H15   H     H_    0.241082 0.087526 0.522222 0.212665
H16   H     H_    0.805438 0.016273 0.485076 0.255223
H17   H     H_    0.857497 0.024035 0.577160 0.261033
H18   H     H_    0.785320 0.015321 0.540623 0.256373
H19   H     H_    0.810729 0.095312 0.569729 0.244707
H20   H     H_    0.758973 0.087535 0.477922 0.212712
H21   H     H_    0.683209 0.656256 0.667915 0.069818
H22   H     H_    0.316941 0.656362 0.332170 0.069798
H23   H     H_    0.183064 0.156354 0.667834 0.069797
H24   H     H_    0.647274 0.265366 0.156621 0.160127
H25   H     H_    0.816879 0.156320 0.332137 0.069807
H26   H     H_    0.605978 0.637215 0.257700 0.064318
H27   H     H_    0.394116 0.637227 0.742313 0.064343
H28   H     H_    0.105992 0.137206 0.257701 0.064323
H29   H     H_    0.893992 0.137206 0.742299 0.064314
H30   H     H_    0.908910 0.803790 0.419111 0.043546
H31   H     H_    0.089789 0.803435 0.579133 0.043680
H32   H     H_    0.409665 0.303590 0.420121 0.043670
H33   H     H_    0.591323 0.303862 0.581212 0.043558
H34   H     H_    0.996155 0.752059 0.847904 0.163810
H35   H     H_    0.003847 0.752045 0.152092 0.163811
H36   H     H_    0.496154 0.252047 0.847908 0.163808
H37   H     H_    0.503844 0.252059 0.152096 0.163808
H38   H     H_    0.562894 0.659218 0.520141 0.136869
H39   H     H_    0.437195 0.659233 0.480013 0.136865
H40   H     H_    0.062790 0.159234 0.519962 0.136853
H41   H     H_    0.200719 0.852331 0.618384 0.124156
H42   H     H_    0.937152 0.159225 0.479940 0.136860
H43   H     H_    0.566164 0.679329 0.408790 0.165748
H44   H     H_    0.433828 0.679275 0.591306 0.165768
H45   H     H_    0.066172 0.179266 0.408678 0.165749
H46   H     H_    0.933833 0.179299 0.591262 0.165748
H47   H     H_    0.568392 0.586248 0.387697 0.148663
H48   H     H_    0.431515 0.586180 0.612245 0.148624
H49   H     H_    0.068499 0.086169 0.387763 0.148626
H50   H     H_    0.931560 0.086212 0.612273 0.148654
H51   H     H_    0.684346 0.569181 0.591687 0.146079
H52   H     H_    0.299118 0.352503 0.381590 0.124144
H53   H     H_    0.315660 0.569238 0.408209 0.146099
H54   H     H_    0.184340 0.069246 0.591807 0.146101
H55   H     H_    0.815656 0.069211 0.408259 0.146099
H56   H     H_    0.596097 0.819701 0.154539 0.154536
H57   H     H_    0.403874 0.819685 0.845460 0.154526
H58   H     H_    0.096061 0.319700 0.154536 0.154525
H59   H     H_    0.903918 0.319700 0.845461 0.154540
H60   H     H_    0.559617 0.681097 0.153238 0.148356
H61   H     H_    0.440452 0.681109 0.846754 0.148349
H62   H     H_    0.059609 0.181090 0.153249 0.148354
H63   H     H_    0.701283 0.352916 0.618458 0.124138
H64   H     H_    0.940364 0.181088 0.846759 0.148359
H65   H     H_    0.818412 0.940792 0.436685 0.136225
H66   H     H_    0.181824 0.940513 0.564286 0.136426
H67   H     H_    0.318251 0.440599 0.436013 0.136369
H68   H     H_    0.681565 0.440815 0.563237 0.136200
H69   H     H_    0.835962 0.904514 0.555885 0.148861
H70   H     H_    0.164810 0.904766 0.445151 0.149025
H71   H     H_    0.335425 0.404688 0.555164 0.148973
H72   H     H_    0.663982 0.404494 0.444040 0.148848
H73   H     H_    0.951832 0.896549 0.619583 0.161810
H74   H     H_    0.791349 0.761818 0.718611 0.201794
H75   H     H_    0.048736 0.897111 0.380476 0.161655
H76   H     H_    0.451438 0.396933 0.619545 0.161695
H77   H     H_    0.548127 0.396504 0.380412 0.161814
H78   H     H_    0.932234 0.808886 0.564609 0.149735
H79   H     H_    0.067565 0.809193 0.434418 0.149534
H80   H     H_    0.432370 0.309097 0.565281 0.149597
H81   H     H_    0.567786 0.308861 0.435471 0.149752
H82   H     H_    0.595710 0.874890 0.237820 0.250377
H83   H     H_    0.616466 0.851554 0.318495 0.270882
H84   H     H_    0.656154 0.896467 0.318685 0.241004
H85   H     H_    0.208652 0.761827 0.281390 0.201848
H86   H     H_    0.707016 0.826181 0.344011 0.197952
H87   H     H_    0.684639 0.847278 0.263255 0.198616
H88   H     H_    0.404250 0.874803 0.762014 0.250442
H89   H     H_    0.383177 0.851591 0.681129 0.270933
H90   H     H_    0.343686 0.896490 0.681360 0.240950
H91   H     H_    0.292852 0.826129 0.656025 0.197853
H92   H     H_    0.315340 0.847248 0.736816 0.198687
H93   H     H_    0.095650 0.374802 0.237997 0.250412
H94   H     H_    0.116694 0.351525 0.318834 0.270939
H95   H     H_    0.156185 0.396467 0.318697 0.240952
H96   H     H_    0.291348 0.261824 0.718611 0.201894
H97   H     H_    0.207077 0.326161 0.343964 0.197873
H98   H     H_    0.184556 0.347303 0.263171 0.198648
H99   H     H_    0.904293 0.374906 0.762215 0.250363
H100  H     H_    0.883589 0.351560 0.681570 0.270871
H101  H     H_    0.843866 0.396468 0.681320 0.241009
H102  H     H_    0.793006 0.326188 0.655984 0.197979
H103  H     H_    0.815362 0.347274 0.736735 0.198591
H104  H     H_    0.012627 0.793451 0.774924 0.266907
H105  H     H_    0.028300 0.734022 0.786900 0.260528
H106  H     H_    0.014174 0.762432 0.713324 0.256828
H107  H     H_    0.708651 0.261820 0.281388 0.201816
H108  H     H_    0.932966 0.716595 0.683879 0.228750
H109  H     H_    0.918124 0.775009 0.663913 0.202233
H110  H     H_    0.987371 0.793436 0.225071 0.266957
H111  H     H_    0.971700 0.734006 0.213091 0.260530
H112  H     H_    0.985823 0.762412 0.286668 0.256801
H113  H     H_    0.067034 0.716579 0.316111 0.228747
H114  H     H_    0.081872 0.774992 0.336083 0.202181
H115  H     H_    0.512629 0.293438 0.774930 0.266941
H116  H     H_    0.528300 0.234009 0.786908 0.260529
H117  H     H_    0.514176 0.262416 0.713331 0.256813
H118  H     H_    0.852726 0.765364 0.843379 0.160125
H119  H     H_    0.432966 0.216583 0.683886 0.228745
H120  H     H_    0.418127 0.274997 0.663917 0.202200
H121  H     H_    0.487378 0.293458 0.225080 0.266903
H122  H     H_    0.471698 0.234030 0.213099 0.260527
H123  H     H_    0.485828 0.262439 0.286677 0.256833
H124  H     H_    0.567030 0.216595 0.316117 0.228746
H125  H     H_    0.581878 0.275008 0.336090 0.202240
H126  H     H_    0.694481 0.516266 0.514774 0.255218
H127  H     H_    0.642418 0.524067 0.422699 0.261041
H128  H     H_    0.714587 0.515334 0.459214 0.256373
N1    N     N_R   0.517443 0.711697 0.034241 -0.179543
N2    N     N_R   0.977706 0.759486 0.033362 -0.183775
N3    N     N_R   0.522294 0.259487 0.966638 -0.183778
N4    N     N_R   0.477703 0.259490 0.033363 -0.183783
N5    N     N_R   0.055658 0.759514 0.035168 -0.176323
N6    N     N_R   0.944345 0.759510 0.964830 -0.176318
N7    N     N_R   0.555655 0.259511 0.035170 -0.176320
N8    N     N_R   0.444342 0.259512 0.964831 -0.176326
N9    N     N_R   0.482625 0.711697 0.965755 -0.179547
N10   N     N_R   0.017386 0.211693 0.034244 -0.179551
N11   N     N_R   0.982568 0.211692 0.965759 -0.179545
N12   N     N_R   0.482508 0.789567 0.965718 -0.183115
N13   N     N_R   0.517498 0.789567 0.034278 -0.183117
N14   N     N_R   0.982492 0.289562 0.965720 -0.183130
N15   N     N_R   0.017481 0.289563 0.034280 -0.183127
N16   N     N_R   0.022297 0.759492 0.966637 -0.183782
O1    O     O_R   0.822760 0.770240 0.499990 -0.642272
O2    O     O_R   0.075230 0.953450 0.557500 -0.604429
O3    O     O_R   0.424770 0.453450 0.442500 -0.604479
O4    O     O_R   0.575230 0.453450 0.557500 -0.604165
O5    O     O_R   0.982280 0.953430 0.557510 -0.617732
O6    O     O_R   0.017720 0.953430 0.442490 -0.617439
O7    O     O_R   0.482280 0.453430 0.557510 -0.617480
O8    O     O_R   0.517720 0.453430 0.442490 -0.617712
O9    O     O_R   0.770230 0.822760 0.499990 -0.629089
O10   O     O_R   0.229770 0.822760 0.500010 -0.629180
O11   O     O_R   0.270230 0.322760 0.499990 -0.629147
O12   O     O_R   0.177240 0.770240 0.500010 -0.642224
O13   O     O_R   0.729770 0.322760 0.500010 -0.629079
O14   O     O_R   0.725330 0.723740 0.398130 -0.605010
O15   O     O_R   0.274670 0.723740 0.601870 -0.604978
O16   O     O_R   0.225330 0.223740 0.398130 -0.604955
O17   O     O_R   0.774670 0.223740 0.601870 -0.604979
O18   O     O_R   0.672800 0.776260 0.398130 -0.622109
O19   O     O_R   0.327200 0.776260 0.601870 -0.622169
O20   O     O_R   0.172800 0.276260 0.398130 -0.622184
O21   O     O_R   0.827200 0.276260 0.601870 -0.622115
O22   O     O_R   0.729750 0.677220 0.500010 -0.627003
O23   O     O_R   0.322760 0.270240 0.499990 -0.642233
O24   O     O_R   0.270250 0.677220 0.499990 -0.627002
O25   O     O_R   0.229750 0.177220 0.500010 -0.627007
O26   O     O_R   0.770250 0.177220 0.499990 -0.626992
O27   O     O_R   0.677220 0.729740 0.500010 -0.603944
O28   O     O_R   0.322780 0.729740 0.499990 -0.603876
O29   O     O_R   0.177220 0.229740 0.500010 -0.603820
O30   O     O_R   0.822780 0.229740 0.499990 -0.603925
O31   O     O_R   0.827180 0.723730 0.601860 -0.638008
O32   O     O_R   0.172820 0.723730 0.398140 -0.638053
O33   O     O_R   0.327180 0.223730 0.601860 -0.638067
O34   O     O_R   0.677240 0.270240 0.500010 -0.642274
O35   O     O_R   0.672820 0.223730 0.398140 -0.638016
O36   O     O_R   0.774660 0.776250 0.601860 -0.606522
O37   O     O_R   0.225340 0.776250 0.398140 -0.606454
O38   O     O_R   0.274660 0.276250 0.601860 -0.606413
O39   O     O_R   0.725340 0.276250 0.398140 -0.606499
O40   O     O_R   0.424770 0.546480 0.442520 -0.635693
O41   O     O_R   0.575230 0.546480 0.557480 -0.635687
O42   O     O_R   0.924770 0.046480 0.442520 -0.635695
O43   O     O_R   0.075230 0.046480 0.557480 -0.635701
O44   O     O_2   0.723371 0.694980 0.645235 -0.602612
O45   O     O_R   0.482280 0.546460 0.557530 -0.636231
O46   O     O_2   0.276739 0.695061 0.354818 -0.602590
O47   O     O_2   0.223197 0.195109 0.645145 -0.602564
O48   O     O_2   0.776673 0.195013 0.354785 -0.602601
O49   O     O_2   0.632558 0.667288 0.344873 -0.615812
O50   O     O_2   0.367420 0.667288 0.655090 -0.615761
O51   O     O_2   0.132616 0.167263 0.344900 -0.615724
O52   O     O_2   0.867411 0.167270 0.655122 -0.615774
O53   O     O_2   0.946731 0.860239 0.426060 -0.555889
O54   O     O_2   0.052489 0.860031 0.572864 -0.556484
O55   O     O_2   0.447463 0.360050 0.427061 -0.556263
O56   O     O_R   0.517720 0.546460 0.442470 -0.636216
O57   O     O_2   0.553153 0.360215 0.573788 -0.555788
O58   O     O_R   0.982280 0.046460 0.557530 -0.636212
O59   O     O_R   0.017720 0.046460 0.442470 -0.636238
O60   O     O_R   0.924770 0.953450 0.442500 -0.604036
Zn1   Zn    Zn3+2 0.785070 0.714920 0.500000 0.950514
Zn2   Zn    Zn3+2 0.038370 0.999960 0.576800 0.971377
Zn3   Zn    Zn3+2 0.461630 0.499960 0.423200 0.971360
Zn4   Zn    Zn3+2 0.538370 0.499960 0.576800 0.971672
Zn5   Zn    Zn3+2 0.214930 0.714920 0.500000 0.950528
Zn6   Zn    Zn3+2 0.285070 0.214920 0.500000 0.950526
Zn7   Zn    Zn3+2 0.714930 0.214920 0.500000 0.950529
Zn8   Zn    Zn3+2 0.714920 0.785060 0.500000 0.976211
Zn9   Zn    Zn3+2 0.285080 0.785060 0.500000 0.976173
Zn10  Zn    Zn3+2 0.214920 0.285060 0.500000 0.976218
Zn11  Zn    Zn3+2 0.785080 0.285060 0.500000 0.976238
Zn12  Zn    Zn3+2 0.961630 0.999960 0.423200 0.971770

loop_
_geom_bond_atom_site_label_1
_geom_bond_atom_site_label_2
_ccdc_geom_bond_type
C16   C173  S    
C99   C103  S    
C7    C168  S    
C74   H14   S    
C142  C146  A    
C73   H6    S    
C21   O60   A    
O16   Zn6   S    
C53   H84   S    
C156  H43   S    
C169  O22   A    
C83   H26   S    
C95   C99   S    
O38   Zn10  S    
C22   O6    A    
C128  C132  A    
O2    Zn2   S    
C46   H70   S    
C93   O12   A    
O24   Zn5   S    
O21   Zn11  S    
C157  H44   S    
C63   C144  S    
O9    Zn8   S    
C31   C137  A    
C19   O58   A    
C141  C145  A    
C155  N8    A    
C138  C154  S    
C58   H93   S    
C59   C60   S    
C33   C59   S    
C24   C41   S    
C124  O17   A    
C103  C117  S    
O19   Zn9   S    
C13   C42   S    
C89   H32   S    
C152  N2    A    
C164  C168  S    
C75   H10   S    
C69   H122  S    
C104  O11   A    
O28   Zn9   S    
O31   Zn1   S    
C29   O39   A    
C78   O44   D    
C98   C102  S    
C22   O2    A    
C175  H48   S    
O56   Zn3   S    
C174  H47   S    
C136  C141  A    
C154  N7    A    
C66   H116  S    
C107  H81   S    
C122  O19   A    
C113  H41   S    
C46   C90   S    
C88   C109  S    
C128  C150  A    
C59   H102  S    
C64   H111  S    
C87   H30   S    
O27   Zn8   S    
C105  C118  S    
C27   O37   A    
C160  C164  S    
C107  C120  S    
C177  H50   S    
N2    N6    A    
C36   H57   S    
C127  H85   S    
C22   C96   S    
C122  C137  S    
C68   C102  S    
C72   C73   S    
C71   H128  S    
C175  C179  S    
C104  O23   A    
C96   C109  S    
O30   Zn11  S    
C3    C7    S    
C33   C38   A    
C171  O28   A    
C91   H33   S    
C121  O14   A    
C45   C50   A    
C65   H119  S    
C15   C172  S    
C51   C86   S    
C127  C131  A    
O15   Zn5   S    
O26   Zn7   S    
C95   C108  S    
C170  N12   A    
C87   O53   D    
C41   C45   A    
C31   C36   A    
C157  C162  S    
C161  C165  S    
C154  N4    A    
C12   C178  S    
C57   C92   S    
N3    N7    A    
C16   C160  S    
C86   H29   S    
C25   O4    A    
O33   Zn6   S    
N10   N11   A    
C69   H121  S    
C130  H118  S    
C49   C84   S    
C17   C166  S    
C47   H64   S    
C131  H2    S    
C134  C153  S    
C139  H34   S    
C135  C152  S    
C63   H113  S    
C64   H110  S    
C19   O42   A    
O35   Zn7   S    
O40   Zn3   S    
C139  C143  A    
C5    C179  S    
C23   O7    A    
C60   H99   S    
C54   H92   S    
C55   H89   S    
C57   H71   S    
C77   H18   S    
C110  C114  S    
C114  C119  S    
C50   C85   S    
C8    C12   S    
C104  C119  S    
C6    H54   S    
C82   O48   D    
C84   H27   S    
C12   C156  S    
C71   H126  S    
C92   C97   S    
O4    Zn4   S    
C173  O30   A    
C11   C82   S    
C30   C34   A    
C34   C39   A    
C129  H107  S    
C15   C158  S    
O25   Zn6   S    
C134  C139  A    
C136  C155  S    
C21   C95   S    
C165  C174  S    
C32   C37   A    
O37   Zn9   S    
C89   C110  S    
C68   C94   S    
O12   Zn5   S    
C116  C120  S    
C18   O56   A    
C152  N5    A    
C75   H11   S    
C62   H106  S    
C5    C9    S    
C23   O3    A    
C29   C151  S    
C1    O9    A    
C132  C136  A    
C2    N13   A    
C102  C107  S    
C1    C117  S    
C5    C166  S    
O20   Zn10  S    
C111  C116  S    
C158  C163  S    
O17   Zn7   S    
O18   Zn8   S    
C156  C161  S    
C132  H13   S    
C103  H78   S    
C52   C53   S    
C29   O35   A    
C67   H125  S    
C50   C148  A    
C101  C106  S    
C20   C167  S    
C105  C109  S    
O5    Zn2   S    
C69   H123  S    
C6    C180  S    
C56   H97   S    
C60   H101  S    
C107  C111  S    
C55   H88   S    
C28   O38   A    
C14   C171  S    
C76   H19   S    
C73   H5    S    
C90   C96   S    
C112  H1    S    
C57   C101  S    
C53   H83   S    
C48   C83   S    
C64   H112  S    
O42   Zn12  S    
C127  C149  A    
N4    N8    A    
C37   H58   S    
C176  H49   S    
C96   C100  S    
C35   C79   S    
C56   C58   S    
C31   C54   S    
C37   C41   A    
C61   C62   S    
C48   C126  A    
C63   C64   S    
C40   C44   A    
C52   H87   S    
C123  C148  S    
O59   Zn12  S    
C89   O55   D    
C94   H68   S    
C45   H62   S    
C3    C16   S    
C58   H94   S    
C10   C163  S    
C106  C119  S    
C74   H15   S    
C171  O24   A    
C78   H21   S    
C121  O18   A    
C81   O47   D    
C40   C170  S    
C130  C134  A    
C123  O20   A    
O32   Zn5   S    
C156  C174  S    
C166  C175  S    
C79   C112  S    
C79   H65   S    
C62   H104  S    
C129  C151  A    
C49   C137  A    
C112  C117  S    
O8    Zn3   S    
C94   C98   S    
C168  C177  S    
C88   O54   D    
C4    C165  S    
C46   C118  S    
C61   H108  S    
C122  O15   A    
C59   H103  S    
C140  H35   S    
C162  C166  S    
O22   Zn1   S    
C61   C143  S    
C80   H22   S    
C2    N1    A    
C70   C71   S    
C174  C178  S    
C8    C78   S    
C25   O8    A    
C26   O36   A    
C68   H72   S    
N14   N15   A    
C133  C138  A    
C161  H38   S    
C58   H95   S    
C141  H36   S    
C73   H7    S    
C18   C165  S    
C135  C140  A    
C7    H55   S    
C14   C157  S    
C4    H51   S    
C138  C142  A    
C71   H127  S    
C94   C116  S    
C47   C51   A    
C172  O25   A    
O6    Zn12  S    
C108  C112  S    
C143  C147  A    
C9    C14   S    
C79   C95   S    
C11   C16   S    
O43   Zn2   S    
C18   O41   A    
O41   Zn4   S    
C17   O45   A    
O14   Zn1   S    
C158  H45   S    
C12   C169  S    
C153  N16   A    
C173  O26   A    
C125  C147  A    
C19   C168  S    
N5    N16   A    
C85   O51   D    
O36   Zn8   S    
C24   N15   A    
C140  C144  A    
C6    C10   S    
C32   C148  A    
C172  O29   A    
C10   C81   S    
C26   O31   A    
C10   C15   S    
O23   Zn6   S    
C30   C52   S    
C66   H115  S    
C90   H66   S    
C115  O13   A    
O39   Zn11  S    
C26   C147  S    
C160  C177  S    
C43   H60   S    
O3    Zn3   S    
O1    Zn1   S    
C60   H100  S    
C77   H17   S    
C32   C56   S    
C68   C120  S    
C33   C159  A    
C44   C49   A    
C52   H86   S    
C30   C126  A    
C28   C150  S    
C70   H4    S    
O45   Zn4   S    
C20   O43   A    
C54   C55   S    
C13   N11   A    
C4    C8    S    
C34   H56   S    
C81   H23   S    
C7    C11   S    
C100  C105  S    
C169  O27   A    
C77   H16   S    
C38   C42   A    
C131  C135  A    
C8    C161  S    
C114  H52   S    
C65   H120  S    
C124  C159  S    
C35   H69   S    
C90   C113  S    
C91   C111  S    
O34   Zn7   S    
C72   H8    S    
C24   N10   A    
C91   O57   D    
C38   H59   S    
N1    N9    A    
C2    C39   S    
C128  H96   S    
C87   C108  S    
C160  H46   S    
C88   H31   S    
O58   Zn2   S    
C103  C108  S    
C4    C178  S    
C100  H75   S    
C43   C48   A    
C14   C179  S    
C109  C113  S    
C57   C119  S    
C123  O16   A    
C83   O49   D    
C133  H24   S    
O29   Zn10  S    
C116  H63   S    
C27   C149  S    
C5    H53   S    
C15   C180  S    
C106  H80   S    
C125  H74   S    
C35   C99   S    
C125  C130  A    
C42   C47   A    
C92   H67   S    
C44   H61   S    
C155  N3    A    
C74   C75   S    
C56   H98   S    
C36   C40   A    
C101  H76   S    
C76   C77   S    
C84   O50   D    
C76   H20   S    
C124  O21   A    
C70   C178  S    
C39   C43   A    
C63   H114  S    
C53   H82   S    
C146  C151  A    
C67   C69   S    
C9    C80   S    
C163  C167  S    
C142  H37   S    
C144  C149  A    
O60   Zn12  S    
C25   C98   S    
C176  C180  S    
C67   C146  S    
C54   H91   S    
C55   H90   S    
C3    C76   S    
C157  C175  S    
C93   O10   A    
C158  C176  S    
C23   C97   S    
C65   C66   S    
C86   O52   D    
C80   O46   D    
C129  C133  A    
C35   C117  S    
C93   C118  S    
C65   C145  S    
O10   Zn9   S    
C21   O5    A    
C72   H9    S    
O7    Zn4   S    
C106  C110  S    
O13   Zn11  S    
C46   C100  S    
C162  H39   S    
C98   C111  S    
C28   O33   A    
C145  C150  A    
C67   H124  S    
C66   H117  S    
C102  H77   S    
N12   N13   A    
C75   H12   S    
C3    C177  S    
C62   H105  S    
C121  C126  S    
C99   H73   S    
C163  H40   S    
C97   C110  S    
C170  N9    A    
C61   H109  S    
C51   C159  A    
C11   C164  S    
C13   N14   A    
C9    C162  S    
C1    O1    A    
C27   O32   A    
C153  N6    A    
C113  C118  S    
C164  H42   S    
C70   H3    S    
O11   Zn10  S    
C74   C180  S    
C20   O59   A    
C105  H79   S    
C115  C120  S    
C17   O40   A    
C115  O34   A    
C72   C179  S    
C6    C167  S    
C92   C114  S    
C82   H25   S    
C97   C101  S    
C85   H28   S    
C167  C176  S    
