data_mof_unit_43560.cif
_audit_creation_date              2012-12-10T20:48:19-0500
_audit_creation_method            fapswitch 2.2
_symmetry_space_group_name_H-M    P1
_symmetry_Int_Tables_number       1
_space_group_crystal_system       triclinic
_cell_length_a                    10.816672
_cell_length_b                    8.901939
_cell_length_c                    8.234294
_cell_angle_alpha                 90.000045
_cell_angle_beta                  90.987342
_cell_angle_gamma                 90.000011
_cell_volume                      792.757131621

loop_
_atom_site_label
_atom_site_type_symbol
_atom_type_description
_atom_site_fract_x
_atom_site_fract_y
_atom_site_fract_z
_atom_type_partial_charge
C1    C     C_R   0.500000 0.218575 0.500000 0.897525
C2    C     C_1   0.500000 0.934637 0.500000 -0.204408
C3    C     C_3   0.067155 0.624660 0.473673 -0.512157
C4    C     C_3   0.932845 0.624659 0.526327 -0.512156
C5    C     C_3   0.121979 0.461871 0.495885 0.010794
C6    C     C_3   0.878021 0.461871 0.504115 0.010795
C7    C     C_3   0.115103 0.515020 0.806705 -0.828646
C8    C     C_3   0.134693 0.410828 0.177866 -0.858074
C9    C     C_3   0.865307 0.410828 0.822134 -0.858079
C10   C     C_3   0.884896 0.515017 0.193294 -0.828650
C11   C     C_3   0.144851 0.247886 0.726561 -0.914073
C12   C     C_R   0.258667 0.481899 0.498438 0.889765
C13   C     C_3   0.115763 0.197160 0.347694 -0.921230
C14   C     C_3   0.884237 0.197160 0.652305 -0.921235
C15   C     C_3   0.855149 0.247884 0.273440 -0.914076
C16   C     C_R   0.741333 0.481899 0.501562 0.889764
C17   C     C_R   0.500000 0.781401 0.500000 0.946337
C18   C     C_1   0.500000 0.065399 0.500000 -0.198605
C19   C     C_3   0.075996 0.394749 0.669996 0.405278
C20   C     C_3   0.072497 0.365951 0.341151 0.364229
C21   C     C_3   0.927503 0.365951 0.658848 0.364230
C22   C     C_3   0.924004 0.394748 0.330004 0.405279
H1    H     H_    0.119410 0.715107 0.537142 0.177862
H2    H     H_    0.147201 0.532844 0.159167 0.231450
H3    H     H_    0.772631 0.359656 0.840721 0.266398
H4    H     H_    0.919651 0.360773 0.922143 0.232739
H5    H     H_    0.852798 0.532844 0.840832 0.231450
H6    H     H_    0.805475 0.476030 0.117729 0.258141
H7    H     H_    0.851015 0.623602 0.236807 0.229141
H8    H     H_    0.954466 0.554471 0.110971 0.206273
H9    H     H_    0.131108 0.147787 0.651979 0.230160
H10   H     H_    0.246303 0.262573 0.736672 0.259754
H11   H     H_    0.113019 0.215153 0.848930 0.237331
H12   H     H_    0.070514 0.663837 0.346649 0.207935
H13   H     H_    0.213611 0.189458 0.390300 0.233240
H14   H     H_    0.062584 0.118007 0.415661 0.221330
H15   H     H_    0.111478 0.142446 0.225975 0.242972
H16   H     H_    0.937421 0.118007 0.584347 0.221335
H17   H     H_    0.888515 0.142448 0.774024 0.242970
H18   H     H_    0.786392 0.189456 0.609691 0.233240
H19   H     H_    0.868901 0.147782 0.348015 0.230163
H20   H     H_    0.753697 0.262567 0.263339 0.259753
H21   H     H_    0.886975 0.215156 0.151066 0.237329
H22   H     H_    0.929485 0.663837 0.653350 0.207935
H23   H     H_    0.880589 0.715106 0.462857 0.177862
H24   H     H_    0.194521 0.476031 0.882275 0.258137
H25   H     H_    0.148990 0.623601 0.763191 0.229143
H26   H     H_    0.045531 0.554480 0.889023 0.206272
H27   H     H_    0.227370 0.359656 0.159278 0.266397
H28   H     H_    0.080350 0.360772 0.077855 0.232739
N1    N     N_1   0.500000 0.500030 0.073640 -0.054525
N2    N     N_1   0.500000 0.500030 0.926360 -0.054525
O1    O     O_R   0.500000 0.285340 0.636850 -0.626195
O2    O     O_R   0.500000 0.285340 0.363150 -0.626197
O3    O     O_R   0.314790 0.499970 0.636880 -0.628633
O4    O     O_R   0.314790 0.499970 0.363120 -0.623797
O5    O     O_R   0.685210 0.499970 0.636880 -0.623796
O6    O     O_R   0.685210 0.499970 0.363120 -0.628632
O7    O     O_R   0.500000 0.714650 0.636900 -0.608127
O8    O     O_R   0.500000 0.714650 0.363100 -0.608127
Zn1   Zn    Zn3+2 0.500000 0.499990 0.682780 0.950248
Zn2   Zn    Zn3+2 0.500000 0.499990 0.317220 0.950248

loop_
_geom_bond_atom_site_label_1
_geom_bond_atom_site_label_2
_ccdc_geom_bond_type
N2    Zn1   S    
O6    Zn2   S    
C8    C20   S    
C1    O2    A    
O5    Zn1   S    
C5    C19   S    
C9    H4    S    
C2    C18   T    
C4    H22   S    
C10   H8    S    
C3    H1    S    
C13   C20   S    
C9    H5    S    
C4    H23   S    
C9    C21   S    
C7    H26   S    
C11   H9    S    
C5    C20   S    
C16   O6    A    
C10   C22   S    
C2    C17   S    
C10   H7    S    
C11   C19   S    
C1    C18   S    
C12   O4    A    
N1    Zn2   S    
O1    Zn1   S    
C17   O7    A    
O3    Zn1   S    
C14   C21   S    
C4    C6    S    
C15   H21   S    
C14   H18   S    
C20   C22   S    
C11   H10   S    
C13   H13   S    
C7    C19   S    
C16   O5    A    
O4    Zn2   S    
O7    Zn1   S    
C12   O3    A    
C14   H16   S    
C5    C12   S    
C17   O8    A    
C6    C16   S    
N1    N2    T    
C6    C22   S    
C7    H24   S    
C8    H28   S    
C11   H11   S    
C8    H2    S    
C15   H19   S    
C13   H14   S    
O8    Zn2   S    
C10   H6    S    
C1    O1    A    
O2    Zn2   S    
C3    H12   S    
C19   C21   S    
C14   H17   S    
C9    H3    S    
C6    C21   S    
C13   H15   S    
C8    H27   S    
C15   C22   S    
C3    C4    S    
C15   H20   S    
C3    C5    S    
C7    H25   S    
