data_mof_unit_9390.cif
_audit_creation_date              2012-12-10T20:51:40-0500
_audit_creation_method            fapswitch 2.2
_symmetry_space_group_name_H-M    P1
_symmetry_Int_Tables_number       1
_space_group_crystal_system       triclinic
_cell_length_a                    8.094643
_cell_length_b                    8.935745
_cell_length_c                    16.852818
_cell_angle_alpha                 89.545235
_cell_angle_beta                  93.44276
_cell_angle_gamma                 90.019193
_cell_volume                      1216.75412946

loop_
_atom_site_label
_atom_site_type_symbol
_atom_type_description
_atom_site_fract_x
_atom_site_fract_y
_atom_site_fract_z
_atom_type_partial_charge
C1    C     C_R   0.499962 0.217941 0.500023 0.937742
C2    C     C_R   0.500038 0.782058 0.499976 0.937748
C3    C     C_R   0.519668 0.493717 0.653818 0.944706
C4    C     C_R   0.480332 0.506279 0.346182 0.944710
C5    C     C_R   0.524399 0.476534 0.739908 -0.200945
C6    C     C_R   0.475599 0.523433 0.260090 -0.200943
C7    C     C_R   0.383508 0.521699 0.777707 -0.274344
C8    C     C_R   0.616481 0.478238 0.222294 -0.274354
C9    C     C_R   0.372364 0.499179 0.858305 -0.077588
C10   C     C_R   0.627620 0.500724 0.141693 -0.077579
C11   C     C_R   0.507432 0.436469 0.903316 0.148370
C12   C     C_R   0.492555 0.563431 0.096678 0.148367
C13   C     C_R   0.643846 0.380297 0.865442 0.340475
C14   C     C_R   0.356148 0.619627 0.134548 0.340474
C15   C     C_R   0.654439 0.401786 0.783502 0.307440
C16   C     C_R   0.345563 0.598174 0.216491 0.307442
C17   C     C_1   0.499965 0.065175 0.500011 -0.145757
C18   C     C_1   0.500035 0.934825 0.499989 -0.145758
H1    H     H_    0.720173 0.426716 0.256011 0.206034
H2    H     H_    0.279813 0.573225 0.743994 0.206041
N1    N     N_1   0.073640 0.500030 0.499990 0.001027
N2    N     N_1   0.926360 0.499970 0.500010 0.001028
N3    N     N_2   0.512116 0.436188 0.986794 -0.120182
N4    N     N_2   0.487876 0.563706 0.013200 -0.120184
O1    O     O_R   0.636850 0.285340 0.500000 -0.606492
O2    O     O_R   0.363150 0.714660 0.500000 -0.606492
O3    O     O_R   0.363100 0.285350 0.500000 -0.615736
O4    O     O_R   0.636900 0.714650 0.500000 -0.615734
O5    O     O_R   0.652140 0.498630 0.616140 -0.571682
O6    O     O_R   0.347860 0.501370 0.383860 -0.571689
O7    O     O_R   0.378390 0.498650 0.616130 -0.628382
O8    O     O_R   0.621610 0.501350 0.383870 -0.628382
Zn1   Zn    Zn3+2 0.682780 0.499990 0.500010 1.055673
Zn2   Zn    Zn3+2 0.317220 0.500010 0.499990 1.055671
C19   C     C_1   0.782088 0.465606 0.107496 0.374816
N5    N     N_1   0.907271 0.438191 0.081246 -0.066585
C20   C     C_1   0.217890 0.534271 0.892504 0.374842
N6    N     N_1   0.092703 0.561666 0.918755 -0.066570
Cl1   Cl    Cl    0.800294 0.281154 0.920974 -0.489040
Cl2   Cl    Cl    0.199702 0.718758 0.079009 -0.489039
Cl3   Cl    Cl    0.826846 0.328386 0.737004 -0.519581
Cl4   Cl    Cl    0.173170 0.671610 0.262985 -0.519567

loop_
_geom_bond_atom_site_label_1
_geom_bond_atom_site_label_2
_ccdc_geom_bond_type
C3    O7    A    
N3    N4    D    
C7    C9    A    
C20   N6    T    
C16   Cl4   S    
C2    C18   S    
C11   C13   A    
C12   N4    S    
C1    C17   S    
C19   N5    T    
O8    Zn1   S    
C9    C20   S    
C17   C18   T    
O7    Zn2   S    
C2    O2    A    
N1    N2    T    
C1    O1    A    
C9    C11   A    
C4    O8    A    
C10   C12   A    
C8    C10   A    
C12   C14   A    
O4    Zn1   S    
C7    H2    S    
C5    C7    A    
C13   C15   A    
O3    Zn2   S    
C10   C19   S    
C14   C16   A    
C13   Cl1   S    
C8    H1    S    
C5    C15   A    
O6    Zn2   S    
C6    C16   A    
O5    Zn1   S    
C15   Cl3   S    
C3    O5    A    
C4    C6    S    
C11   N3    S    
C1    O3    A    
N2    Zn1   S    
C2    O4    A    
C6    C8    A    
N1    Zn2   S    
C14   Cl2   S    
O2    Zn2   S    
C4    O6    A    
O1    Zn1   S    
C3    C5    S    
