data_mof_unit_23395.cif
_audit_creation_date              2012-12-10T17:02:28-0500
_audit_creation_method            fapswitch 2.2
_symmetry_space_group_name_H-M    P1
_symmetry_Int_Tables_number       1
_space_group_crystal_system       triclinic
_cell_length_a                    10.710015
_cell_length_b                    11.060587
_cell_length_c                    9.861186
_cell_angle_alpha                 112.12151
_cell_angle_beta                  96.612531
_cell_angle_gamma                 91.80553
_cell_volume                      1071.39352928

loop_
_atom_site_label
_atom_site_type_symbol
_atom_type_description
_atom_site_fract_x
_atom_site_fract_y
_atom_site_fract_z
_atom_type_partial_charge
C1    C     C_R   0.491504 0.253719 0.439823 0.874419
C2    C     C_R   0.508496 0.746280 0.560177 0.874418
C3    C     C_2   0.487335 0.113361 0.405959 -0.292860
C4    C     C_2   0.512665 0.886639 0.594041 -0.292860
C5    C     C_2   0.501792 0.069805 0.515851 -0.123551
C6    C     C_2   0.498208 0.930195 0.484149 -0.123551
C7    C     C_2   0.498170 0.519022 0.081553 -0.086284
C8    C     C_2   0.501830 0.480978 0.918447 -0.086284
C9    C     C_R   0.261370 0.482509 0.498501 0.808235
C10   C     C_R   0.738630 0.517490 0.501499 0.808235
C11   C     C_R   0.127720 0.504864 0.765598 -0.021330
C12   C     C_R   0.872280 0.495136 0.234402 -0.021330
C13   C     C_R   0.095913 0.589561 0.902215 -0.074669
C14   C     C_R   0.904087 0.410440 0.097785 -0.074669
C15   C     C_R   0.004524 0.678929 0.904744 -0.075183
C16   C     C_R   0.995476 0.321072 0.095256 -0.075183
C17   C     C_R   0.932828 0.669132 0.771222 -0.032920
C18   C     C_R   0.067172 0.330868 0.228778 -0.032921
C19   C     C_R   0.958920 0.574928 0.635398 0.027426
C20   C     C_R   0.041080 0.425072 0.364602 0.027426
C21   C     C_R   0.072609 0.514857 0.633748 0.017331
C22   C     C_R   0.927391 0.485144 0.366252 0.017331
C23   C     C_R   0.876925 0.539664 0.501053 -0.184170
C24   C     C_R   0.123075 0.460336 0.498947 -0.184170
Cu1   Cu    Cu3+1 0.521920 0.521810 0.644910 0.988030
Cu2   Cu    Cu3+1 0.478080 0.478190 0.355090 0.988030
N1    N     N_2   0.445130 0.445420 0.137360 -0.232755
N2    N     N_2   0.554870 0.554580 0.862640 -0.232755
O1    O     O_R   0.511700 0.332340 0.577400 -0.581805
O2    O     O_R   0.488300 0.667660 0.422600 -0.581805
O3    O     O_R   0.474680 0.295500 0.332650 -0.576950
O4    O     O_R   0.525320 0.704500 0.667350 -0.576950
O5    O     O_R   0.338170 0.518410 0.622370 -0.582685
O6    O     O_R   0.661830 0.481590 0.377630 -0.582685
O7    O     O_R   0.301150 0.481570 0.377630 -0.552806
O8    O     O_R   0.698850 0.518430 0.622370 -0.552805
C25   C     C_1   0.018085 0.222138 0.955911 0.277597
N3    N     N_1   0.035736 0.142834 0.844850 -0.224239
C26   C     C_1   0.981915 0.777863 0.044089 0.277598
N4    N     N_1   0.964264 0.857167 0.155150 -0.224239
C27   C     C_1   0.191379 0.388814 0.754645 0.257704
N5    N     N_1   0.238834 0.293376 0.741770 -0.279502
C28   C     C_1   0.808621 0.611186 0.245355 0.257704
N6    N     N_1   0.761166 0.706625 0.258230 -0.279502
C29   C     C_1   0.157401 0.586554 0.039388 0.217368
N7    N     N_1   0.205647 0.585410 0.149951 -0.241016
C30   C     C_1   0.842600 0.413447 0.960613 0.217367
N8    N     N_1   0.794354 0.414592 0.850049 -0.241016
C31   C     C_1   0.846619 0.767762 0.772154 0.273347
N9    N     N_1   0.779367 0.847958 0.773811 -0.269431
C32   C     C_1   0.153380 0.232238 0.227846 0.273347
N10   N     N_1   0.220632 0.152041 0.226189 -0.269431
H1    H     H_    0.483570 0.862481 0.369147 0.187737
H2    H     H_    0.516429 0.137519 0.630853 0.187737
H3    H     H_    0.527603 0.954590 0.708852 0.172048
H4    H     H_    0.472397 0.045410 0.291148 0.172048
H5    H     H_    0.460594 0.386040 0.842367 0.175420
H6    H     H_    0.539407 0.613960 0.157633 0.175420
C33   C     C_1   0.595776 0.683680 0.953591 0.456737
N11   N     N_1   0.629281 0.791291 0.028253 -0.301243
C34   C     C_1   0.404224 0.316320 0.046409 0.456737
N12   N     N_1   0.370718 0.208709 0.971747 -0.301242

loop_
_geom_bond_atom_site_label_1
_geom_bond_atom_site_label_2
_ccdc_geom_bond_type
C19   C23   A    
C28   N6    T    
C9    C24   S    
C11   C27   S    
C25   N3    T    
C8    H5    S    
N1    C34   S    
C3    H4    S    
C5    H2    S    
C7    H6    S    
C2    C4    S    
C30   N8    T    
C16   C25   S    
C2    O2    A    
C3    C5    D    
Cu1   O4    S    
C1    O1    A    
Cu2   O3    S    
C10   O6    A    
C33   N11   T    
C29   N7    T    
Cu1   N2    S    
C9    O5    A    
C11   C13   A    
C15   C26   S    
Cu2   N1    S    
C5    C6    S    
C4    C6    D    
C19   C21   A    
C12   C14   A    
C18   C32   S    
Cu2   O2    S    
C12   C28   S    
C18   C20   A    
C13   C15   A    
C4    H3    S    
Cu1   O1    S    
C34   N12   T    
C8    N2    D    
C14   C16   A    
C21   C24   A    
C7    C8    S    
C20   C22   A    
C6    H1    S    
C11   C21   A    
C32   N10   T    
C12   C22   A    
Cu2   O7    S    
C1    O3    A    
C7    N1    D    
C13   C29   S    
C2    O4    A    
C31   N9    T    
C27   N5    T    
N2    C33   S    
C17   C31   S    
C26   N4    T    
C9    O7    A    
C22   C23   A    
C10   C23   S    
C10   O8    A    
Cu1   O8    S    
C17   C19   A    
Cu1   Cu2   S    
C15   C17   A    
C14   C30   S    
Cu2   O6    S    
C16   C18   A    
C20   C24   A    
Cu1   O5    S    
C1    C3    S    
