data_mof_unit_13083.cif
_audit_creation_date              2012-12-10T17:42:42-0500
_audit_creation_method            fapswitch 2.2
_symmetry_space_group_name_H-M    P1
_symmetry_Int_Tables_number       1
_space_group_crystal_system       triclinic
_cell_length_a                    9.921343
_cell_length_b                    10.57225
_cell_length_c                    13.103275
_cell_angle_alpha                 92.949031
_cell_angle_beta                  71.233334
_cell_angle_gamma                 91.171383
_cell_volume                      1299.61160299

loop_
_atom_site_label
_atom_site_type_symbol
_atom_type_description
_atom_site_fract_x
_atom_site_fract_y
_atom_site_fract_z
_atom_type_partial_charge
C1    C     C_R   0.509849 0.734609 0.476888 0.928686
C2    C     C_R   0.377202 0.448765 0.814659 -0.098355
C3    C     C_R   0.296629 0.862127 0.394925 0.439125
C4    C     C_R   0.422706 0.485738 0.702166 0.887019
C5    C     C_R   0.162046 0.915262 0.416857 -0.319369
C6    C     C_R   0.131544 0.032016 0.471746 0.558585
C7    C     C_R   0.237346 0.099495 0.500350 -0.303736
C8    C     C_R   0.377892 0.051036 0.473390 -0.024155
C9    C     C_R   0.399758 0.924533 0.434277 -0.014637
C10   C     C_R   0.521516 0.863210 0.441261 -0.108295
C11   C     C_R   0.642270 0.932819 0.439434 -0.254290
C12   C     C_R   0.436728 0.411725 0.976368 0.076319
C13   C     C_R   0.630816 0.061450 0.460103 -0.202373
C14   C     C_R   0.498262 0.121072 0.483724 -0.074531
C15   C     C_R   0.802271 0.647735 0.668033 0.483028
C16   C     C_R   0.497740 0.257892 0.499758 0.840989
C17   C     C_R   0.839245 0.678608 0.761567 -0.402495
C18   C     C_R   0.980313 0.675041 0.758482 0.441767
C19   C     C_R   0.080467 0.634746 0.662258 -0.215122
C20   C     C_R   0.041495 0.567280 0.580738 0.057055
C21   C     C_R   0.896546 0.569810 0.581852 0.080389
C22   C     C_R   0.959628 0.434465 0.423140 -0.101297
C23   C     C_R   0.476897 0.407412 0.863174 0.027502
C24   C     C_R   0.102590 0.434815 0.423022 -0.055983
C25   C     C_R   0.578031 0.494628 0.296005 0.855277
C26   C     C_R   0.795128 0.395942 0.011417 -0.215567
C27   C     C_R   0.621974 0.465200 0.180170 -0.053009
C28   C     C_R   0.233326 0.461234 0.876871 -0.203057
C29   C     C_R   0.190153 0.441664 0.986634 -0.175604
C30   C     C_R   0.290346 0.419128 0.036758 -0.152160
C31   C     C_3   0.373249 0.777716 0.221843 0.070753
C32   C     C_3   0.255078 0.743891 0.173342 -0.357663
C33   C     C_3   0.307640 0.755866 0.051528 -0.944859
C34   C     C_R   0.544983 0.414397 0.024805 0.001890
C35   C     C_3   0.659658 0.828887 0.692242 0.075376
C36   C     C_3   0.520859 0.848072 0.785391 -0.350851
C37   C     C_3   0.487263 0.988492 0.812913 -0.960059
C38   C     C_3   0.943507 0.700480 0.944153 0.080668
C39   C     C_3   0.883714 0.820901 0.012054 -0.352188
C40   C     C_3   0.807046 0.791936 0.129609 -0.961784
C41   C     C_3   0.888419 0.209951 0.757218 0.099939
C42   C     C_3   0.973854 0.154041 0.822638 -0.430470
C43   C     C_3   0.019759 0.018629 0.783861 -0.865904
C44   C     C_R   0.688121 0.388222 0.962322 0.077593
C45   C     C_R   0.721530 0.356768 0.851976 0.421611
C46   C     C_R   0.615908 0.365352 0.803389 -0.308302
C47   C     C_R   0.515720 0.455746 0.132032 -0.246738
C48   C     C_R   0.762090 0.433735 0.120130 -0.232586
F1    F     F_    0.999261 0.081198 0.495522 -0.719328
H1    H     H_    0.845082 0.437955 0.157274 0.150704
H2    H     H_    0.409990 0.486069 0.178753 0.166802
H3    H     H_    0.154268 0.487063 0.840913 0.184059
H4    H     H_    0.250660 0.406610 0.122606 0.114917
H5    H     H_    0.079600 0.450256 0.034600 0.123640
H6    H     H_    0.645725 0.338410 0.718510 0.196345
H7    H     H_    0.741578 0.886931 0.433016 0.182067
H8    H     H_    0.467105 0.717846 0.180227 0.158699
H9    H     H_    0.409129 0.877747 0.205059 0.125091
H10   H     H_    0.217927 0.645333 0.192037 0.225558
H11   H     H_    0.163346 0.808465 0.208696 0.213984
H12   H     H_    0.080427 0.865054 0.392494 0.165727
H13   H     H_    0.342802 0.854615 0.032024 0.265737
H14   H     H_    0.220380 0.731930 0.018143 0.278398
H15   H     H_    0.397602 0.690061 0.013419 0.268945
H16   H     H_    0.650177 0.879174 0.623637 0.183865
H17   H     H_    0.750093 0.876513 0.711702 0.119913
H18   H     H_    0.431954 0.801804 0.763023 0.243695
H19   H     H_    0.530103 0.802928 0.857258 0.214937
H20   H     H_    0.569991 0.034774 0.842508 0.256287
H21   H     H_    0.382649 0.999011 0.877246 0.269669
H22   H     H_    0.481972 0.036646 0.740882 0.268845
H23   H     H_    0.202642 0.185364 0.548624 0.205889
H24   H     H_    0.013495 0.653788 0.981637 0.159304
H25   H     H_    0.855416 0.632591 0.947370 0.153331
H26   H     H_    0.972092 0.888475 0.008964 0.237371
H27   H     H_    0.807909 0.866219 0.978671 0.214691
H28   H     H_    0.718739 0.723991 0.134921 0.257223
H29   H     H_    0.762254 0.880548 0.176343 0.271566
H30   H     H_    0.882267 0.750847 0.165907 0.265487
H31   H     H_    0.953700 0.204832 0.670870 0.224702
H32   H     H_    0.791025 0.151613 0.764172 0.124959
H33   H     H_    0.070162 0.213234 0.815499 0.241004
H34   H     H_    0.725465 0.113041 0.462115 0.218114
H35   H     H_    0.907523 0.153863 0.908981 0.220746
H36   H     H_    0.924780 0.957051 0.794700 0.267153
H37   H     H_    0.084459 0.983095 0.831358 0.284072
H38   H     H_    0.085688 0.014161 0.697735 0.268687
H39   H     H_    0.931464 0.380719 0.360386 0.138703
H40   H     H_    0.761306 0.723009 0.831282 0.152864
H41   H     H_    0.188035 0.658842 0.653517 0.228859
H42   H     H_    0.181644 0.381185 0.360107 0.132589
H43   H     H_    0.904607 0.375341 0.965376 0.169933
N1    N     N_R   0.856860 0.501200 0.500990 -0.104583
N2    N     N_R   0.142450 0.501280 0.501020 -0.088234
O1    O     O_R   0.385310 0.683220 0.500000 -0.597590
O2    O     O_3   0.678417 0.697724 0.661019 -0.580789
O3    O     O_3   0.027824 0.732123 0.838767 -0.657312
O4    O     O_3   0.861704 0.339479 0.788049 -0.664025
O5    O     O_R   0.614640 0.683250 0.500010 -0.570359
O6    O     O_R   0.328400 0.499950 0.653610 -0.640252
O7    O     O_R   0.557730 0.499970 0.653620 -0.557718
O8    O     O_R   0.385360 0.316750 0.499990 -0.625789
O9    O     O_R   0.614690 0.316780 0.500000 -0.626755
O10   O     O_R   0.442270 0.500030 0.346380 -0.592370
O11   O     O_R   0.671600 0.500050 0.346390 -0.633065
O12   O     O_3   0.328427 0.750560 0.332469 -0.616510
Zn1   Zn    Zn3+2 0.346880 0.499980 0.499990 0.966990
Zn2   Zn    Zn3+2 0.653120 0.500020 0.500010 0.974424

loop_
_geom_bond_atom_site_label_1
_geom_bond_atom_site_label_2
_ccdc_geom_bond_type
C27   C48   A    
C37   H20   S    
C11   C13   A    
C41   C42   S    
C19   C20   A    
C42   H33   S    
C1    O5    A    
C41   H31   S    
C36   H18   S    
C26   C44   A    
C7    C8    A    
C35   O2    S    
O5    Zn2   S    
C12   C23   A    
C17   H40   S    
C31   H9    S    
C28   C29   A    
C45   O4    S    
N1    Zn2   S    
C38   C39   S    
C29   H5    S    
C35   H16   S    
C26   H43   S    
C18   C19   A    
C35   C36   S    
C8    C9    A    
C46   H6    S    
O9    Zn2   S    
C18   O3    S    
C39   H26   S    
C9    C10   A    
C26   C48   A    
O7    Zn2   S    
C48   H1    S    
C23   C46   A    
C37   H21   S    
C38   O3    S    
O11   Zn2   S    
C3    O12   S    
N2    Zn1   S    
C30   H4    S    
C33   H14   S    
C25   O11   A    
C43   H36   S    
C42   H35   S    
C7    H23   S    
C33   H13   S    
C47   H2    S    
C35   H17   S    
C45   C46   A    
C2    C4    S    
C29   C30   A    
C3    C9    A    
C24   N2    A    
C16   O9    A    
C31   C32   S    
C1    O1    A    
C41   H32   S    
C4    O7    A    
C17   C18   A    
C40   H30   S    
C5    H12   S    
O8    Zn1   S    
C39   H27   S    
O1    Zn1   S    
C16   O8    A    
C22   H39   S    
C4    O6    A    
C22   N1    A    
C22   C24   A    
C42   C43   S    
C32   H11   S    
C12   C34   A    
C24   H42   S    
C15   O2    S    
C44   C45   A    
C38   H25   S    
C27   C47   A    
C15   C17   A    
C34   C44   A    
C20   N2    A    
C36   C37   S    
O6    Zn1   S    
C8    C14   A    
C12   C30   A    
C14   C16   S    
C41   O4    S    
C43   H37   S    
C1    C10   S    
C3    C5    A    
C36   H19   S    
C25   O10   A    
C6    C7    A    
C25   C27   S    
C13   H34   S    
C43   H38   S    
C32   C33   S    
C31   H8    S    
C37   H22   S    
C19   H41   S    
C28   H3    S    
C5    C6    A    
C21   N1    A    
C33   H15   S    
C31   O12   S    
C40   H29   S    
C6    F1    S    
C10   C11   A    
C39   C40   S    
C15   C21   A    
C20   C21   A    
C2    C23   A    
C40   H28   S    
C2    C28   A    
C34   C47   A    
C32   H10   S    
C13   C14   A    
O10   Zn1   S    
C11   H7    S    
C38   H24   S    
