data_mof_unit_44031.cif
_audit_creation_date              2012-12-11T15:09:44-0500
_audit_creation_method            fapswitch 2.2
_symmetry_space_group_name_H-M    P1
_symmetry_Int_Tables_number       1
_space_group_crystal_system       triclinic
_cell_length_a                    20.778572
_cell_length_b                    7.124872
_cell_length_c                    14.077719
_cell_angle_alpha                 89.996421
_cell_angle_beta                  97.820006
_cell_angle_gamma                 90.001536
_cell_volume                      2064.74959798

loop_
_atom_site_label
_atom_site_type_symbol
_atom_type_description
_atom_site_fract_x
_atom_site_fract_y
_atom_site_fract_z
_atom_type_partial_charge
O1    O     O_R   0.447130 0.507140 0.597350 -0.536313
O2    O     O_R   0.552870 0.007140 0.402650 -0.536323
O3    O     O_R   0.578910 0.181280 0.586990 -0.537753
O4    O     O_R   0.421090 0.681280 0.413010 -0.537781
C1    C     C_R   0.604346 0.344679 0.607734 0.727815
C2    C     C_R   0.395653 0.844679 0.392269 0.727780
O5    O     O_R   0.449230 0.177860 0.608640 -0.542292
O6    O     O_R   0.550770 0.677860 0.391360 -0.542291
O7    O     O_R   0.422260 0.000770 0.424450 -0.534339
O8    O     O_R   0.577740 0.500770 0.575550 -0.534339
C3    C     C_R   0.433015 0.346884 0.635224 0.703769
C4    C     C_R   0.566977 0.846894 0.364768 0.703783
O9    O     O_3   0.491310 0.336980 0.439550 -0.374619
O10   O     O_3   0.508690 0.836980 0.560450 -0.374600
V1    V     V_3+5 0.501610 0.064760 0.511210 1.411262
V2    V     V_3+5 0.498390 0.564760 0.488790 1.411226
C5    C     C_R   0.623539 0.024200 0.139760 0.091218
C6    C     C_R   0.376473 0.524195 0.860229 0.091244
H1    H     H_    0.532637 0.018198 0.197678 0.110157
H2    H     H_    0.467380 0.518034 0.802330 0.110152
H3    H     H_    0.716228 0.092574 0.024892 0.134247
H4    H     H_    0.283779 0.592783 0.975060 0.134223
C7    C     C_R   0.606258 0.864112 0.286438 -0.060164
C8    C     C_R   0.393731 0.364095 0.713551 -0.060137
C9    C     C_R   0.920904 0.783185 0.302419 0.050373
C10   C     C_R   0.079108 0.283134 0.697604 0.050422
C11   C     C_R   0.882586 0.761424 0.375395 -0.159185
C12   C     C_R   0.117429 0.261419 0.624628 -0.159251
C13   C     C_R   0.817063 0.816365 0.364475 0.068068
C14   C     C_R   0.182922 0.316627 0.635511 0.068145
C15   C     C_R   0.785385 0.864818 0.270343 0.045215
C16   C     C_R   0.214605 0.365058 0.729633 0.045279
C17   C     C_R   0.825475 0.898649 0.197395 0.024209
C18   C     C_R   0.174520 0.398836 0.802587 0.024198
C19   C     C_R   0.716206 0.884587 0.244930 0.055519
C20   C     C_R   0.283784 0.384766 0.755039 0.055536
C21   C     C_R   0.690821 0.979222 0.158377 0.122583
C22   C     C_R   0.309181 0.479350 0.841596 0.122580
C23   C     C_R   0.732982 0.024871 0.092379 -0.215604
C24   C     C_R   0.267020 0.525069 0.907582 -0.215580
C25   C     C_R   0.797988 0.977414 0.109487 -0.183650
C26   C     C_R   0.202010 0.477634 0.890482 -0.183666
C27   C     C_R   0.671017 0.806984 0.300271 -0.252911
C28   C     C_R   0.328958 0.307093 0.699700 -0.252892
C29   C     C_R   0.583007 0.973512 0.207121 -0.198661
C30   C     C_R   0.416999 0.473437 0.792876 -0.198717
C31   C     C_R   0.892604 0.854610 0.213157 -0.106081
C32   C     C_R   0.107398 0.354672 0.786846 -0.106128
H5    H     H_    0.685653 0.708232 0.357195 0.120273
H6    H     H_    0.314294 0.208390 0.642762 0.120263
H7    H     H_    0.905942 0.708932 0.443364 0.122312
H8    H     H_    0.094098 0.208773 0.556679 0.122250
H9    H     H_    0.826875 0.008857 0.053115 0.130599
H10   H     H_    0.173124 0.509085 0.946852 0.130625
C33   C     C_1   0.167195 0.857612 0.166771 -0.204986
C34   C     C_1   0.832813 0.357622 0.833208 -0.204891
C35   C     C_1   0.219775 0.856225 0.217494 -0.002518
C36   C     C_1   0.780232 0.356237 0.782489 -0.002438
C37   C     C_1   0.281451 0.855103 0.277692 -0.003510
C38   C     C_1   0.718550 0.355117 0.722304 -0.003591
C39   C     C_1   0.333598 0.852083 0.329506 -0.209900
C40   C     C_1   0.666401 0.352089 0.670496 -0.210026
O11   O     O_R   0.922300 0.202240 0.924350 -0.537346
O12   O     O_R   0.077700 0.702240 0.075650 -0.537320
O13   O     O_R   0.050780 0.535130 0.891350 -0.540763
O14   O     O_R   0.949220 0.035130 0.108650 -0.540744
C41   C     C_R   0.067967 0.367711 0.865806 0.694988
C42   C     C_R   0.932042 0.867696 0.134204 0.695083
O15   O     O_R   0.921100 0.531560 0.912990 -0.534893
O16   O     O_R   0.078900 0.031560 0.087010 -0.534928
O17   O     O_R   0.947120 0.708470 0.097370 -0.539873
O18   O     O_R   0.052880 0.208470 0.902630 -0.539861
C43   C     C_R   0.895664 0.363627 0.893994 0.714600
C44   C     C_R   0.104340 0.863625 0.105994 0.714557
O19   O     O_3   0.008710 0.375800 0.060400 -0.373793
O20   O     O_3   0.991290 0.875800 0.939600 -0.373806
V3    V     V_3+5 0.998380 0.648080 0.988790 1.412814
V4    V     V_3+5 0.001620 0.148080 0.011210 1.412780
C45   C     C_3   0.593531 0.132760 0.051975 -0.370431
C46   C     C_3   0.579054 0.003197 0.964612 -0.311190
C47   C     C_3   0.545711 0.109650 0.877407 -0.762214
H11   H     H_    0.498479 0.167211 0.892485 0.226885
H12   H     H_    0.577036 0.226386 0.858407 0.223798
H13   H     H_    0.536446 0.012806 0.815239 0.222323
H14   H     H_    0.624586 0.939782 0.946270 0.197089
H15   H     H_    0.546775 0.887447 0.981805 0.192040
H16   H     H_    0.547224 0.198295 0.066027 0.173544
H17   H     H_    0.625278 0.251444 0.036892 0.172420
C48   C     C_3   0.406502 0.632681 0.948021 -0.370436
C49   C     C_3   0.420925 0.503095 0.035394 -0.311170
C50   C     C_3   0.454392 0.609410 0.122555 -0.762241
H18   H     H_    0.501679 0.666524 0.107437 0.226889
H19   H     H_    0.423191 0.726458 0.141530 0.223784
H20   H     H_    0.463569 0.512602 0.184756 0.222316
H21   H     H_    0.375358 0.439990 0.053797 0.197081
H22   H     H_    0.453106 0.387123 0.018182 0.192045
H23   H     H_    0.452833 0.698092 0.933980 0.173533
H24   H     H_    0.374789 0.751449 0.963092 0.172385
C51   C     C_3   0.993292 0.744398 0.325680 -0.341558
C52   C     C_3   0.026664 0.892345 0.395715 -0.325416
C53   C     C_3   0.096277 0.930981 0.377663 -0.780208
H25   H     H_    0.122152 0.798294 0.367576 0.237955
H26   H     H_    0.095901 0.018773 0.312425 0.232983
H27   H     H_    0.123214 0.006688 0.439350 0.216822
H28   H     H_    0.999653 0.027624 0.388645 0.198925
H29   H     H_    0.027060 0.841806 0.470537 0.181538
H30   H     H_    0.000672 0.602504 0.358310 0.151706
H31   H     H_    0.017381 0.740142 0.260172 0.179378
C54   C     C_3   0.006733 0.244050 0.674382 -0.341465
C55   C     C_3   0.973311 0.391374 0.604016 -0.325561
C56   C     C_3   0.903642 0.429827 0.621861 -0.780356
H32   H     H_    0.877900 0.297136 0.632452 0.238070
H33   H     H_    0.903894 0.518510 0.686763 0.232898
H34   H     H_    0.876647 0.504483 0.559851 0.216821
H35   H     H_    0.000234 0.526812 0.610867 0.198906
H36   H     H_    0.973011 0.340314 0.529306 0.181520
H37   H     H_    0.999423 0.101891 0.642052 0.151776
H38   H     H_    0.982619 0.240297 0.739872 0.179371
C57   C     C_3   0.785835 0.836861 0.456161 -0.380653
C58   C     C_3   0.828741 0.936796 0.538717 -0.329545
C59   C     C_3   0.793244 0.953295 0.626444 -0.752436
H39   H     H_    0.748529 0.038681 0.609073 0.234522
H40   H     H_    0.779880 0.811833 0.650660 0.235558
H41   H     H_    0.825359 0.021089 0.686077 0.220103
H42   H     H_    0.874401 0.859201 0.561693 0.195204
H43   H     H_    0.841297 0.078889 0.514531 0.207260
H44   H     H_    0.741783 0.925551 0.442995 0.189021
H45   H     H_    0.772892 0.695035 0.480529 0.173961
C60   C     C_3   0.214097 0.337301 0.543790 -0.380730
C61   C     C_3   0.171235 0.438059 0.461467 -0.329204
C62   C     C_3   0.206450 0.453284 0.373402 -0.752512
H46   H     H_    0.251498 0.537361 0.390429 0.234577
H47   H     H_    0.219211 0.311366 0.349064 0.235502
H48   H     H_    0.174388 0.521878 0.313974 0.220127
H49   H     H_    0.125268 0.361700 0.438853 0.195117
H50   H     H_    0.159227 0.580583 0.485712 0.207024
H51   H     H_    0.258258 0.425532 0.556936 0.188820
H52   H     H_    0.226854 0.195464 0.519219 0.174049

loop_
_geom_bond_atom_site_label_1
_geom_bond_atom_site_label_2
_ccdc_geom_bond_type
O14   C42   A    
C53   H25   S    
C7    C29   A    
C11   C13   A    
O12   V3    S    
O15   V3    S    
C56   H32   S    
O1    C3    A    
C62   H48   S    
O2    C4    A    
C2    O7    A    
C45   H16   S    
C47   H11   S    
C54   H37   S    
C49   H21   S    
C23   C25   A    
O5    C3    A    
C51   H31   S    
C13   C57   S    
C4    C7    S    
C52   H28   S    
C16   C20   A    
C2    C39   S    
C19   C21   A    
O20   V4    S    
C58   H43   S    
C35   C37   S    
O16   V4    S    
C36   C38   S    
C3    C8    S    
C5    C45   S    
C7    C27   A    
C38   C40   T    
C41   O18   A    
C55   C56   S    
C59   H41   S    
C46   H15   S    
C33   C44   S    
C9    C51   S    
C60   H52   S    
C61   H49   S    
O13   C41   A    
C18   C26   A    
O16   C44   A    
O18   V4    S    
C15   C17   A    
O15   C43   A    
C19   C27   A    
C9    C31   A    
C10   C32   A    
C57   H45   S    
O5    V1    S    
O6    V2    S    
C22   C24   A    
C6    C30   A    
C45   H17   S    
C47   H12   S    
C11   H7    S    
C54   H38   S    
O14   V4    S    
C37   C39   T    
O13   V3    S    
O20   V3    S    
O4    C2    A    
C50   H18   S    
C58   H42   S    
C27   H5    S    
O11   C43   A    
C62   H47   S    
C48   H23   S    
C16   C18   A    
O4    V2    S    
C46   H14   S    
C50   H19   S    
C24   C26   A    
C51   C52   S    
H3    C23   S    
O6    C4    A    
H4    C24   S    
C56   H33   S    
O1    V2    S    
C5    C21   A    
O2    V1    S    
O19   V3    S    
C10   C54   S    
C25   H9    S    
C59   H39   S    
C53   H27   S    
C33   C35   T    
C17   C31   A    
C15   C19   A    
C20   C28   A    
C18   C32   A    
C62   H46   S    
C55   H36   S    
C31   C42   S    
O17   V3    S    
C47   H13   S    
O3    V1    S    
C58   C59   S    
C60   C61   S    
C53   H26   S    
C28   H6    S    
C34   C43   S    
C6    C48   S    
C52   H29   S    
C61   H50   S    
C5    C29   A    
C46   C47   S    
O3    C1    A    
C57   C58   S    
H1    C29   S    
C49   H22   S    
C9    C11   A    
C14   C60   S    
C51   H30   S    
C10   C12   A    
C48   H24   S    
C8    C30   A    
C12   C14   A    
C61   C62   S    
C6    C22   A    
C17   C25   A    
C1    O8    A    
C13   C15   A    
O8    V2    S    
C54   C55   S    
C26   H10   S    
C50   H20   S    
C14   C16   A    
C12   H8    S    
C49   C50   S    
C42   O17   A    
C8    C28   A    
C20   C22   A    
C52   C53   S    
C34   C36   T    
C1    C40   S    
C56   H34   S    
C32   C41   S    
O7    V1    S    
O19   V4    S    
C59   H40   S    
C45   C46   S    
C60   H51   S    
C21   C23   A    
O9    V2    S    
O12   C44   A    
O10   V1    S    
C48   C49   S    
C55   H35   S    
H2    C30   S    
O11   V4    S    
C57   H44   S    
