data_mof_unit_31519.cif
_audit_creation_date              2012-12-10T18:47:43-0500
_audit_creation_method            fapswitch 2.2
_symmetry_space_group_name_H-M    P1
_symmetry_Int_Tables_number       1
_space_group_crystal_system       triclinic
_cell_length_a                    9.877518
_cell_length_b                    10.693445
_cell_length_c                    15.582111
_cell_angle_alpha                 90.004648
_cell_angle_beta                  67.788778
_cell_angle_gamma                 90.69032
_cell_volume                      1523.59919547

loop_
_atom_site_label
_atom_site_type_symbol
_atom_type_description
_atom_site_fract_x
_atom_site_fract_y
_atom_site_fract_z
_atom_type_partial_charge
C1    C     C_R   0.500281 0.739721 0.499857 0.980036
C2    C     C_R   0.499719 0.260279 0.500143 0.980035
C3    C     C_R   0.336649 0.448586 0.100635 -0.136974
C4    C     C_R   0.663350 0.551412 0.899366 -0.136976
C5    C     C_R   0.240885 0.412762 0.058890 0.307569
C6    C     C_R   0.759113 0.587237 0.941110 0.307570
C7    C     C_R   0.583611 0.936425 0.418623 0.222150
C8    C     C_R   0.416389 0.063574 0.581377 0.222150
C9    C     C_R   0.588594 0.065829 0.419660 0.125131
C10   C     C_R   0.411406 0.934170 0.580340 0.125131
C11   C     C_R   0.500764 0.127856 0.500224 -0.255482
C12   C     C_R   0.499236 0.872143 0.499776 -0.255482
C13   C     C_R   0.961886 0.423749 0.441721 -0.009193
C14   C     C_R   0.038114 0.576252 0.558279 -0.009192
C15   C     C_R   0.105389 0.423626 0.441875 -0.024999
C16   C     C_R   0.894611 0.576374 0.558125 -0.024999
C17   C     C_R   0.407659 0.500478 0.675954 0.963109
C18   C     C_R   0.592341 0.499521 0.324046 0.963109
C19   C     C_R   0.346949 0.495494 0.777416 -0.169703
C20   C     C_R   0.653051 0.504506 0.222585 -0.169701
C21   C     C_R   0.177574 0.409481 0.922235 -0.155275
C22   C     C_R   0.822425 0.590518 0.077765 -0.155276
C23   C     C_R   0.213682 0.433285 0.828452 0.309162
C24   C     C_R   0.786317 0.566714 0.171548 0.309162
C25   C     C_R   0.432298 0.544741 0.823666 0.170387
C26   C     C_R   0.567702 0.455258 0.176335 0.170385
C27   C     C_R   0.410894 0.500266 0.913051 0.023375
C28   C     C_R   0.589105 0.499732 0.086950 0.023375
C29   C     C_R   0.276307 0.438706 0.964754 -0.015758
C30   C     C_R   0.723691 0.561293 0.035246 -0.015756
C31   C     C_R   0.518505 0.514233 0.952544 0.041207
C32   C     C_R   0.481494 0.485766 0.047457 0.041208
H1    H     H_    0.073037 0.365194 0.960544 0.220113
H2    H     H_    0.926962 0.634805 0.039457 0.220113
H3    H     H_    0.295750 0.445080 0.175246 0.202617
H4    H     H_    0.704249 0.554917 0.824755 0.202618
H5    H     H_    0.934787 0.362785 0.394975 0.173346
H6    H     H_    0.065212 0.637215 0.605024 0.173346
H7    H     H_    0.186235 0.362178 0.395504 0.177953
H8    H     H_    0.813765 0.637822 0.604495 0.177953
N1    N     N_R   0.142780 0.500030 0.500020 -0.094014
N2    N     N_R   0.857220 0.499970 0.499980 -0.094013
O1    O     O_R   0.385370 0.683250 0.500010 -0.615063
O2    O     O_R   0.614630 0.316750 0.499990 -0.615063
O3    O     O_R   0.614700 0.683220 0.500000 -0.586369
O4    O     O_R   0.385300 0.316780 0.500000 -0.586369
O5    O     O_R   0.319830 0.500020 0.632250 -0.574914
O6    O     O_R   0.680170 0.499980 0.367750 -0.574914
O7    O     O_R   0.549160 0.499990 0.632240 -0.605528
O8    O     O_R   0.450840 0.500010 0.367760 -0.605529
Zn1   Zn    Zn3+2 0.346870 0.500020 0.500000 1.039848
Zn2   Zn    Zn3+2 0.653130 0.499980 0.500000 1.039848
Br1   Br    Br    0.066606 0.323639 0.134012 -0.413832
Br2   Br    Br    0.933391 0.676361 0.865989 -0.413831
Br3   Br    Br    0.461918 0.300032 0.224566 -0.447889
Br4   Br    Br    0.538083 0.699967 0.775434 -0.447889
Br5   Br    Br    0.928341 0.617786 0.222431 -0.384420
Br6   Br    Br    0.071658 0.382214 0.777569 -0.384420
Br7   Br    Br    0.677341 0.848487 0.304312 -0.373205
Br8   Br    Br    0.322655 0.151513 0.695687 -0.373205
I1    I     I_    0.734925 0.165953 0.301995 -0.093387
I2    I     I_    0.265077 0.834046 0.698005 -0.093387

loop_
_geom_bond_atom_site_label_1
_geom_bond_atom_site_label_2
_ccdc_geom_bond_type
C23   Br6   S    
C19   C23   A    
C4    H4    S    
C21   C29   A    
C14   C16   A    
N1    Zn1   S    
C25   C27   A    
C26   C28   A    
C31   C32   A    
C25   Br4   S    
C3    H3    S    
O7    Zn2   S    
C1    O3    A    
C26   Br3   S    
O2    Zn2   S    
C28   C30   A    
O8    Zn1   S    
C5    Br1   S    
C8    Br8   S    
C9    C11   A    
C15   H7    S    
C10   I2    S    
C1    C12   S    
C20   C26   A    
O1    Zn1   S    
C8    C11   A    
C9    I1    S    
C2    C11   S    
C10   C12   A    
C15   N1    A    
C7    Br7   S    
C13   N2    A    
C17   C19   S    
C6    Br2   S    
O6    Zn2   S    
C18   C20   S    
C13   C15   A    
C21   C23   A    
C3    C32   A    
C22   H2    S    
C14   N1    A    
C22   C24   A    
C7    C12   A    
C4    C31   A    
C27   C29   A    
C19   C25   A    
C27   C31   A    
C14   H6    S    
C5    C29   A    
C16   N2    A    
C16   H8    S    
C28   C32   A    
C21   H1    S    
C2    O2    A    
C18   O8    A    
C4    C6    A    
C17   O7    A    
C7    C9    A    
C20   C24   A    
O5    Zn1   S    
C22   C30   A    
O3    Zn2   S    
C6    C30   A    
C13   H5    S    
O4    Zn1   S    
C1    O1    A    
C8    C10   A    
C2    O4    A    
C17   O5    A    
N2    Zn2   S    
C24   Br5   S    
C3    C5    A    
C18   O6    A    
