data_mof_unit_59265.cif
_audit_creation_date              2012-12-10T16:48:10-0500
_audit_creation_method            fapswitch 2.2
_symmetry_space_group_name_H-M    P1
_symmetry_Int_Tables_number       1
_space_group_crystal_system       triclinic
_cell_length_a                    15.831544
_cell_length_b                    8.747116
_cell_length_c                    7.449504
_cell_angle_alpha                 103.027341
_cell_angle_beta                  94.161197
_cell_angle_gamma                 92.411491
_cell_volume                      1000.59539167

loop_
_atom_site_label
_atom_site_type_symbol
_atom_type_description
_atom_site_fract_x
_atom_site_fract_y
_atom_site_fract_z
_atom_type_partial_charge
C1    C     C_R   0.493181 0.200116 0.453827 0.806227
C2    C     C_R   0.498777 0.799362 0.546553 0.799396
C3    C     C_R   0.339961 0.499901 0.502286 0.772015
C4    C     C_R   0.660062 0.500254 0.497743 0.823151
C5    C     C_2   0.482523 0.032445 0.427432 0.175871
C6    C     C_2   0.490741 0.965699 0.573987 0.180574
C7    C     C_3   0.973008 0.413093 0.609065 0.607638
C8    C     C_3   0.027201 0.588450 0.391347 0.601615
C9    C     C_3   0.022636 0.351072 0.439540 -0.310221
C10   C     C_3   0.977552 0.650483 0.560864 -0.309464
C11   C     C_1   0.250469 0.500340 0.506746 -0.179448
C12   C     C_1   0.749622 0.500384 0.493410 -0.148623
C13   C     C_3   0.034243 0.560121 0.675920 -0.318541
C14   C     C_3   0.965957 0.441432 0.324483 -0.309618
C15   C     C_3   0.083160 0.499813 0.504354 0.061074
C16   C     C_3   0.917015 0.501714 0.496057 0.058578
C17   C     C_1   0.174890 0.500277 0.506844 -0.003045
C18   C     C_1   0.825242 0.500913 0.493458 0.015107
Cu1   Cu    Cu3+1 0.509330 0.517380 0.684380 0.997020
Cu2   Cu    Cu3+1 0.490670 0.482620 0.315620 0.983030
H1    H     H_    0.042419 0.229242 0.392302 0.151690
H2    H     H_    0.957790 0.772324 0.608116 0.156059
H3    H     H_    0.936312 0.395179 0.181846 0.174460
H4    H     H_    0.063918 0.606406 0.818527 0.169605
H5    H     H_    0.430820 0.385330 0.949858 0.222174
H6    H     H_    0.567867 0.618055 0.050569 0.244580
N1    N     N_2   0.476600 0.456420 0.038510 -0.199770
N2    N     N_2   0.523400 0.543580 0.961490 -0.187495
O1    O     O_R   0.506070 0.286130 0.619780 -0.554583
O2    O     O_R   0.493930 0.713870 0.380220 -0.562950
O3    O     O_R   0.490300 0.256770 0.308360 -0.556426
O4    O     O_R   0.509700 0.743230 0.691640 -0.546885
O5    O     O_R   0.386960 0.514660 0.655680 -0.601105
O6    O     O_R   0.613040 0.485340 0.344320 -0.579250
O7    O     O_R   0.371190 0.485310 0.344260 -0.588164
O8    O     O_R   0.628810 0.514690 0.655740 -0.567569
O9    O     O_3   0.937929 0.321410 0.721796 -0.573301
C19   C     C_3   0.003810 0.257139 0.813008 -0.347811
H7    H     H_    0.045078 0.350891 0.909477 0.176846
H8    H     H_    0.042172 0.181590 0.713089 0.161344
H9    H     H_    0.975246 0.181606 0.896636 0.189824
O10   O     O_3   0.062428 0.680012 0.278658 -0.585853
C20   C     C_3   0.996686 0.744871 0.187790 -0.351940
H10   H     H_    0.958694 0.821018 0.287978 0.169981
H11   H     H_    0.955054 0.651451 0.091716 0.183489
H12   H     H_    0.025380 0.819939 0.103788 0.185007
O11   O     O_3   0.466522 0.944184 0.247407 -0.548691
C21   C     C_3   0.377795 0.915416 0.209942 -0.270419
H13   H     H_    0.345989 0.026576 0.210686 0.125310
H14   H     H_    0.349798 0.854329 0.309659 0.145698
H15   H     H_    0.364636 0.836860 0.070522 0.193972
O12   O     O_3   0.492976 0.052679 0.754763 -0.537051
C22   C     C_3   0.409155 0.055167 0.807852 -0.255190
H16   H     H_    0.379832 0.934534 0.792718 0.140643
H17   H     H_    0.368914 0.121620 0.727085 0.109616
H18   H     H_    0.410639 0.115727 0.955617 0.211818

loop_
_geom_bond_atom_site_label_1
_geom_bond_atom_site_label_2
_ccdc_geom_bond_type
C14   H3    S    
C9    C14   S    
C4    O8    A    
Cu2   O2    S    
C15   C17   S    
O9    C19   S    
Cu2   N1    S    
C4    C12   S    
C20   H11   S    
C22   H17   S    
H6    N2    S    
O11   C21   S    
C3    O7    A    
C20   H10   S    
Cu2   O6    S    
C1    O1    A    
C7    O9    S    
C10   C16   S    
C22   H16   S    
C10   H2    S    
C19   H8    S    
Cu1   N2    S    
C5    O11   S    
C9    H1    S    
C2    C6    S    
C1    C5    S    
Cu1   O4    S    
C16   C18   S    
C21   H13   S    
C8    O10   S    
C21   H14   S    
C8    C15   S    
C4    O6    A    
Cu1   O8    S    
C13   C15   S    
C1    O3    A    
C9    C15   S    
C5    C6    D    
Cu2   O3    S    
C20   H12   S    
C14   C16   S    
C21   H15   S    
C3    C11   S    
O10   C20   S    
C3    O5    A    
Cu1   O1    S    
C7    C13   S    
C2    O2    A    
O12   C22   S    
C19   H9    S    
C2    O4    A    
Cu1   O5    S    
C22   H18   S    
C12   C18   T    
N1    N2    D    
C7    C9    S    
C11   C17   T    
C8    C14   S    
C6    O12   S    
Cu2   O7    S    
C10   C13   S    
C8    C10   S    
C7    C16   S    
Cu1   Cu2   S    
C13   H4    S    
H5    N1    S    
C19   H7    S    
