data_mof_unit_29633.cif
_audit_creation_date              2012-12-10T18:23:10-0500
_audit_creation_method            fapswitch 2.2
_symmetry_space_group_name_H-M    P1
_symmetry_Int_Tables_number       1
_space_group_crystal_system       triclinic
_cell_length_a                    15.052881
_cell_length_b                    14.000393
_cell_length_c                    10.616766
_cell_angle_alpha                 87.999619
_cell_angle_beta                  91.949367
_cell_angle_gamma                 89.044241
_cell_volume                      2234.42842847

loop_
_atom_site_label
_atom_site_type_symbol
_atom_type_description
_atom_site_fract_x
_atom_site_fract_y
_atom_site_fract_z
_atom_type_partial_charge
C1    C     C_R   0.326472 0.501249 0.491608 0.964436
C2    C     C_R   0.943509 0.665515 0.432984 -0.186748
C3    C     C_R   0.569853 0.798225 0.451120 0.050005
C4    C     C_R   0.430000 0.201772 0.548449 0.059266
C5    C     C_R   0.430267 0.798198 0.548814 0.115535
C6    C     C_R   0.569704 0.201806 0.451090 0.067482
C7    C     C_R   0.428548 0.898785 0.550098 -0.007417
C8    C     C_R   0.571363 0.101222 0.449621 -0.003623
C9    C     C_R   0.571494 0.898879 0.449741 0.008868
C10   C     C_R   0.428362 0.101124 0.549816 0.009703
C11   C     C_R   0.499993 0.949406 0.499898 0.086131
C12   C     C_R   0.673470 0.498710 0.509030 0.966466
C13   C     C_R   0.499899 0.050598 0.499759 0.094008
C14   C     C_R   0.357383 0.949693 0.599992 -0.112727
C15   C     C_R   0.642482 0.050317 0.399601 -0.117427
C16   C     C_R   0.642530 0.949962 0.399607 -0.150637
C17   C     C_R   0.357296 0.050048 0.599872 -0.152276
C18   C     C_R   0.497731 0.501860 0.257309 1.053454
C19   C     C_R   0.502533 0.498117 0.742717 1.046451
C20   C     C_3   0.491151 0.592308 0.029461 0.294714
C21   C     C_3   0.509673 0.407448 0.970701 0.229787
C22   C     C_3   0.569402 0.549782 0.958748 0.270878
C23   C     C_R   0.953777 0.499248 0.507890 0.041168
C24   C     C_3   0.431246 0.450059 0.041259 0.251653
C25   C     C_3   0.424941 0.536664 0.947458 0.268253
C26   C     C_3   0.575909 0.463270 0.052743 0.249081
C27   C     C_3   0.503108 0.494420 0.877033 -0.509803
C28   C     C_3   0.497595 0.505451 0.123091 -0.528397
C29   C     C_R   0.811816 0.578887 0.476555 -0.196638
C30   C     C_R   0.188232 0.421289 0.526812 -0.195125
C31   C     C_R   0.769653 0.496784 0.520446 -0.164028
C32   C     C_R   0.230224 0.503157 0.481743 -0.165343
C33   C     C_R   0.819871 0.416252 0.569804 0.325004
C34   C     C_R   0.046212 0.501071 0.496589 0.041272
C35   C     C_R   0.179826 0.583680 0.432950 0.321858
C36   C     C_R   0.912455 0.415300 0.553753 0.000763
C37   C     C_R   0.087449 0.584917 0.450290 0.001502
C38   C     C_R   0.902959 0.581587 0.473224 0.115665
C39   C     C_R   0.097080 0.418735 0.531121 0.115686
C40   C     C_R   0.965175 0.332613 0.581091 -0.091260
C41   C     C_R   0.034844 0.667718 0.423380 -0.091733
C42   C     C_R   0.056550 0.334892 0.571721 -0.186887
H1    H     H_    0.773377 0.641311 0.442197 0.178768
H2    H     H_    0.624131 0.241811 0.413688 0.197762
H3    H     H_    0.301837 0.911918 0.639052 0.179053
H4    H     H_    0.698026 0.088095 0.360538 0.178036
H5    H     H_    0.698099 0.912331 0.360509 0.157572
H6    H     H_    0.301694 0.087683 0.638880 0.158261
H7    H     H_    0.198916 0.639979 0.935277 0.395627
H8    H     H_    0.803725 0.364738 0.065237 0.397394
H9    H     H_    0.500060 0.848635 0.948478 0.386311
H10   H     H_    0.530372 0.231318 0.136327 0.374702
H11   H     H_    0.753993 0.715354 0.990845 0.383940
H12   H     H_    0.226814 0.358903 0.560944 0.178384
H13   H     H_    0.249564 0.281352 0.006797 0.386689
H14   H     H_    0.683989 0.400081 0.778070 0.386876
H15   H     H_    0.313726 0.595567 0.224960 0.384546
H16   H     H_    0.937102 0.264766 0.607871 0.217489
H17   H     H_    0.063005 0.735498 0.396436 0.217224
H18   H     H_    0.095596 0.270633 0.595714 0.157849
H19   H     H_    0.904485 0.729795 0.409018 0.157765
H20   H     H_    0.624105 0.758236 0.412628 0.149391
H21   H     H_    0.375669 0.241751 0.586752 0.146797
H22   H     H_    0.375826 0.758185 0.586167 0.194993
N1    N     N_R   0.500000 0.750030 0.500000 -0.114102
N2    N     N_R   0.500000 0.249970 0.500000 -0.110790
O1    O     O_R   0.367850 0.580280 0.500030 -0.572291
O2    O     O_2   0.282096 0.507827 0.795280 -0.294523
O3    O     O_3   0.252980 0.616767 0.983462 -0.444244
O4    O     O_2   0.719455 0.498072 0.200711 -0.278788
O5    O     O_2   0.660434 0.336177 0.214265 -0.341606
O6    O     O_3   0.748534 0.384682 0.017289 -0.443918
O7    O     O_2   0.388016 0.743466 0.091614 -0.174565
O8    O     O_2   0.544950 0.743519 0.161951 -0.267271
O9    O     O_3   0.504406 0.780812 0.925438 -0.470427
O10   O     O_2   0.462082 0.258296 0.829609 -0.226005
O11   O     O_2   0.614704 0.255072 0.916901 -0.175876
O12   O     O_R   0.632150 0.419720 0.499970 -0.568408
O13   O     O_3   0.487976 0.216308 0.066836 -0.455329
O14   O     O_2   0.734069 0.551223 0.860967 -0.294904
O15   O     O_2   0.634216 0.685343 0.799374 -0.253781
O16   O     O_3   0.704494 0.678614 0.026436 -0.456580
O17   O     O_2   0.364538 0.316447 0.201800 -0.276670
O18   O     O_2   0.264360 0.448334 0.132213 -0.285861
O19   O     O_3   0.299025 0.318640 0.972083 -0.450112
O20   O     O_2   0.762093 0.235945 0.581423 -0.298733
O21   O     O_2   0.831781 0.295073 0.773782 -0.252758
O22   O     O_3   0.672079 0.350722 0.715912 -0.462126
O23   O     O_R   0.632150 0.580280 0.499970 -0.646315
O24   O     O_2   0.166580 0.703777 0.227954 -0.251933
O25   O     O_2   0.238404 0.763614 0.418452 -0.302185
O26   O     O_3   0.326297 0.646994 0.283818 -0.462903
O27   O     O_R   0.367850 0.419720 0.500030 -0.644885
O28   O     O_R   0.499970 0.580260 0.313950 -0.564667
O29   O     O_R   0.500030 0.419740 0.686050 -0.565265
O30   O     O_R   0.500030 0.580260 0.686050 -0.568235
O31   O     O_R   0.499970 0.419740 0.313950 -0.585248
O32   O     O_2   0.344013 0.668860 0.790879 -0.288752
S1    S     S_3+6 0.323877 0.583444 0.873672 0.112849
S2    S     S_3+6 0.678137 0.419639 0.126836 0.094611
S3    S     S_3+6 0.481011 0.717763 0.057389 0.156489
S4    S     S_3+6 0.520151 0.282009 0.941522 0.167766
S5    S     S_3+6 0.662853 0.616857 0.905675 0.114694
S6    S     S_3+6 0.337387 0.382868 0.092564 0.108325
S7    S     S_3+6 0.771708 0.321756 0.661513 0.074936
S8    S     S_3+6 0.227459 0.677382 0.339460 0.073058
Zn1   Zn    Zn3+2 0.500000 0.607200 0.500000 1.101215
Zn2   Zn    Zn3+2 0.500000 0.392800 0.500000 1.091664

loop_
_geom_bond_atom_site_label_1
_geom_bond_atom_site_label_2
_ccdc_geom_bond_type
C30   C32   A    
C21   C26   S    
C8    C13   A    
H15   O26   S    
C34   C37   A    
O25   S8    D    
C17   H6    S    
C7    C11   A    
C30   H12   S    
C4    H21   S    
C35   C37   A    
C9    C16   A    
H9    O9    S    
O27   Zn2   S    
O15   S5    D    
H14   O22   S    
C20   C25   S    
C2    C41   A    
C15   C16   A    
C33   C36   A    
O12   Zn2   S    
H8    O6    S    
O31   Zn2   S    
C25   S1    S    
C7    C14   A    
C12   O12   A    
C29   C38   A    
O16   S5    S    
C31   C33   A    
O13   S4    S    
C18   O31   A    
C39   C42   A    
H10   O13   S    
C19   C27   S    
C2    H19   S    
O7    S3    D    
C21   C27   S    
C6    H2    S    
C29   H1    S    
C14   C17   A    
O11   S4    D    
C3    N1    A    
C16   H5    S    
O4    S2    D    
C14   H3    S    
O10   S4    D    
O28   Zn1   S    
C40   H16   S    
O17   S6    D    
O14   S5    D    
C34   C39   A    
C32   C35   A    
C12   O23   A    
C36   C40   A    
C33   S7    S    
C24   C25   S    
O24   S8    D    
C5    N1    A    
C42   H18   S    
C5    C7    A    
C6    C8    A    
C20   S3    S    
C20   C28   S    
C1    C32   S    
C22   S5    S    
C5    H22   S    
H11   O16   S    
C24   S6    S    
H13   O19   S    
C3    C9    A    
C2    C38   A    
O21   S7    D    
C23   C34   A    
O23   Zn1   S    
C18   C28   S    
C9    C11   A    
C41   H17   S    
O19   S6    S    
O8    S3    D    
C21   S4    S    
O3    S1    S    
O26   S8    S    
O30   Zn1   S    
C20   C22   S    
C23   C36   A    
C8    C15   A    
C22   C27   S    
C12   C31   S    
O18   S6    D    
O20   S7    D    
C4    C10   A    
C19   O29   A    
O6    S2    S    
C3    H20   S    
C24   C28   S    
N2    Zn2   S    
C10   C13   A    
C25   C27   S    
C23   C38   A    
O5    S2    D    
C26   C28   S    
O2    S1    D    
C29   C31   A    
C35   S8    S    
C4    N2    A    
O22   S7    S    
C11   C13   A    
O1    Zn1   S    
C18   O28   A    
C40   C42   A    
C1    O1    A    
C30   C39   A    
C37   C41   A    
O29   Zn2   S    
C6    N2    A    
C1    O27   A    
O32   S1    D    
C22   C26   S    
C21   C24   S    
O9    S3    S    
H7    O3    S    
C10   C17   A    
C15   H4    S    
N1    Zn1   S    
C19   O30   A    
C26   S2    S    
