data_mof_unit_45600.cif
_audit_creation_date              2012-12-11T15:22:36-0500
_audit_creation_method            fapswitch 2.2
_symmetry_space_group_name_H-M    P1
_symmetry_Int_Tables_number       1
_space_group_crystal_system       triclinic
_cell_length_a                    22.827294
_cell_length_b                    7.254047
_cell_length_c                    20.779692
_cell_angle_alpha                 90.000622
_cell_angle_beta                  93.295536
_cell_angle_gamma                 89.999614
_cell_volume                      3435.22442887

loop_
_atom_site_label
_atom_site_type_symbol
_atom_type_description
_atom_site_fract_x
_atom_site_fract_y
_atom_site_fract_z
_atom_type_partial_charge
O1    O     O_R   0.438030 0.494310 0.439340 -0.537585
O2    O     O_R   0.561970 0.994310 0.560660 -0.537587
O3    O     O_R   0.556900 0.822900 0.435960 -0.535009
O4    O     O_R   0.443100 0.322900 0.564040 -0.535010
C1    C     C_R   0.575797 0.655663 0.421146 0.719136
C2    C     C_R   0.424202 0.155664 0.578853 0.719137
O5    O     O_R   0.438170 0.823950 0.431660 -0.541013
O6    O     O_R   0.561830 0.323950 0.568340 -0.541015
O7    O     O_R   0.442390 0.995390 0.556340 -0.532940
O8    O     O_R   0.557610 0.495390 0.443660 -0.532941
C3    C     C_R   0.418481 0.655337 0.415642 0.696498
C4    C     C_R   0.581518 0.155337 0.584358 0.696501
O9    O     O_3   0.501520 0.661170 0.540910 -0.376641
O10   O     O_3   0.498480 0.161170 0.459090 -0.376640
V1    V     V_3+5 0.499720 0.935580 0.492410 1.400029
V2    V     V_3+5 0.500280 0.435580 0.507590 1.400027
C5    C     C_R   0.829922 0.935329 0.856234 -0.221270
C6    C     C_R   0.170086 0.435330 0.143755 -0.221255
C7    C     C_R   0.869248 0.083811 0.865671 -0.077576
C8    C     C_R   0.130752 0.583811 0.134328 -0.077565
C9    C     C_R   0.860591 0.244103 0.827986 -0.219228
C10   C     C_R   0.139399 0.744101 0.172025 -0.219211
C11   C     C_R   0.813643 0.256517 0.781421 0.088535
C12   C     C_R   0.186356 0.756524 0.218580 0.088541
C13   C     C_R   0.774010 0.108082 0.772980 0.055180
C14   C     C_R   0.225990 0.608081 0.227020 0.055180
C15   C     C_R   0.782086 0.947222 0.810691 0.089789
C16   C     C_R   0.217914 0.447214 0.189309 0.089789
C17   C     C_R   0.805563 0.414957 0.743135 -0.195010
C18   C     C_R   0.194445 0.914982 0.256853 -0.195034
C19   C     C_R   0.758275 0.427217 0.697352 -0.188902
C20   C     C_R   0.241735 0.927244 0.302634 -0.188932
C21   C     C_R   0.718066 0.281544 0.689122 0.089576
C22   C     C_R   0.281934 0.781552 0.310878 0.089576
C23   C     C_R   0.726153 0.120668 0.726823 0.055190
C24   C     C_R   0.273847 0.620668 0.273177 0.055191
C25   C     C_R   0.686519 0.972237 0.718388 0.088821
C26   C     C_R   0.313483 0.472230 0.281610 0.088828
C27   C     C_R   0.694614 0.813762 0.756652 -0.195835
C28   C     C_R   0.305377 0.313736 0.243360 -0.195861
C29   C     C_R   0.741896 0.801512 0.802439 -0.189536
C30   C     C_R   0.258094 0.301484 0.197574 -0.189564
C31   C     C_R   0.670188 0.293503 0.643628 -0.221216
C32   C     C_R   0.329805 0.793503 0.356382 -0.221202
C33   C     C_R   0.630838 0.145060 0.634229 -0.077723
C34   C     C_R   0.369162 0.645061 0.365771 -0.077711
C35   C     C_R   0.639539 0.984704 0.671868 -0.219434
C36   C     C_R   0.360471 0.484707 0.328120 -0.219418
H1    H     H_    0.835702 0.530015 0.748796 0.133500
H2    H     H_    0.164315 0.030056 0.251180 0.133514
H3    H     H_    0.664254 0.417095 0.614654 0.126002
H4    H     H_    0.335727 0.917085 0.385373 0.125984
H5    H     H_    0.609396 0.869835 0.665392 0.130872
H6    H     H_    0.390626 0.369845 0.334583 0.130854
H7    H     H_    0.664481 0.698691 0.750985 0.132871
H8    H     H_    0.335502 0.198650 0.249039 0.132885
H9    H     H_    0.747134 0.677531 0.831287 0.135034
H10   H     H_    0.252845 0.177483 0.168742 0.135055
C37   C     C_3   0.261169 0.205051 0.822042 -0.379779
C38   C     C_3   0.738848 0.705127 0.177971 -0.379767
C39   C     C_3   0.230373 0.903600 0.772180 -0.015305
C40   C     C_3   0.769614 0.403604 0.227801 -0.015265
C41   C     C_3   0.276327 0.921171 0.719615 -0.342452
C42   C     C_3   0.723621 0.421163 0.280327 -0.342365
H11   H     H_    0.350848 0.140377 0.796078 0.142398
H12   H     H_    0.649143 0.640716 0.203921 0.142383
H13   H     H_    0.277416 0.136696 0.867583 0.138925
H14   H     H_    0.722588 0.636779 0.132434 0.138935
H15   H     H_    0.316482 0.842015 0.735136 0.120736
H16   H     H_    0.683449 0.342157 0.264737 0.120711
H17   H     H_    0.259423 0.859564 0.673167 0.145950
H18   H     H_    0.740466 0.359374 0.326772 0.145944
C43   C     C_1   0.378522 0.147458 0.624600 -0.182492
C44   C     C_1   0.621475 0.647460 0.375396 -0.182489
C45   C     C_3   0.207322 0.098926 0.791151 0.281189
C46   C     C_3   0.792684 0.598929 0.208855 0.281149
C47   C     C_3   0.311658 0.213980 0.774630 -0.337009
C48   C     C_3   0.688362 0.714154 0.225385 -0.336983
C49   C     C_3   0.292404 0.125978 0.708577 0.269633
C50   C     C_3   0.707593 0.625990 0.291419 0.269640
C51   C     C_3   0.236127 0.226071 0.681970 -0.338573
C52   C     C_3   0.763891 0.725921 0.318061 -0.338555
C53   C     C_3   0.186707 0.210772 0.730209 -0.336371
C54   C     C_3   0.813305 0.710708 0.269809 -0.336315
C55   C     C_1   0.339931 0.139429 0.662484 -0.090134
C56   C     C_1   0.660064 0.639440 0.337511 -0.090147
C57   C     C_1   0.159920 0.088825 0.837554 -0.099949
C58   C     C_1   0.840087 0.588825 0.162455 -0.099965
C59   C     C_1   0.121360 0.082163 0.875477 -0.186062
C60   C     C_1   0.878645 0.582166 0.124528 -0.186054
H19   H     H_    0.173893 0.349843 0.745825 0.148605
H20   H     H_    0.826111 0.849812 0.254217 0.148609
H21   H     H_    0.248126 0.347592 0.835041 0.147873
H22   H     H_    0.751910 0.847643 0.164967 0.147853
H23   H     H_    0.324477 0.360334 0.767640 0.142859
H24   H     H_    0.675595 0.860551 0.232409 0.142849
H25   H     H_    0.220656 0.164882 0.634911 0.137431
H26   H     H_    0.779359 0.664558 0.365097 0.137403
O11   O     O_R   0.942420 0.735670 0.056390 -0.532499
O12   O     O_R   0.057580 0.235670 0.943610 -0.532501
O13   O     O_R   0.061840 0.404850 0.068350 -0.540657
O14   O     O_R   0.938160 0.904850 0.931650 -0.540659
C61   C     C_R   0.081494 0.573572 0.084387 0.696015
C62   C     C_R   0.918507 0.073572 0.915612 0.696019
O15   O     O_R   0.943100 0.406010 0.064050 -0.535145
O16   O     O_R   0.056900 0.906010 0.935950 -0.535142
O17   O     O_R   0.938020 0.234710 0.939330 -0.537718
O18   O     O_R   0.061980 0.734710 0.060670 -0.537715
C63   C     C_R   0.924312 0.574287 0.078799 0.717788
C64   C     C_R   0.075689 0.074286 0.921203 0.717790
O19   O     O_3   0.998500 0.567790 0.959120 -0.376333
O20   O     O_3   0.001500 0.067790 0.040880 -0.376329
V3    V     V_3+5 0.000280 0.293330 0.007580 1.398829
V4    V     V_3+5 0.999720 0.793330 0.992420 1.398833
H27   H     H_    0.835834 0.811763 0.885226 0.125901
H28   H     H_    0.164186 0.311774 0.114746 0.125883
C65   C     C_3   0.184284 0.750907 0.756090 -0.373906
C66   C     C_3   0.136602 0.796800 0.703317 -0.277122
C67   C     C_3   0.103871 0.624487 0.679252 -0.802382
H29   H     H_    0.133907 0.531551 0.654353 0.228366
H30   H     H_    0.085064 0.550370 0.720067 0.231641
H31   H     H_    0.067465 0.664559 0.644311 0.221215
H32   H     H_    0.103861 0.890441 0.723533 0.194571
H33   H     H_    0.156135 0.863211 0.661452 0.194726
H34   H     H_    0.209253 0.628938 0.740939 0.173504
H35   H     H_    0.162664 0.711588 0.800720 0.172415
C68   C     C_3   0.815694 0.250905 0.243930 -0.373883
C69   C     C_3   0.863294 0.296698 0.296801 -0.277157
C70   C     C_3   0.895899 0.124290 0.320978 -0.802554
H36   H     H_    0.865770 0.031622 0.345850 0.228390
H37   H     H_    0.914728 0.049921 0.280238 0.231656
H38   H     H_    0.932272 0.164284 0.355971 0.221252
H39   H     H_    0.896116 0.390166 0.276648 0.194528
H40   H     H_    0.843715 0.363285 0.338600 0.194780
H41   H     H_    0.790708 0.128877 0.258989 0.173540
H42   H     H_    0.837389 0.211703 0.199341 0.172405
H43   H     H_    0.255180 0.849413 0.815985 0.100232
H44   H     H_    0.744838 0.349430 0.183974 0.100187
H45   H     H_    0.146476 0.155050 0.705513 0.133582
H46   H     H_    0.853545 0.654969 0.294482 0.133590
H47   H     H_    0.245918 0.373841 0.673094 0.140759
H48   H     H_    0.754125 0.873689 0.327000 0.140752
H49   H     H_    0.890732 0.358974 0.834475 0.131187
H50   H     H_    0.109245 0.858963 0.165551 0.131171
H51   H     H_    0.753038 0.551195 0.668503 0.135452
H52   H     H_    0.246984 0.051243 0.331468 0.135473

loop_
_geom_bond_atom_site_label_1
_geom_bond_atom_site_label_2
_ccdc_geom_bond_type
C18   C20   A    
O12   C64   A    
O13   V3    S    
C58   C60   T    
O1    C3    A    
C52   H48   S    
O2    C4    A    
C69   C70   S    
C46   C54   S    
O11   V4    S    
C53   H45   S    
C27   C29   A    
C8    C61   S    
C41   C49   S    
C39   C45   S    
C36   H6    S    
C38   C48   S    
O16   V4    S    
C11   C17   A    
O15   V3    S    
C23   C25   A    
C12   C14   A    
C40   C68   S    
C48   C50   S    
C20   H52   S    
O11   C63   A    
C33   C35   A    
O18   V4    S    
C1    C44   S    
C39   C41   S    
C66   C67   S    
O17   V3    S    
C50   C56   S    
C30   H10   S    
C37   H13   S    
C45   C53   S    
C27   H7    S    
C41   H15   S    
C48   H24   S    
C28   H8    S    
C40   C42   S    
C19   C21   A    
C61   O18   A    
C42   H16   S    
C25   C35   A    
C65   H35   S    
C46   C58   S    
C26   C36   A    
C35   H5    S    
C70   H38   S    
C32   H4    S    
O5    V1    S    
C18   H2    S    
O6    V2    S    
C42   C50   S    
C40   C46   S    
C2    O7    A    
O20   V3    S    
C51   C53   S    
C32   C34   A    
C67   H30   S    
H12   C48   S    
C34   C36   A    
H11   C47   S    
C52   H26   S    
C39   C65   S    
C5    C15   A    
C6    C16   A    
C68   H42   S    
C9    H49   S    
C50   C52   S    
C6    H28   S    
C49   C51   S    
C5    C7    A    
C17   H1    S    
C59   C64   S    
C47   H23   S    
C40   H44   S    
C20   C22   A    
O4    V2    S    
O5    C3    A    
O14   V4    S    
C69   H40   S    
C7    C62   S    
C15   C29   A    
C54   H20   S    
C28   C30   A    
O6    C4    A    
C47   C49   S    
C22   C32   A    
O1    V2    S    
C66   H33   S    
C44   C56   T    
O14   C62   A    
O2    V1    S    
C31   C33   A    
C43   C55   T    
C13   C23   A    
C45   C57   S    
C41   H17   S    
C52   C54   S    
C9    C11   A    
C10   C12   A    
O4    C2    A    
C68   C69   S    
C37   C45   S    
C49   C55   S    
O3    V1    S    
C5    H27   S    
C2    C43   S    
C70   H36   S    
O16   C64   A    
C67   H31   S    
C14   C24   A    
O15   C63   A    
C16   C30   A    
C7    C9    A    
O12   V3    S    
C8    C10   A    
C4    C33   S    
O3    C1    A    
C67   H29   S    
C13   C15   A    
C53   H19   S    
C14   C16   A    
O13   C61   A    
C38   H14   S    
C37   C47   S    
C24   C26   A    
O7    V1    S    
C29   H9    S    
C1    O8    A    
C17   C19   A    
O8    V2    S    
C65   C66   S    
C26   C28   A    
C39   H43   S    
C51   H25   S    
C31   H3    S    
C51   H47   S    
C21   C23   A    
C22   C24   A    
C38   C46   S    
O19   V4    S    
C6    C8    A    
C66   H32   S    
C42   H18   S    
C68   H41   S    
C12   C18   A    
C19   H51   S    
C11   C13   A    
C54   H46   S    
C25   C27   A    
O9    V2    S    
C10   H50   S    
C57   C59   T    
O10   V1    S    
C3    C34   S    
C37   H21   S    
C60   C63   S    
C69   H39   S    
C21   C31   A    
C65   H34   S    
C62   O17   A    
C70   H37   S    
C38   H22   S    
