data_mof_unit_67858.cif
_audit_creation_date              2012-12-10T16:55:46-0500
_audit_creation_method            fapswitch 2.2
_symmetry_space_group_name_H-M    P1
_symmetry_Int_Tables_number       1
_space_group_crystal_system       triclinic
_cell_length_a                    7.952622
_cell_length_b                    8.567879
_cell_length_c                    10.539103
_cell_angle_alpha                 94.897232
_cell_angle_beta                  85.961436
_cell_angle_gamma                 92.433295
_cell_volume                      713.225840844

loop_
_atom_site_label
_atom_site_type_symbol
_atom_type_description
_atom_site_fract_x
_atom_site_fract_y
_atom_site_fract_z
_atom_type_partial_charge
C1    C     C_R   0.543933 0.793704 0.498447 0.951737
C2    C     C_R   0.456063 0.206302 0.501604 0.946094
C3    C     C_R   0.502686 0.507543 0.741825 0.872511
C4    C     C_R   0.497276 0.491775 0.258094 0.875751
C5    C     C_3   0.350197 0.552824 0.968593 -0.302634
C6    C     C_3   0.649458 0.443587 0.031264 -0.276839
C7    C     C_3   0.475544 0.639775 0.057579 0.223921
C8    C     C_3   0.524179 0.356842 0.941524 0.235456
C9    C     C_3   0.495211 0.489876 0.123060 -0.168081
C10   C     C_3   0.504700 0.507379 0.876530 -0.158743
C11   C     C_3   0.373402 0.401403 0.033326 0.192322
C12   C     C_3   0.626700 0.595358 0.966353 0.218856
C13   C     C_2   0.566859 0.957171 0.502841 -0.374744
C14   C     C_2   0.433093 0.042842 0.497376 -0.383228
H1    H     H_    0.229601 0.597380 0.941697 0.175982
H2    H     H_    0.769965 0.400079 0.059265 0.172631
H3    H     H_    0.693510 0.006663 0.513061 0.173631
H4    H     H_    0.306398 0.993347 0.487272 0.173984
N1    N     N_2   0.950320 0.457950 0.465730 0.025140
N2    N     N_2   0.049680 0.542050 0.534270 0.026847
O1    O     O_R   0.389250 0.738570 0.508410 -0.619247
O2    O     O_R   0.610750 0.261430 0.491590 -0.613711
O3    O     O_R   0.678390 0.711620 0.486450 -0.647024
O4    O     O_R   0.321610 0.288380 0.513550 -0.650734
O5    O     O_R   0.355460 0.513510 0.697030 -0.613899
O6    O     O_R   0.644540 0.486490 0.302970 -0.607489
O7    O     O_R   0.644600 0.486560 0.675070 -0.653593
O8    O     O_R   0.355400 0.513440 0.324930 -0.659749
Zn1   Zn    Zn3+2 0.306940 0.517990 0.514670 0.939020
Zn2   Zn    Zn3+2 0.693060 0.482010 0.485330 0.942932
N3    N     N_2   0.448954 0.791302 0.126319 -0.315300
H5    H     H_    0.362464 0.786984 0.203635 0.239294
C15   C     C_3   0.418403 0.915144 0.047150 -0.761455
H6    H     H_    0.422598 0.029424 0.105203 0.264743
H7    H     H_    0.292335 0.896319 0.008089 0.229148
H8    H     H_    0.516525 0.918756 0.967197 0.282078
N4    N     N_2   0.544369 0.204772 0.871628 -0.305452
H9    H     H_    0.467121 0.185368 0.796931 0.224336
C16   C     C_3   0.715912 0.160944 0.837123 -0.799297
H10   H     H_    0.715924 0.046793 0.778610 0.237909
H11   H     H_    0.781047 0.146444 0.924582 0.247025
H12   H     H_    0.784402 0.250852 0.781223 0.265002
N5    N     N_2   0.235605 0.299246 0.075836 -0.310816
H13   H     H_    0.159298 0.357573 0.145127 0.253246
C17   C     C_3   0.137784 0.222807 0.976376 -0.827610
H14   H     H_    0.035960 0.148505 0.020255 0.229365
H15   H     H_    0.216595 0.144896 0.909943 0.256467
H16   H     H_    0.080331 0.311037 0.922943 0.251450
N6    N     N_2   0.765486 0.698450 0.926815 -0.317652
H17   H     H_    0.844016 0.641511 0.858174 0.248007
C18   C     C_3   0.859241 0.773552 0.029415 -0.789068
H18   H     H_    0.962066 0.850185 0.989286 0.222415
H19   H     H_    0.916304 0.684304 0.082055 0.246431
H20   H     H_    0.776520 0.847807 0.096394 0.278107
N7    N     N_2   0.021985 0.363268 0.365752 -0.245575
H21   H     H_    0.145192 0.340806 0.370467 0.279225
C19   C     C_3   0.925571 0.221132 0.332663 -0.722772
H22   H     H_    0.996647 0.148451 0.256506 0.203021
H23   H     H_    0.804607 0.247406 0.295037 0.275145
H24   H     H_    0.905645 0.151784 0.416846 0.234615
N8    N     N_2   0.977926 0.636104 0.634696 -0.244420
H25   H     H_    0.854853 0.659080 0.629836 0.278203
C20   C     C_3   0.074476 0.777865 0.668905 -0.735878
H26   H     H_    0.003773 0.849415 0.746058 0.201161
H27   H     H_    0.094014 0.848617 0.585515 0.235687
H28   H     H_    0.195717 0.751094 0.705765 0.276114

loop_
_geom_bond_atom_site_label_1
_geom_bond_atom_site_label_2
_ccdc_geom_bond_type
C2    O2    A    
C4    O6    A    
N7    H21   S    
C20   H27   S    
C1    O1    A    
N4    H9    S    
C9    C11   S    
C14   H4    S    
N3    H5    S    
C13   H3    S    
N5    H13   S    
C18   H20   S    
C6    C9    S    
N3    C15   S    
C15   H6    S    
C20   H28   S    
C5    C10   S    
N4    C16   S    
C3    C10   S    
O2    Zn2   S    
C13   C14   D    
O7    Zn2   S    
C6    C12   S    
N5    C17   S    
C19   H22   S    
C7    C12   S    
C10   C12   S    
N8    C20   S    
C8    C11   S    
C3    O7    A    
O8    Zn1   S    
C4    O8    A    
C7    N3    S    
C12   N6    S    
C16   H12   S    
N2    Zn1   S    
N7    C19   S    
C5    C11   S    
C2    O4    A    
N8    H25   S    
C2    C14   S    
C11   N5    S    
C5    H1    S    
C19   H23   S    
C8    N4    S    
C18   H19   S    
C6    H2    S    
C18   H18   S    
C16   H10   S    
O3    Zn2   S    
C7    C9    S    
C3    O5    A    
C15   H8    S    
C1    C13   S    
O5    Zn1   S    
C16   H11   S    
N6    H17   S    
C17   H15   S    
N1    N7    S    
N2    N8    S    
C5    C7    S    
O4    Zn1   S    
C19   H24   S    
C6    C8    S    
C1    O3    A    
C17   H16   S    
N1    N2    D    
C15   H7    S    
C4    C9    S    
C17   H14   S    
N1    Zn2   S    
O1    Zn1   S    
C8    C10   S    
C20   H26   S    
N6    C18   S    
O6    Zn2   S    
