data_mof_unit_11401.cif
_audit_creation_date              2012-10-26T19:45:10-0400
_audit_creation_method            fapswitch 2.2
_symmetry_space_group_name_H-M    P1
_symmetry_Int_Tables_number       1
_space_group_crystal_system       triclinic
_cell_length_a                    9.730742
_cell_length_b                    10.896847
_cell_length_c                    13.821564
_cell_angle_alpha                 95.845507
_cell_angle_beta                  83.146045
_cell_angle_gamma                 89.179473
_cell_volume                      1447.00143323

loop_
_atom_site_label
_atom_site_type_symbol
_atom_type_description
_atom_site_fract_x
_atom_site_fract_y
_atom_site_fract_z
_atom_type_partial_charge
C1    C     C_R   0.498502 0.737016 0.496764 0.539690
C2    C     C_R   0.941664 0.436802 0.425174 0.179928
C3    C     C_1   0.540251 0.499552 0.213152 -0.002169
C4    C     C_1   0.459475 0.500621 0.786913 0.006899
C5    C     C_2   0.557772 0.499551 0.021392 -0.123093
C6    C     C_2   0.441777 0.500943 0.978746 -0.123512
C7    C     C_1   0.449495 0.500811 0.874429 -0.032271
C8    C     C_1   0.550100 0.499536 0.125675 -0.035657
C9    C     C_R   0.616121 0.925458 0.453743 -0.143301
C10   C     C_R   0.380555 0.070974 0.521138 -0.143148
C11   C     C_R   0.618775 0.051889 0.445384 0.002143
C12   C     C_R   0.501875 0.262193 0.495424 0.531538
C13   C     C_R   0.369884 0.943514 0.507672 -0.010052
C14   C     C_3   0.830028 0.676851 0.637185 -0.210080
C15   C     C_3   0.859338 0.806810 0.606754 -0.315164
C16   C     C_3   0.766754 0.905173 0.670766 -0.440448
C17   C     C_3   0.172888 0.333465 0.355423 -0.202928
C18   C     C_3   0.124328 0.199541 0.357996 -0.315512
C19   C     C_3   0.158647 0.125096 0.257916 -0.453347
C20   C     C_3   0.730880 0.095927 0.372687 -0.240011
C21   C     C_3   0.674731 0.118996 0.276300 -0.272409
C22   C     C_3   0.607624 0.005824 0.228632 -0.433505
C23   C     C_R   0.503709 0.127069 0.489654 0.013200
C24   C     C_3   0.227131 0.894530 0.495907 -0.233570
C25   C     C_3   0.218425 0.846697 0.388190 -0.285321
C26   C     C_3   0.072501 0.808127 0.371424 -0.448024
C27   C     C_R   0.493978 0.870293 0.488517 0.005413
C28   C     C_R   0.475810 0.500399 0.682868 0.559873
C29   C     C_R   0.524132 0.499541 0.317141 0.537617
C30   C     C_R   0.913489 0.576201 0.568538 0.107442
C31   C     C_R   0.087289 0.425930 0.430715 0.117133
C32   C     C_R   0.060786 0.571101 0.571147 0.179015
Cu1   Cu    Cu3+1 0.359340 0.499980 0.500000 0.945377
Cu2   Cu    Cu3+1 0.640660 0.500020 0.500000 0.948948
H1    H     H_    0.340700 0.502101 0.021877 0.143625
H2    H     H_    0.719269 0.668216 0.639813 0.216620
H3    H     H_    0.848721 0.670900 0.714177 0.145217
H4    H     H_    0.117070 0.172654 0.199855 0.185760
H5    H     H_    0.272590 0.112025 0.239820 0.145453
H6    H     H_    0.110019 0.033734 0.258702 0.146923
H7    H     H_    0.175509 0.154401 0.412892 0.159298
H8    H     H_    0.011976 0.195568 0.380791 0.169666
H9    H     H_    0.172311 0.365088 0.281622 0.153909
H10   H     H_    0.281962 0.327400 0.363422 0.206534
H11   H     H_    0.679832 0.924459 0.219504 0.160220
H12   H     H_    0.658850 0.498375 0.978270 0.145813
H13   H     H_    0.510217 0.984713 0.273642 0.156901
H14   H     H_    0.581791 0.024659 0.155352 0.141604
H15   H     H_    0.598604 0.197715 0.289301 0.171094
H16   H     H_    0.762262 0.143621 0.223370 0.185089
H17   H     H_    0.777641 0.179723 0.404630 0.177119
H18   H     H_    0.817573 0.026690 0.354953 0.117385
H19   H     H_    0.997664 0.886387 0.394694 0.131083
H20   H     H_    0.069285 0.779509 0.292323 0.155178
H21   H     H_    0.042325 0.728864 0.412958 0.172623
H22   H     H_    0.250580 0.920206 0.341165 0.151497
H23   H     H_    0.704969 0.867699 0.422379 0.122681
H24   H     H_    0.290316 0.766710 0.363831 0.198195
H25   H     H_    0.200293 0.823117 0.544683 0.198388
H26   H     H_    0.146440 0.968748 0.518032 0.118766
H27   H     H_    0.288565 0.127052 0.548343 0.132108
H28   H     H_    0.655823 0.886347 0.665744 0.163159
H29   H     H_    0.786708 0.907020 0.748354 0.166731
H30   H     H_    0.789282 0.997151 0.645528 0.153880
H31   H     H_    0.967947 0.831542 0.611619 0.172583
H32   H     H_    0.841356 0.809116 0.529585 0.172146
I1    I     I_    0.138610 0.670579 0.695884 -0.422363
I2    I     I_    0.884565 0.381744 0.281418 -0.478146
N1    N     N_R   0.147930 0.499970 0.499980 -0.235048
N2    N     N_R   0.852070 0.500030 0.500020 -0.231298
O1    O     O_R   0.381260 0.680340 0.500000 -0.489660
O2    O     O_R   0.618740 0.319660 0.500000 -0.488395
O3    O     O_R   0.618830 0.680370 0.500010 -0.523330
O4    O     O_R   0.381170 0.319630 0.499990 -0.528997
O5    O     O_R   0.364420 0.499960 0.637840 -0.443162
O6    O     O_R   0.635580 0.500040 0.362160 -0.447931
O7    O     O_R   0.601990 0.499990 0.637850 -0.523651
O8    O     O_R   0.398010 0.500010 0.362150 -0.535960

loop_
_geom_bond_atom_site_label_1
_geom_bond_atom_site_label_2
_ccdc_geom_bond_type
C22   H14   S    
C12   O4    A    
C25   H22   S    
C26   H21   S    
C21   H15   S    
C29   O6    A    
C12   C23   S    
C1    O1    A    
C20   H17   S    
C2    I2    S    
C18   H8    S    
Cu2   O7    S    
C14   H2    S    
C5    C6    D    
Cu1   O8    S    
C15   C16   S    
C15   H31   S    
C6    H1    S    
C18   C19   S    
C3    C29   S    
C30   N2    A    
Cu1   O5    S    
C29   O8    A    
C16   H29   S    
Cu2   N2    S    
Cu1   N1    S    
C22   H13   S    
C12   O2    A    
C21   C22   S    
C16   H28   S    
C14   C30   S    
C4    C7    T    
C26   H20   S    
C21   H16   S    
C4    C28   S    
C17   C18   S    
C11   C20   S    
C24   C25   S    
C3    C8    T    
C18   H7    S    
C25   C26   S    
C15   H32   S    
C13   C24   S    
C2    C31   A    
C17   H9    S    
C19   H4    S    
C24   H26   S    
Cu1   Cu2   S    
C28   O7    A    
C9    C11   A    
C32   N1    A    
C19   H5    S    
C32   I1    S    
C17   C31   S    
C10   H27   S    
C25   H24   S    
C26   H19   S    
Cu2   O2    S    
C9    C27   A    
C10   C13   A    
C5    C8    S    
C6    C7    S    
C10   C23   A    
C5    H12   S    
C1    O3    A    
C17   H10   S    
C20   H18   S    
C14   H3    S    
C30   C32   A    
C24   H25   S    
C11   C23   A    
C9    H23   S    
C19   H6    S    
Cu1   O1    S    
Cu2   O3    S    
Cu1   O4    S    
C31   N1    A    
C22   H11   S    
C20   C21   S    
C1    C27   S    
C14   C15   S    
C13   C27   A    
C16   H30   S    
C2    N2    A    
C28   O5    A    
Cu2   O6    S    
