data_mof_unit_12952.cif
_audit_creation_date              2012-12-10T17:53:22-0500
_audit_creation_method            fapswitch 2.2
_symmetry_space_group_name_H-M    P1
_symmetry_Int_Tables_number       1
_space_group_crystal_system       triclinic
_cell_length_a                    23.39373
_cell_length_b                    10.611451
_cell_length_c                    9.954354
_cell_angle_alpha                 90.874069
_cell_angle_beta                  88.738147
_cell_angle_gamma                 92.229085
_cell_volume                      2468.35789062

loop_
_atom_site_label
_atom_site_type_symbol
_atom_type_description
_atom_site_fract_x
_atom_site_fract_y
_atom_site_fract_z
_atom_type_partial_charge
C1    C     C_R   0.501603 0.260943 0.499192 0.841943
C2    C     C_R   0.121877 0.618475 0.480026 0.504158
C3    C     C_R   0.239659 0.572119 0.605867 -0.102183
C4    C     C_R   0.389659 0.501391 0.501092 0.847734
C5    C     C_R   0.298987 0.570208 0.604829 -0.241031
C6    C     C_R   0.327761 0.504447 0.502510 -0.021785
C7    C     C_R   0.297140 0.443490 0.399312 -0.224503
C8    C     C_R   0.237907 0.445769 0.400283 -0.095685
C9    C     C_R   0.209183 0.509345 0.503942 0.314452
C10   C     C_R   0.761648 0.488993 0.614199 -0.108201
C11   C     C_R   0.702365 0.489074 0.616416 -0.239673
C12   C     C_R   0.967128 0.279914 0.546730 -0.158935
C13   C     C_R   0.672899 0.499752 0.496000 -0.041034
C14   C     C_R   0.703485 0.509950 0.373435 -0.206353
C15   C     C_R   0.762851 0.509993 0.371630 -0.100348
C16   C     C_R   0.501353 0.739348 0.500746 0.870497
C17   C     C_R   0.791804 0.499610 0.491986 0.323498
C18   C     C_R   0.598666 0.141511 0.612429 -0.176095
C19   C     C_R   0.643873 0.080527 0.668949 -0.112310
C20   C     C_R   0.643482 0.949392 0.670895 -0.118210
C21   C     C_R   0.597877 0.878818 0.616340 -0.196481
C22   C     C_R   0.551338 0.939324 0.560026 0.089132
C23   C     C_R   0.026585 0.281823 0.550657 -0.159603
C24   C     C_R   0.551764 0.071374 0.557899 0.096821
C25   C     C_R   0.505562 0.128955 0.497791 -0.081321
C26   C     C_R   0.461006 0.060158 0.437926 -0.230271
C27   C     C_R   0.460658 0.931441 0.439678 -0.201380
C28   C     C_R   0.610572 0.500301 0.498676 0.840456
C29   C     C_R   0.504735 0.872074 0.501888 -0.097931
C30   C     C_R   0.447435 0.299282 0.141308 -0.143746
C31   C     C_R   0.441552 0.182264 0.078000 -0.216922
C32   C     C_R   0.448476 0.174569 0.939553 -0.216484
C33   C     C_R   0.447992 0.287211 0.867224 0.214464
C34   C     C_R   0.058581 0.394360 0.527572 -0.013159
C35   C     C_R   0.474243 0.398168 0.928650 0.138151
C36   C     C_R   0.474052 0.400710 0.072835 0.138180
C37   C     C_R   0.524694 0.595944 0.071443 -0.112065
C38   C     C_R   0.524491 0.596181 0.928699 -0.125350
C39   C     C_R   0.882598 0.611481 0.467293 0.502109
C40   C     C_R   0.879106 0.391140 0.516048 0.502792
C41   C     C_R   0.938712 0.390561 0.519899 -0.014421
C42   C     C_R   0.970447 0.504023 0.496659 -0.021974
C43   C     C_R   0.942305 0.615593 0.469680 -0.014188
C44   C     C_3   0.393498 0.291333 0.786555 -0.332858
C45   C     C_R   0.030466 0.505920 0.500505 -0.022039
C46   C     C_3   0.351757 0.385889 0.846059 -0.831885
C47   C     C_R   0.062229 0.619314 0.477100 -0.014523
C48   C     C_R   0.033793 0.729993 0.450401 -0.158564
C49   C     C_R   0.974311 0.728159 0.446779 -0.159555
C50   C     C_R   0.118255 0.398449 0.530266 0.501323
H1    H     H_    0.943574 0.191692 0.564884 0.194123
H2    H     H_    0.545200 0.674284 0.124782 0.152607
H3    H     H_    0.430027 0.309343 0.241022 0.187963
H4    H     H_    0.426890 0.100094 0.133978 0.162717
H5    H     H_    0.436939 0.085220 0.891169 0.149725
H6    H     H_    0.544772 0.674682 0.875571 0.150971
H7    H     H_    0.217304 0.621721 0.685711 0.147835
H8    H     H_    0.322358 0.620138 0.683263 0.159057
H9    H     H_    0.318963 0.392968 0.319198 0.145864
H10   H     H_    0.214192 0.397846 0.321092 0.142984
H11   H     H_    0.784293 0.481160 0.707251 0.139685
H12   H     H_    0.679744 0.480676 0.712158 0.165321
H13   H     H_    0.425805 0.106429 0.392755 0.135662
H14   H     H_    0.047335 0.194969 0.571531 0.193059
H15   H     H_    0.340622 0.361453 0.951832 0.246584
H16   H     H_    0.370525 0.483445 0.844729 0.266845
H17   H     H_    0.311764 0.381484 0.788064 0.260280
H18   H     H_    0.401692 0.300318 0.678439 0.224408
H19   H     H_    0.369262 0.198819 0.788919 0.179768
H20   H     H_    0.057353 0.818190 0.432156 0.193968
H21   H     H_    0.953552 0.815033 0.426034 0.193198
H22   H     H_    0.681683 0.518367 0.279322 0.164315
H23   H     H_    0.786429 0.518056 0.277109 0.140303
H24   H     H_    0.601321 0.243316 0.610285 0.151993
H25   H     H_    0.679559 0.135203 0.710170 0.154842
H26   H     H_    0.678861 0.902153 0.713666 0.151394
H27   H     H_    0.599932 0.777222 0.617281 0.146715
H28   H     H_    0.425459 0.877729 0.394521 0.156652
N1    N     N_R   0.852608 0.500550 0.490611 -0.359941
N2    N     N_R   0.148348 0.509079 0.505840 -0.359294
N3    N     N_R   0.499460 0.498800 0.142780 -0.115060
N4    N     N_R   0.499440 0.498720 0.857170 -0.119645
O1    O     O_R   0.500000 0.316780 0.614690 -0.635371
O2    O     O_R   0.583850 0.500050 0.614640 -0.629932
O3    O     O_R   0.583840 0.500030 0.385310 -0.609304
O4    O     O_2   0.854561 0.717375 0.443312 -0.552470
O5    O     O_2   0.847716 0.283553 0.537254 -0.554221
O6    O     O_2   0.146165 0.293075 0.557286 -0.555658
O7    O     O_2   0.153315 0.725410 0.455832 -0.553151
O8    O     O_R   0.500000 0.316750 0.385360 -0.622695
O9    O     O_R   0.416160 0.499970 0.614690 -0.617582
O10   O     O_R   0.416150 0.499950 0.385360 -0.631303
O11   O     O_R   0.500000 0.683250 0.614640 -0.622333
O12   O     O_R   0.500000 0.683220 0.385310 -0.612888
Zn1   Zn    Zn3+2 0.500000 0.500020 0.653130 0.932806
Zn2   Zn    Zn3+2 0.500000 0.499980 0.346870 0.944558

loop_
_geom_bond_atom_site_label_1
_geom_bond_atom_site_label_2
_ccdc_geom_bond_type
C1    O8    A    
C22   C29   A    
C28   O2    A    
C41   C42   A    
C35   C36   A    
O10   Zn2   S    
C11   H12   S    
C7    C8    A    
C12   C23   A    
C16   O11   A    
C12   C41   A    
C5    H8    S    
C18   C24   A    
C40   O5    S    
C46   H16   S    
C30   C31   A    
O3    Zn2   S    
C27   C29   A    
C10   C17   A    
C17   N1    S    
C20   H26   S    
C15   C17   A    
C18   C19   A    
C31   C32   A    
C8    C9    A    
C13   C28   S    
C32   H5    S    
C50   O6    S    
C4    O9    A    
C27   H28   S    
O11   Zn1   S    
C13   C14   A    
C38   N4    A    
C1    C25   S    
C37   N3    A    
C7    H9    S    
C35   N4    A    
C44   C46   S    
C45   C47   A    
C30   H3    S    
C34   C50   A    
C23   H14   S    
C24   C25   A    
C46   H15   S    
C4    C6    S    
N3    Zn2   S    
C43   C49   A    
C39   C43   A    
C16   C29   S    
O2    Zn1   S    
C39   N1    A    
C2    O7    S    
C26   H13   S    
C37   C38   A    
C3    C9    A    
C47   C48   A    
C36   N3    A    
C23   C34   A    
O1    Zn1   S    
C26   C27   A    
C40   N1    A    
C44   H19   S    
C34   C45   A    
O12   Zn2   S    
C3    H7    S    
C40   C41   A    
C15   H23   S    
C9    N2    S    
C22   C24   A    
C44   H18   S    
C10   H11   S    
C42   C43   A    
C12   H1    S    
C37   H2    S    
C48   C49   A    
N4    Zn1   S    
C33   C44   S    
C14   H22   S    
C48   H20   S    
C3    C5    A    
C50   N2    A    
O8    Zn2   S    
C6    C7    A    
C2    C47   A    
C1    O1    A    
C16   O12   A    
C30   C36   A    
C32   C33   A    
C19   C20   A    
C19   H25   S    
C25   C26   A    
C46   H17   S    
C8    H10   S    
C11   C13   A    
C5    C6    A    
C33   C35   A    
C31   H4    S    
C2    N2    A    
C10   C11   A    
O9    Zn1   S    
C38   H6    S    
C20   C21   A    
C18   H24   S    
C49   H21   S    
C21   H27   S    
C28   O3    A    
C14   C15   A    
C39   O4    S    
C21   C22   A    
C42   C45   A    
C4    O10   A    
