data_mof_unit_57028.cif
_audit_creation_date              2012-12-10T18:11:08-0500
_audit_creation_method            fapswitch 2.2
_symmetry_space_group_name_H-M    P1
_symmetry_Int_Tables_number       1
_space_group_crystal_system       triclinic
_cell_length_a                    10.88542
_cell_length_b                    9.43576
_cell_length_c                    10.620498
_cell_angle_alpha                 89.72807
_cell_angle_beta                  89.815224
_cell_angle_gamma                 89.341148
_cell_volume                      1090.76493861

loop_
_atom_site_label
_atom_site_type_symbol
_atom_type_description
_atom_site_fract_x
_atom_site_fract_y
_atom_site_fract_z
_atom_type_partial_charge
C1    C     C_R   0.260786 0.501056 0.507098 0.775889
C2    C     C_3   0.500240 0.501162 0.122542 -0.033250
C3    C     C_3   0.071497 0.657783 0.538669 0.012464
C4    C     C_3   0.075966 0.398350 0.618429 -0.009085
C5    C     C_3   0.929214 0.659528 0.516597 -0.003477
C6    C     C_3   0.932762 0.414623 0.624695 -0.010503
C7    C     C_3   0.077545 0.450250 0.385759 -0.446742
C8    C     C_3   0.124215 0.503563 0.515901 -0.031440
C9    C     C_3   0.880690 0.501297 0.505923 0.019575
C10   C     C_3   0.936480 0.441448 0.382563 -0.383646
C11   C     C_3   0.562065 0.081707 0.615127 -0.202758
C12   C     C_3   0.570329 0.915034 0.610447 -0.186048
C13   C     C_3   0.373677 0.085146 0.504381 -0.187329
C14   C     C_3   0.374061 0.917896 0.511202 -0.201748
C15   C     C_3   0.560590 0.082817 0.388696 -0.182970
C16   C     C_3   0.555147 0.916230 0.385940 -0.180023
C17   C     C_R   0.499967 0.500392 0.259429 0.792735
C18   C     C_R   0.740922 0.499710 0.501823 0.749669
C19   C     C_R   0.499755 0.499612 0.740654 0.779872
C20   C     C_3   0.504261 0.634934 0.039715 -0.176175
C21   C     C_3   0.396990 0.438681 0.042985 -0.208599
C22   C     C_3   0.400932 0.572307 0.957997 -0.157805
C23   C     C_3   0.499616 0.498758 0.877383 0.000296
C24   C     C_3   0.603085 0.561609 0.956616 -0.181567
C25   C     C_3   0.495386 0.364609 0.959820 -0.155490
C26   C     C_3   0.597669 0.428398 0.040829 0.207954
Cu1   Cu    Cu3+1 0.499860 0.642410 0.500060 0.884733
Cu2   Cu    Cu3+1 0.499860 0.357590 0.500060 0.893148
H1    H     H_    0.512003 0.113517 0.702206 0.136839
H2    H     H_    0.534193 0.872772 0.700815 0.148539
H3    H     H_    0.653795 0.125483 0.623957 0.160601
H4    H     H_    0.668085 0.880383 0.604664 0.127741
H5    H     H_    0.322199 0.127672 0.586198 0.143892
H6    H     H_    0.331323 0.883687 0.601149 0.159004
H7    H     H_    0.656991 0.117466 0.382198 0.127674
H8    H     H_    0.648034 0.871493 0.370659 0.132952
H9    H     H_    0.322782 0.120666 0.418914 0.134292
H10   H     H_    0.316275 0.876651 0.433700 0.143487
H11   H     H_    0.687359 0.611231 0.918177 0.114364
H12   H     H_    0.492167 0.254054 0.924756 0.121709
H13   H     H_    0.884496 0.701519 0.603459 0.117379
H14   H     H_    0.910151 0.482602 0.707060 0.073917
N1    N     N_3   0.500250 0.143650 0.502780 -0.109614
N2    N     N_3   0.500250 0.856350 0.502780 -0.112408
O1    O     O_R   0.317570 0.620260 0.500070 -0.604396
O2    O     O_R   0.317570 0.379740 0.500070 -0.589670
O3    O     O_R   0.499850 0.620240 0.316900 -0.592278
O4    O     O_R   0.499850 0.379760 0.316900 -0.596646
O5    O     O_R   0.682190 0.620260 0.500030 -0.607570
O6    O     O_R   0.682190 0.379740 0.500030 -0.575960
O7    O     O_R   0.499910 0.620280 0.683200 -0.596796
O8    O     O_R   0.499910 0.379720 0.683200 -0.591583
H15   H     H_    0.319993 0.631234 0.920491 0.119435
H16   H     H_    0.902427 0.502211 0.299933 0.159109
H17   H     H_    0.909029 0.331277 0.364954 0.180173
H18   H     H_    0.514746 0.123842 0.302421 0.140542
H19   H     H_    0.500309 0.884129 0.302837 0.136143
H20   H     H_    0.507624 0.745443 0.074857 0.127946
H21   H     H_    0.312848 0.389456 0.082088 0.128697
C27   C     C_3   0.708626 0.346932 0.092670 -0.406510
C28   C     C_3   0.791316 0.292204 0.987139 -0.897330
H22   H     H_    0.739772 0.219164 0.925450 0.244306
H23   H     H_    0.826485 0.382074 0.930076 0.245707
H24   H     H_    0.870862 0.233644 0.028078 0.243803
H25   H     H_    0.761777 0.418494 0.153816 0.184229
H26   H     H_    0.676404 0.256072 0.150353 0.197667
H27   H     H_    0.118543 0.725063 0.469280 0.197359
H28   H     H_    0.100693 0.292375 0.581569 0.190072
C29   C     C_3   0.104945 0.722187 0.668860 -0.449551
C30   C     C_3   0.083055 0.882058 0.674925 -0.899099
H29   H     H_    0.116079 0.936160 0.588538 0.244222
H30   H     H_    0.983958 0.904081 0.688257 0.258404
H31   H     H_    0.132104 0.925759 0.757328 0.243305
H32   H     H_    0.048229 0.675775 0.744611 0.198651
H33   H     H_    0.202781 0.701025 0.691569 0.214871
C31   C     C_3   0.139591 0.406469 0.750898 -0.418492
C32   C     C_3   0.163690 0.261829 0.813151 -0.862010
H34   H     H_    0.080784 0.223166 0.862609 0.241604
H35   H     H_    0.194790 0.181541 0.744323 0.240933
H36   H     H_    0.236633 0.272043 0.885069 0.242069
H37   H     H_    0.229825 0.458822 0.742909 0.198629
H38   H     H_    0.084500 0.468835 0.819206 0.193680
C33   C     C_3   0.884797 0.764432 0.408476 -0.339745
C34   C     C_3   0.978117 0.828214 0.316557 -0.919760
H39   H     H_    0.038311 0.904920 0.364878 0.243196
H40   H     H_    0.033262 0.744465 0.269432 0.251081
H41   H     H_    0.928019 0.888351 0.242202 0.239154
H42   H     H_    0.815618 0.713681 0.347825 0.208397
H43   H     H_    0.838198 0.855939 0.454134 0.192089
C35   C     C_3   0.873059 0.271003 0.659472 -0.357159
C36   C     C_3   0.882943 0.152602 0.561285 -0.843994
H44   H     H_    0.824247 0.174727 0.479723 0.253933
H45   H     H_    0.977624 0.132108 0.527922 0.239377
H46   H     H_    0.849313 0.053055 0.603692 0.208706
H47   H     H_    0.915991 0.229618 0.746346 0.211793
H48   H     H_    0.776480 0.290157 0.687785 0.197271
H49   H     H_    0.110028 0.521532 0.309289 0.165392
H50   H     H_    0.116727 0.343423 0.364392 0.168556

loop_
_geom_bond_atom_site_label_1
_geom_bond_atom_site_label_2
_ccdc_geom_bond_type
C7    C10   S    
C7    H50   S    
C1    C8    S    
C34   H41   S    
C4    C8    S    
C6    C9    S    
C7    C8    S    
C32   H34   S    
C13   H5    S    
Cu2   O2    S    
C3    C29   S    
C24   C26   S    
C21   H21   S    
C25   H12   S    
C5    C33   S    
C1    O2    A    
C14   H10   S    
C15   C16   S    
C24   H11   S    
C28   H23   S    
C21   C25   S    
Cu2   O6    S    
C19   O8    A    
C20   C24   S    
C23   C24   S    
C17   O4    A    
C11   N1    S    
C30   H29   S    
C9    C10   S    
C16   N2    S    
C13   H9    S    
Cu1   O1    S    
C33   H42   S    
C27   H26   S    
C13   C14   S    
C12   H4    S    
C2    C17   S    
C28   H22   S    
C30   H31   S    
Cu1   N2    S    
C15   H7    S    
Cu1   O7    S    
C22   H15   S    
C32   H35   S    
C33   H43   S    
C2    C20   S    
C35   H47   S    
C31   C32   S    
C4    C6    S    
C3    C8    S    
C31   H38   S    
C36   H44   S    
C4    H28   S    
C25   C26   S    
C6    C35   S    
C27   C28   S    
C28   H24   S    
C19   C23   S    
C5    C9    S    
C36   H45   S    
C33   C34   S    
C2    C21   S    
C29   H32   S    
C2    C26   S    
C34   H39   S    
C10   H17   S    
C20   C22   S    
C27   H25   S    
C20   H20   S    
C13   N1    S    
C18   O6    A    
C14   N2    S    
C32   H36   S    
Cu1   O3    S    
C5    H13   S    
Cu2   O4    S    
C7    H49   S    
C12   H2    S    
C3    H27   S    
C17   O3    A    
C34   H40   S    
C3    C5    S    
C31   H37   S    
C14   H6    S    
C11   C12   S    
C35   H48   S    
Cu2   N1    S    
C15   H18   S    
C15   N1    S    
C12   N2    S    
C16   H8    S    
C36   H46   S    
Cu2   O8    S    
C1    O1    A    
C35   C36   S    
C29   H33   S    
C16   H19   S    
C23   C25   S    
C29   C30   S    
C10   H16   S    
C4    C31   S    
C11   H3    S    
C19   O7    A    
C9    C18   S    
C11   H1    S    
C6    H14   S    
Cu1   Cu2   S    
C22   C23   S    
C30   H30   S    
C21   C22   S    
C26   C27   S    
Cu1   O5    S    
C18   O5    A    
