data_mof_unit_57180.cif
_audit_creation_date              2012-12-10T18:47:42-0500
_audit_creation_method            fapswitch 2.2
_symmetry_space_group_name_H-M    P1
_symmetry_Int_Tables_number       1
_space_group_crystal_system       triclinic
_cell_length_a                    9.846757
_cell_length_b                    10.723796
_cell_length_c                    15.286806
_cell_angle_alpha                 88.114042
_cell_angle_beta                  69.899338
_cell_angle_gamma                 89.1428
_cell_volume                      1515.05104099

loop_
_atom_site_label
_atom_site_type_symbol
_atom_type_description
_atom_site_fract_x
_atom_site_fract_y
_atom_site_fract_z
_atom_type_partial_charge
C1    C     C_R   0.499543 0.739957 0.498786 0.914255
C2    C     C_R   0.500776 0.259828 0.501164 0.924553
C3    C     C_R   0.295671 0.396986 0.115209 -0.273528
C4    C     C_R   0.620316 0.299905 0.925904 -0.256117
C5    C     C_R   0.196905 0.409108 0.068496 -0.170051
C6    C     C_R   0.711928 0.270225 0.976298 -0.179327
C7    C     C_R   0.586572 0.929867 0.539195 -0.357115
C8    C     C_R   0.409787 0.069279 0.464306 -0.347977
C9    C     C_R   0.600109 0.057341 0.532807 0.511405
C10   C     C_R   0.413840 0.941948 0.456909 0.527001
C11   C     C_R   0.504065 0.127279 0.500205 -0.230685
C12   C     C_R   0.497976 0.872192 0.498773 -0.224599
C13   C     C_R   0.963902 0.436121 0.434897 -0.103589
C14   C     C_R   0.036826 0.566045 0.563838 -0.050016
C15   C     C_R   0.107501 0.435395 0.435306 -0.084888
C16   C     C_R   0.893200 0.566386 0.563560 -0.073560
C17   C     C_R   0.411195 0.497796 0.676587 0.914729
C18   C     C_R   0.588488 0.493701 0.324304 0.891293
C19   C     C_R   0.357640 0.478050 0.778645 -0.142369
C20   C     C_R   0.634130 0.448886 0.229117 -0.128936
C21   C     C_R   0.152148 0.453587 0.922899 0.510203
C22   C     C_R   0.778323 0.302592 0.114970 0.548274
C23   C     C_R   0.207896 0.472068 0.826141 -0.377895
C24   C     C_R   0.752288 0.367095 0.197532 -0.404718
C25   C     C_R   0.453682 0.455652 0.828390 0.137388
C26   C     C_R   0.539343 0.464752 0.178882 0.151236
C27   C     C_R   0.397341 0.408163 0.920907 -0.005212
C28   C     C_R   0.550853 0.384291 0.106062 -0.018468
C29   C     C_R   0.247126 0.421516 0.970872 0.027118
C30   C     C_R   0.680802 0.316555 0.066045 0.006967
C31   C     C_R   0.487981 0.362395 0.969071 0.103694
C32   C     C_R   0.443883 0.381268 0.064657 0.113533
H1    H     H_    0.083337 0.418505 0.109091 0.196318
H2    H     H_    0.811212 0.219506 0.942658 0.197597
H3    H     H_    0.825199 0.353752 0.236425 0.163591
H4    H     H_    0.132995 0.485739 0.788728 0.181222
H5    H     H_    0.256110 0.397283 0.190612 0.156569
H6    H     H_    0.651120 0.271689 0.854344 0.179109
H7    H     H_    0.651615 0.875910 0.571517 0.188140
H8    H     H_    0.339098 0.123092 0.436546 0.181990
H9    H     H_    0.938181 0.384994 0.382815 0.108901
H10   H     H_    0.063175 0.618963 0.614858 0.123510
H11   H     H_    0.190192 0.383233 0.383793 0.121647
H12   H     H_    0.811346 0.620588 0.613759 0.124751
N1    N     N_R   0.142780 0.500030 0.500020 -0.073589
N2    N     N_R   0.857220 0.499970 0.499980 -0.072031
O1    O     O_R   0.385370 0.683250 0.500010 -0.574098
O2    O     O_R   0.614630 0.316750 0.499990 -0.602055
O3    O     O_R   0.614700 0.683220 0.500000 -0.632195
O4    O     O_R   0.385300 0.316780 0.500000 -0.624230
O5    O     O_R   0.319830 0.500020 0.632250 -0.625422
O6    O     O_R   0.680170 0.499980 0.367750 -0.626671
O7    O     O_R   0.549160 0.499990 0.632240 -0.605981
O8    O     O_R   0.450840 0.500010 0.367760 -0.610632
Zn1   Zn    Zn3+2 0.346870 0.500020 0.500000 0.953928
Zn2   Zn    Zn3+2 0.653130 0.499980 0.500000 0.939343
C33   C     C_3   0.448714 0.582774 0.190752 -0.910417
H13   H     H_    0.429315 0.611741 0.125637 0.243027
H14   H     H_    0.343385 0.571035 0.248017 0.253912
H15   H     H_    0.509223 0.660616 0.205690 0.216820
C34   C     C_3   0.607003 0.506347 0.791171 -0.871081
H16   H     H_    0.651151 0.523413 0.847394 0.229117
H17   H     H_    0.680174 0.441217 0.741214 0.257849
H18   H     H_    0.607786 0.599683 0.757374 0.232517
O9    O     O_3   0.004167 0.451875 0.969150 -0.621655
C35   C     C_3   0.943098 0.571970 0.968150 0.073185
H19   H     H_    0.828272 0.558645 0.974679 0.180553
H20   H     H_    0.994010 0.626798 0.901966 0.116095
C36   C     C_3   0.947917 0.645838 0.051128 -0.350037
H21   H     H_    0.907720 0.587003 0.115881 0.238503
H22   H     H_    0.061290 0.672882 0.040000 0.208656
C37   C     C_3   0.854118 0.762687 0.063778 -0.993978
H23   H     H_    0.892560 0.824695 0.000588 0.265730
H24   H     H_    0.858979 0.813926 0.124554 0.260062
H25   H     H_    0.740129 0.736296 0.076718 0.269544
O10   O     O_3   0.905843 0.236495 0.078056 -0.593088
C38   C     C_3   0.895117 0.120126 0.125976 0.059483
H26   H     H_    0.835207 0.053598 0.098464 0.149054
H27   H     H_    0.838174 0.126505 0.202675 0.079852
C39   C     C_3   0.047005 0.069049 0.111626 -0.347134
H28   H     H_    0.105201 0.134223 0.141390 0.220436
H29   H     H_    0.037963 0.977601 0.149550 0.172702
C40   C     C_3   0.134958 0.051944 0.008806 -0.748402
H30   H     H_    0.078303 0.988312 0.977058 0.236882
H31   H     H_    0.242037 0.010879 0.002383 0.225046
H32   H     H_    0.152714 0.143229 0.970168 0.287934
O11   O     O_3   0.703213 0.111045 0.562256 -0.630116
C41   C     C_3   0.832317 0.128983 0.484749 0.119044
H33   H     H_    0.899274 0.196657 0.505235 0.175112
H34   H     H_    0.811484 0.170680 0.422712 0.125035
C42   C     C_3   0.920795 0.008544 0.457215 -0.395387
H35   H     H_    0.948714 0.969750 0.517233 0.245648
H36   H     H_    0.858792 0.937868 0.435408 0.222048
C43   C     C_3   0.058373 0.034209 0.374842 -0.941290
H37   H     H_    0.032121 0.075881 0.315090 0.235740
H38   H     H_    0.116759 0.945175 0.352614 0.302135
H39   H     H_    0.128187 0.099491 0.394894 0.262153
O12   O     O_3   0.331747 0.887744 0.411224 -0.633989
C44   C     C_3   0.417138 0.871428 0.316518 0.086769
H40   H     H_    0.352763 0.812449 0.287136 0.182580
H41   H     H_    0.519306 0.819903 0.309575 0.110086
C45   C     C_3   0.450729 0.995395 0.259128 -0.416706
H42   H     H_    0.353267 0.055696 0.277492 0.239422
H43   H     H_    0.537326 0.045938 0.274445 0.203673
C46   C     C_3   0.501113 0.973972 0.154698 -0.963701
H44   H     H_    0.601622 0.917545 0.133390 0.264494
H45   H     H_    0.523560 0.065133 0.116002 0.273499
H46   H     H_    0.416245 0.925284 0.136307 0.270274

loop_
_geom_bond_atom_site_label_1
_geom_bond_atom_site_label_2
_ccdc_geom_bond_type
C35   H20   S    
O11   C41   S    
C27   C29   A    
C19   C23   A    
C22   O10   S    
C17   O5    A    
C13   H9    S    
C18   O6    A    
C38   H26   S    
C46   H45   S    
C22   C24   A    
C39   C40   S    
C13   N2    A    
C39   H28   S    
C33   H14   S    
C35   C36   S    
O12   C44   S    
C45   C46   S    
C36   H22   S    
C10   O12   S    
C2    O4    A    
C20   C24   A    
C5    H1    S    
C16   H12   S    
O5    Zn1   S    
C34   H16   S    
C14   H10   S    
C21   O9    S    
O7    Zn2   S    
C35   H19   S    
C36   H21   S    
C1    C12   S    
C37   H25   S    
C2    C11   S    
C14   N1    A    
C5    C29   A    
C38   H27   S    
C7    C12   A    
C46   H46   S    
C24   H3    S    
C27   C31   A    
C45   H42   S    
C28   C32   A    
O10   C38   S    
C37   H24   S    
C16   N2    A    
C42   H35   S    
C1    O1    A    
C33   H15   S    
C43   H39   S    
C2    O2    A    
C21   C29   A    
C6    H2    S    
C34   H18   S    
C45   H43   S    
C42   H36   S    
C40   H30   S    
C41   C42   S    
C44   C45   S    
C34   H17   S    
C3    C32   A    
C25   C34   S    
C43   H38   S    
C9    C11   A    
C3    H5    S    
C10   C12   A    
C39   H29   S    
C40   H31   S    
C4    H6    S    
C23   H4    S    
C13   C15   A    
C14   C16   A    
C4    C6    A    
C15   N1    A    
C17   O7    A    
C36   C37   S    
O1    Zn1   S    
C38   C39   S    
O2    Zn2   S    
O8    Zn1   S    
C22   C30   A    
C6    C30   A    
C31   C32   A    
C41   H34   S    
C37   H23   S    
C3    C5    A    
C25   C27   A    
O3    Zn2   S    
C46   H44   S    
C26   C28   A    
O4    Zn1   S    
C44   H40   S    
C21   C23   A    
C15   H11   S    
C9    O11   S    
C42   C43   S    
C33   H13   S    
C20   C26   A    
C8    C11   A    
C28   C30   A    
C17   C19   S    
C18   C20   S    
C43   H37   S    
C19   C25   A    
C26   C33   S    
C4    C31   A    
C18   O8    A    
C7    C9    A    
C40   H32   S    
C41   H33   S    
N1    Zn1   S    
C8    C10   A    
O9    C35   S    
N2    Zn2   S    
C7    H7    S    
C8    H8    S    
C1    O3    A    
C44   H41   S    
O6    Zn2   S    
