data_mof_unit_17079.cif
_audit_creation_date              2012-10-26T17:10:22-0400
_audit_creation_method            fapswitch 2.2
_symmetry_space_group_name_H-M    P1
_symmetry_Int_Tables_number       1
_space_group_crystal_system       triclinic
_cell_length_a                    16.872721
_cell_length_b                    16.858588
_cell_length_c                    16.883527
_cell_angle_alpha                 67.712702
_cell_angle_beta                  67.66286
_cell_angle_gamma                 67.992267
_cell_volume                      3958.30340151

loop_
_atom_site_label
_atom_site_type_symbol
_atom_type_description
_atom_site_fract_x
_atom_site_fract_y
_atom_site_fract_z
_atom_type_partial_charge
C1    C     C_R   0.594251 0.019100 0.599623 -0.093232
C2    C     C_R   0.399133 0.985642 0.404088 -0.092766
C3    C     C_R   0.017680 0.599792 0.594915 -0.092244
C4    C     C_R   0.984167 0.404921 0.399270 -0.090132
C5    C     C_R   0.588445 0.586650 0.052645 -0.087367
C6    C     C_R   0.397661 0.393495 0.005985 -0.091753
C7    C     C_R   0.029481 0.828727 0.564091 0.808612
C8    C     C_R   0.979448 0.170119 0.432265 0.798281
C9    C     C_R   0.829588 0.566387 0.023353 0.813737
C10   C     C_R   0.169644 0.431746 0.981340 0.802028
C11   C     C_R   0.564157 0.029637 0.828640 0.800346
C12   C     C_R   0.432109 0.979641 0.170077 0.799144
C13   C     C_R   0.435202 0.171322 0.972923 0.803076
C14   C     C_R   0.567326 0.830099 0.019836 0.792600
C15   C     C_R   0.970560 0.435756 0.171381 0.818187
C16   C     C_R   0.020677 0.567782 0.829820 0.799079
C17   C     C_R   0.171270 0.970724 0.435820 0.802122
C18   C     C_R   0.829813 0.020840 0.567705 0.802312
C19   C     C_R   0.544045 0.010551 0.549426 0.137493
C20   C     C_R   0.449477 0.994637 0.453848 0.136460
C21   C     C_R   0.008970 0.549550 0.544888 0.134743
C22   C     C_R   0.993021 0.454978 0.449377 0.134434
C23   C     C_R   0.539695 0.534680 0.043817 0.108438
C24   C     C_R   0.445446 0.442727 0.020433 0.133608
C25   C     C_R   0.545651 0.926065 0.551470 -0.083933
C26   C     C_R   0.447537 0.079159 0.452083 -0.079127
C27   C     C_R   0.085442 0.500658 0.494643 -0.101075
C28   C     C_R   0.916563 0.503970 0.499515 -0.099166
C29   C     C_R   0.489751 0.482895 0.118366 -0.103736
C30   C     C_R   0.495378 0.494603 0.946348 -0.100149
C31   C     C_R   0.498638 0.918158 0.503713 -0.096725
C32   C     C_R   0.494824 0.087071 0.499626 -0.096394
C33   C     C_R   0.442729 0.436914 0.106674 -0.080359
C34   C     C_R   0.542095 0.540266 0.957979 -0.074922
C35   C     C_R   0.077511 0.453608 0.446878 -0.078643
C36   C     C_R   0.924492 0.551266 0.547019 -0.076558
C37   C     C_R   0.549316 0.040847 0.681030 -0.044557
C38   C     C_R   0.431801 0.000536 0.310990 -0.042519
C39   C     C_R   0.039669 0.681257 0.549637 -0.033282
C40   C     C_R   0.998966 0.311892 0.432173 -0.041598
C41   C     C_R   0.676874 0.547923 0.057215 -0.029149
C42   C     C_R   0.305496 0.426944 0.015285 -0.041240
C43   C     C_R   0.318178 0.962678 0.449765 -0.032957
C44   C     C_R   0.687353 0.003660 0.566829 -0.041534
C45   C     C_R   0.445265 0.314953 0.979175 -0.032302
C46   C     C_R   0.550464 0.678453 0.042820 -0.040183
C47   C     C_R   0.961748 0.450112 0.318306 -0.032075
C48   C     C_R   0.002516 0.566910 0.688014 -0.039835
C49   C     C_R   0.599122 0.044403 0.730432 -0.170723
C50   C     C_R   0.392101 0.975936 0.265986 -0.191481
C51   C     C_R   0.043897 0.730629 0.599086 -0.172614
C52   C     C_R   0.975216 0.266229 0.392476 -0.188593
C53   C     C_R   0.733003 0.603830 0.032306 -0.176043
C54   C     C_R   0.264126 0.390608 0.982620 -0.188730
C55   C     C_R   0.269271 0.956981 0.400744 -0.173400
C56   C     C_R   0.733552 0.025789 0.607361 -0.186189
C57   C     C_R   0.399095 0.268567 0.964708 -0.173870
C58   C     C_R   0.604894 0.733905 0.025112 -0.190107
C59   C     C_R   0.956660 0.400617 0.269427 -0.177789
C60   C     C_R   0.025229 0.607502 0.733695 -0.181452
C61   C     C_R   0.686812 0.051063 0.687391 -0.058834
C62   C     C_R   0.312591 0.949440 0.313482 -0.073222
C63   C     C_R   0.050734 0.687618 0.686612 -0.062238
C64   C     C_R   0.949307 0.313121 0.312921 -0.074879
C65   C     C_R   0.697529 0.697133 0.008519 -0.069229
C66   C     C_R   0.313299 0.312937 0.953759 -0.073540
Cu1   Cu    Cu3+1 0.995180 0.995180 0.424630 1.113924
Cu2   Cu    Cu3+1 0.004820 0.004820 0.575370 1.116369
Cu3   Cu    Cu3+1 0.995180 0.424630 0.995180 1.117170
Cu4   Cu    Cu3+1 0.004820 0.575370 0.004820 1.106292
Cu5   Cu    Cu3+1 0.424630 0.995180 0.995180 1.122013
Cu6   Cu    Cu3+1 0.575370 0.004820 0.004820 1.105195
H1    H     H_    0.493183 0.152584 0.497774 0.145940
H2    H     H_    0.500304 0.852625 0.505587 0.147956
H3    H     H_    0.865103 0.589203 0.585380 0.149681
H4    H     H_    0.136890 0.416137 0.408044 0.147074
H5    H     H_    0.580134 0.580391 0.899965 0.154434
H6    H     H_    0.404534 0.396760 0.164408 0.146289
H7    H     H_    0.409411 0.138581 0.414027 0.145337
H8    H     H_    0.583308 0.866619 0.589971 0.146056
H9    H     H_    0.498093 0.499526 0.879549 0.149543
H10   H     H_    0.487090 0.478499 0.184954 0.157231
H11   H     H_    0.851067 0.505418 0.501657 0.147934
H12   H     H_    0.150935 0.499202 0.492517 0.147274
O1    O     O_R   0.124540 0.978640 0.385460 -0.553546
O2    O     O_R   0.875460 0.021360 0.614540 -0.554519
O3    O     O_R   0.978640 0.385460 0.124540 -0.551176
O4    O     O_R   0.021360 0.614540 0.875460 -0.561673
O5    O     O_R   0.385460 0.124540 0.978640 -0.550028
O6    O     O_R   0.614540 0.875460 0.021360 -0.554398
O7    O     O_R   0.614540 0.021360 0.875460 -0.556567
O8    O     O_R   0.385460 0.978640 0.124540 -0.556768
O9    O     O_R   0.875460 0.614540 0.021360 -0.554627
O10   O     O_R   0.124540 0.385460 0.978640 -0.556403
O11   O     O_R   0.021360 0.875460 0.614540 -0.551256
O12   O     O_R   0.978640 0.124540 0.385460 -0.559798
O13   O     O_R   0.013780 0.867370 0.487190 -0.559817
O14   O     O_R   0.986220 0.132630 0.512810 -0.567771
O15   O     O_R   0.867370 0.487190 0.013780 -0.561095
O16   O     O_R   0.132630 0.512810 0.986220 -0.568854
O17   O     O_R   0.487190 0.013780 0.867370 -0.565994
O18   O     O_R   0.512810 0.986220 0.132630 -0.565214
O19   O     O_R   0.512810 0.132630 0.986220 -0.560093
O20   O     O_R   0.487190 0.867370 0.013780 -0.565871
O21   O     O_R   0.986220 0.512810 0.132630 -0.554596
O22   O     O_R   0.013780 0.487190 0.867370 -0.569282
O23   O     O_R   0.132630 0.986220 0.512810 -0.559623
O24   O     O_R   0.867370 0.013780 0.487190 -0.568753
C67   C     C_2   0.450462 0.062058 0.712510 0.896550
O25   O     O_2   0.407558 0.130162 0.735567 -0.574002
O26   O     O_R   0.406692 0.004509 0.715780 -0.737910
H13   H     H_    0.339635 0.026600 0.738150 0.344012
C68   C     C_2   0.506753 0.042336 0.262565 0.882302
O27   O     O_2   0.496403 0.113910 0.205852 -0.572695
O28   O     O_R   0.588291 0.000519 0.282827 -0.737138
H14   H     H_    0.633571 0.036030 0.246101 0.345235
C69   C     C_2   0.060252 0.712886 0.450742 0.900247
O29   O     O_2   0.128746 0.735508 0.406792 -0.578328
O30   O     O_R   0.001619 0.716829 0.408159 -0.729773
H15   H     H_    0.023316 0.739299 0.340940 0.339178
C70   C     C_2   0.039488 0.264310 0.507610 0.881977
O31   O     O_2   0.111508 0.208623 0.497472 -0.574328
O32   O     O_R   0.995928 0.284265 0.589370 -0.740557
H16   H     H_    0.030644 0.248203 0.635022 0.346042
C71   C     C_2   0.708908 0.449442 0.088169 0.893003
O33   O     O_2   0.738533 0.415021 0.152803 -0.575389
O34   O     O_R   0.704995 0.396310 0.043904 -0.735452
H17   H     H_    0.728361 0.330410 0.071822 0.339457
C72   C     C_2   0.253877 0.498909 0.060198 0.876620
O35   O     O_2   0.192687 0.486628 0.127780 -0.578747
O36   O     O_R   0.275952 0.579886 0.025896 -0.739362
H18   H     H_    0.236602 0.622970 0.062973 0.343029
C73   C     C_2   0.286633 0.942655 0.548624 0.902705
O37   O     O_2   0.264843 0.873784 0.593047 -0.575176
O38   O     O_R   0.281864 0.002242 0.590633 -0.729890
H19   H     H_    0.259518 0.980884 0.657893 0.341858
C74   C     C_2   0.734405 0.964188 0.490547 0.883677
O39   O     O_2   0.789205 0.891519 0.499988 -0.568894
O40   O     O_R   0.714850 0.009468 0.408800 -0.743333
H20   H     H_    0.750432 0.975351 0.362507 0.346485
C75   C     C_2   0.543479 0.283899 0.963973 0.909045
O41   O     O_2   0.591809 0.268589 0.893165 -0.574579
O42   O     O_R   0.580424 0.272884 0.030114 -0.722095
H21   H     H_    0.647804 0.252017 0.011506 0.342664
C76   C     C_2   0.454244 0.713921 0.048698 0.900021
O43   O     O_2   0.430159 0.755815 0.981006 -0.559210
O44   O     O_R   0.391757 0.695616 0.131307 -0.749646
H22   H     H_    0.328349 0.721729 0.126790 0.336336
C77   C     C_2   0.941540 0.548959 0.286817 0.905550
O45   O     O_2   0.872839 0.592710 0.265274 -0.564943
O46   O     O_R   0.000773 0.591716 0.281822 -0.730854
H23   H     H_    0.979353 0.658872 0.259539 0.340409
C78   C     C_2   0.962676 0.490542 0.735611 0.883061
O47   O     O_2   0.890384 0.499669 0.791475 -0.574071
O48   O     O_R   0.007158 0.409073 0.715386 -0.741552
H24   H     H_    0.972837 0.362696 0.751455 0.346148
C79   C     C_2   0.724531 0.093571 0.722109 0.915917
O49   O     O_2   0.773945 0.047836 0.769872 -0.540045
O50   O     O_R   0.701325 0.186324 0.701342 -0.730488
H25   H     H_    0.730359 0.207916 0.729032 0.358754
C80   C     C_2   0.279243 0.904443 0.277121 0.919209
O51   O     O_2   0.230424 0.948201 0.228453 -0.537685
O52   O     O_R   0.303718 0.811555 0.299628 -0.716839
H26   H     H_    0.277526 0.788178 0.270785 0.366037
C81   C     C_2   0.093807 0.722149 0.723866 0.919126
O53   O     O_2   0.048563 0.770724 0.772674 -0.539979
O54   O     O_R   0.186564 0.699117 0.702026 -0.726247
H27   H     H_    0.208559 0.725841 0.731637 0.361004
C82   C     C_2   0.904672 0.275598 0.280393 0.928003
O55   O     O_2   0.948470 0.229833 0.228674 -0.539022
O56   O     O_R   0.812256 0.291378 0.311177 -0.721550
H28   H     H_    0.789248 0.260845 0.286373 0.355972
C83   C     C_2   0.757385 0.756304 0.953918 0.915922
O57   O     O_2   0.776542 0.776125 0.872656 -0.586657
O58   O     O_R   0.790962 0.789403 0.995384 -0.694924
H29   H     H_    0.830629 0.828908 0.950926 0.348203
C84   C     C_2   0.280161 0.282689 0.903308 0.916305
O59   O     O_2   0.231080 0.233389 0.942744 -0.532641
O60   O     O_R   0.306189 0.310591 0.810293 -0.728268
H30   H     H_    0.279130 0.286493 0.782964 0.361969

loop_
_geom_bond_atom_site_label_1
_geom_bond_atom_site_label_2
_ccdc_geom_bond_type
C25   C31   A    
C39   C51   A    
C48   C78   S    
C26   C32   A    
C79   O49   D    
C6    C45   A    
C25   H8    S    
Cu2   O2    S    
C82   O55   D    
O44   H22   S    
C8    O12   A    
C57   C66   A    
Cu5   O20   S    
Cu4   O4    S    
C80   O51   D    
C77   O45   D    
O32   H16   S    
C21   C36   A    
C83   O57   D    
C22   C35   A    
C74   O40   S    
C45   C57   A    
C59   C64   A    
C81   O53   D    
C71   O33   D    
C20   C26   A    
C60   C63   A    
C17   O1    A    
C23   C29   A    
C15   O3    A    
C27   H12   S    
C41   C71   S    
C72   O35   D    
C77   O46   S    
C34   H5    S    
C76   O43   D    
C33   H6    S    
C62   C80   S    
C13   C57   S    
C10   O10   A    
O42   H21   S    
C55   C62   A    
C29   C33   A    
C3    C48   A    
C37   C49   A    
Cu2   O14   S    
C16   C60   S    
C64   C82   S    
C43   C73   S    
C8    O14   A    
C14   O6    A    
C1    C44   A    
C67   O26   S    
C76   O44   S    
Cu5   O8    S    
O26   H13   S    
C84   O60   S    
C5    C23   S    
O46   H23   S    
Cu2   O23   S    
C13   O19   A    
C53   C65   A    
C8    C52   S    
C37   C67   S    
Cu3   O3    S    
C16   O22   A    
C13   O5    A    
C17   O23   A    
C4    C22   S    
Cu5   O17   S    
C3    C39   A    
C79   O50   S    
C22   C28   A    
C46   C58   A    
C28   H11   S    
C45   C75   S    
C82   O56   S    
C10   C54   S    
C19   C32   A    
C80   O52   S    
Cu4   O16   S    
C48   C60   A    
C18   O24   A    
C83   O58   S    
C14   C58   S    
C66   C84   S    
C16   O4    A    
C35   H4    S    
Cu1   O1    S    
Cu2   O11   S    
C49   C61   A    
C30   C34   A    
C2    C20   S    
Cu1   Cu2   S    
C47   C77   S    
O38   H19   S    
Cu4   O9    S    
C51   C63   A    
C11   C49   S    
Cu3   O10   S    
C52   C64   A    
C32   H1    S    
C38   C68   S    
C31   H2    S    
C27   C35   A    
C40   C52   A    
C1    C19   S    
C75   O42   S    
C12   O18   A    
C40   C70   S    
C36   H3    S    
C61   C79   S    
Cu6   O6    S    
C44   C56   A    
C58   C65   A    
C14   O20   A    
O50   H25   S    
Cu5   O5    S    
C2    C43   A    
O40   H20   S    
C23   C34   A    
C6    C24   S    
C11   O17   A    
C18   O2    A    
C10   O16   A    
O56   H28   S    
C41   C53   A    
C70   O31   D    
C44   C74   S    
C54   C66   A    
Cu3   O15   S    
C43   C55   A    
Cu1   O12   S    
C50   C62   A    
C3    C21   S    
C78   O48   S    
Cu1   O24   S    
O36   H18   S    
C9    O9    A    
O54   H27   S    
C71   O34   S    
C68   O27   D    
C5    C46   A    
Cu6   O7    S    
C5    C41   A    
Cu3   O22   S    
C7    O13   A    
C65   C83   S    
C15   C59   S    
C12   O8    A    
C26   H7    S    
Cu4   O21   S    
C12   C50   S    
O30   H15   S    
C38   C50   A    
Cu6   O19   S    
C18   C56   S    
C7    O11   A    
C74   O39   D    
C9    O15   A    
C24   C33   A    
C4    C40   A    
C2    C38   A    
C15   O21   A    
C30   H9    S    
C69   O30   S    
C7    C51   S    
Cu5   Cu6   S    
O58   H29   S    
C39   C69   S    
C75   O41   D    
C42   C54   A    
O28   H14   S    
C73   O37   D    
Cu6   O18   S    
C17   C55   S    
C42   C72   S    
C21   C27   A    
Cu3   Cu4   S    
C19   C25   A    
C24   C30   A    
C70   O32   S    
O52   H26   S    
Cu1   O13   S    
C47   C59   A    
O60   H30   S    
C46   C76   S    
C11   O7    A    
C63   C81   S    
C9    C53   S    
C29   H10   S    
C28   C36   A    
C81   O54   S    
C84   O59   D    
C6    C42   A    
C67   O25   D    
O48   H24   S    
C73   O38   S    
C56   C61   A    
C68   O28   S    
C78   O47   D    
C69   O29   D    
C20   C31   A    
O34   H17   S    
C1    C37   A    
C72   O36   S    
C4    C47   A    
