data_mof_unit_6373.cif
_audit_creation_date              2012-12-10T18:45:03-0500
_audit_creation_method            fapswitch 2.2
_symmetry_space_group_name_H-M    P1
_symmetry_Int_Tables_number       1
_space_group_crystal_system       triclinic
_cell_length_a                    10.691973
_cell_length_b                    9.883897
_cell_length_c                    10.617708
_cell_angle_alpha                 89.968625
_cell_angle_beta                  90.508109
_cell_angle_gamma                 90.034933
_cell_volume                      1122.0174717

loop_
_atom_site_label
_atom_site_type_symbol
_atom_type_description
_atom_site_fract_x
_atom_site_fract_y
_atom_site_fract_z
_atom_type_partial_charge
C1    C     C_R   0.260049 0.499924 0.500011 0.822028
C2    C     C_R   0.739916 0.499973 0.500423 0.959785
C3    C     C_R   0.936315 0.616764 0.537997 -0.122345
C4    C     C_R   0.064474 0.616736 0.537844 -0.179035
C5    C     C_R   0.577184 0.070990 0.579654 0.383363
C6    C     C_R   0.423298 0.070900 0.419908 0.392183
C7    C     C_R   0.576866 0.927627 0.579384 -0.127085
C8    C     C_R   0.423419 0.927579 0.420377 -0.121283
C9    C     C_R   0.499904 0.500032 0.260731 0.966152
C10   C     C_R   0.499591 0.499977 0.739280 0.969909
C11   C     C_R   0.265978 0.479264 0.129355 -0.094425
C12   C     C_R   0.265735 0.479322 0.867067 -0.138149
C13   C     C_R   0.153270 0.469382 0.062859 -0.071390
C14   C     C_R   0.153140 0.469492 0.931795 -0.081245
C15   C     C_R   0.380927 0.489265 0.933286 0.037630
C16   C     C_R   0.381036 0.489291 0.064903 0.049336
C17   C     C_R   0.496771 0.499943 0.128392 -0.243192
C18   C     C_R   0.496576 0.499814 0.871598 -0.244762
C19   C     C_R   0.611004 0.510237 0.065859 0.325798
C20   C     C_R   0.610902 0.510197 0.935951 0.352903
C21   C     C_R   0.063507 0.382840 0.464477 -0.172020
C22   C     C_R   0.935454 0.382871 0.464510 -0.113672
C23   C     C_R   0.872392 0.499907 0.501013 0.007073
C24   C     C_R   0.127522 0.499848 0.500749 -0.042678
H1    H     H_    0.262129 0.479074 0.231053 0.131824
H2    H     H_    0.261702 0.479208 0.765352 0.120435
H3    H     H_    0.065907 0.461768 0.113174 0.194202
H4    H     H_    0.065666 0.462031 0.880102 0.197693
H5    H     H_    0.111941 0.292214 0.435111 0.210135
H6    H     H_    0.886137 0.292317 0.434933 0.184720
H7    H     H_    0.887590 0.707227 0.567769 0.174290
H8    H     H_    0.113882 0.707197 0.567495 0.173825
H9    H     H_    0.638352 0.872700 0.642713 0.189257
H10   H     H_    0.362305 0.872631 0.356702 0.181945
N1    N     N_R   0.500000 0.857200 0.500000 -0.129845
N2    N     N_R   0.500000 0.142810 0.500000 -0.150333
O1    O     O_R   0.316770 0.614620 0.499990 -0.636474
O2    O     O_R   0.683230 0.614620 0.500010 -0.619192
O3    O     O_R   0.316800 0.385290 0.500000 -0.595042
O4    O     O_R   0.683200 0.385290 0.500000 -0.582893
O5    O     O_R   0.500010 0.614690 0.316770 -0.609341
O6    O     O_R   0.499990 0.614690 0.683230 -0.615469
O7    O     O_R   0.500040 0.385360 0.316770 -0.561218
O8    O     O_R   0.499960 0.385360 0.683230 -0.563173
Zn1   Zn    Zn3+2 0.500000 0.653120 0.500000 0.990339
Zn2   Zn    Zn3+2 0.500000 0.346880 0.500000 1.068158
Cl1   Cl    Cl    0.754361 0.522045 0.150412 -0.577495
Cl2   Cl    Cl    0.754101 0.522165 0.853652 -0.555582
Cl3   Cl    Cl    0.679420 0.154163 0.683950 -0.530368
Cl4   Cl    Cl    0.323262 0.153727 0.313362 -0.605278

loop_
_geom_bond_atom_site_label_1
_geom_bond_atom_site_label_2
_ccdc_geom_bond_type
C15   C18   A    
C6    C8    A    
N2    Zn2   S    
C10   O6    A    
C7    H9    S    
C11   C16   A    
C2    O2    A    
C9    O5    A    
C19   C20   A    
C12   C15   A    
C1    O1    A    
C12   C14   A    
C20   Cl2   S    
C21   C22   A    
C6    Cl4   S    
C3    H7    S    
C11   C13   A    
C11   H1    S    
C5    Cl3   S    
C4    H8    S    
C7    N1    A    
C10   C18   S    
O3    Zn2   S    
C10   O8    A    
C9    C17   S    
C17   C19   A    
C6    N2    A    
O5    Zn1   S    
C18   C20   A    
C4    C24   A    
O7    Zn2   S    
C19   Cl1   S    
C9    O7    A    
O4    Zn2   S    
O1    Zn1   S    
C15   C16   A    
N1    Zn1   S    
C5    N2    A    
C2    O4    A    
C1    C24   S    
C21   C24   A    
C12   H2    S    
C2    C23   S    
C5    C7    A    
C1    O3    A    
C22   C23   A    
C13   H3    S    
O2    Zn1   S    
C8    H10   S    
C22   H6    S    
C14   H4    S    
C3    C23   A    
C13   C14   A    
C21   H5    S    
C8    N1    A    
C3    C4    A    
O8    Zn2   S    
C16   C17   A    
O6    Zn1   S    
