data_mof_unit_61255.cif
_audit_creation_date              2013-03-05T17:00:59-0500
_audit_creation_method            fapswitch 2.2
_symmetry_space_group_name_H-M    P1
_symmetry_Int_Tables_number       1
_space_group_crystal_system       triclinic
_cell_length_a                    15.187313
_cell_length_b                    16.25485
_cell_length_c                    16.695321
_cell_angle_alpha                 91.262248
_cell_angle_beta                  90.719737
_cell_angle_gamma                 108.43722
_cell_volume                      3908.19948212

loop_
_atom_site_label
_atom_site_type_symbol
_atom_site_description
_atom_site_fract_x
_atom_site_fract_y
_atom_site_fract_z
_atom_type_partial_charge
O1    O     O_R   0.503890 0.423710 0.387290 -0.568872
O2    O     O_R   0.496110 0.576290 0.612710 -0.571372
O3    O     O_R   0.496910 0.560910 0.381140 -0.579824
O4    O     O_R   0.503090 0.439090 0.618860 -0.580880
C1    C     C_R   0.500358 0.490053 0.347494 1.080522
C2    C     C_R   0.499754 0.510017 0.652447 0.968231
O5    O     O_R   0.373240 0.392210 0.504830 -0.565419
O6    O     O_R   0.626760 0.607790 0.495170 -0.558096
O7    O     O_R   0.366260 0.529410 0.498680 -0.570045
O8    O     O_R   0.633740 0.470590 0.501320 -0.563568
C3    C     C_R   0.325659 0.446492 0.505827 0.921207
C4    C     C_R   0.674781 0.553892 0.497571 0.965659
Zn1   Zn    Zn3+2 0.504660 0.408390 0.504100 1.138955
Zn2   Zn    Zn3+2 0.495340 0.591610 0.495900 1.134186
C5    C     C_R   0.227360 0.417320 0.531563 -0.333904
C6    C     C_R   0.777414 0.587843 0.509233 -0.303279
C7    C     C_R   0.099313 0.314210 0.601163 0.259853
C8    C     C_R   0.919502 0.708723 0.537781 0.251381
C9    C     C_R   0.187536 0.335543 0.566591 0.203877
C10   C     C_R   0.826107 0.677905 0.510416 0.218195
C11   C     C_R   0.178350 0.478011 0.534030 0.246846
C12   C     C_R   0.825999 0.529308 0.526484 0.271320
C13   C     C_R   0.096848 0.461232 0.578694 -0.078875
C14   C     C_R   0.913523 0.559746 0.565583 -0.081502
C15   C     C_R   0.050583 0.375663 0.603339 -0.212212
C16   C     C_R   0.963198 0.649936 0.567897 -0.208075
C17   C     C_R   0.054407 0.526259 0.590336 -0.090614
C18   C     C_R   0.958167 0.500744 0.592392 -0.102287
C19   C     C_R   0.911433 0.418287 0.623251 0.434518
C20   C     C_R   0.103556 0.615308 0.605224 0.445445
C21   C     C_R   0.957089 0.355644 0.628390 0.304506
C22   C     C_R   0.057069 0.677078 0.596176 0.311323
C23   C     C_R   0.496148 0.486119 0.261339 -0.222331
C24   C     C_R   0.502670 0.513583 0.738551 -0.303485
C25   C     C_R   0.569204 0.543767 0.220570 0.360459
C26   C     C_R   0.427135 0.458490 0.779711 0.371831
C27   C     C_R   0.557575 0.556666 0.139007 0.370363
C28   C     C_R   0.439579 0.440004 0.858892 0.470743
C29   C     C_R   0.474872 0.506406 0.098683 0.021461
C30   C     C_R   0.524133 0.484285 0.899612 -0.038488
C31   C     C_R   0.401578 0.449353 0.140071 0.150534
C32   C     C_R   0.599288 0.539851 0.858978 0.145877
C33   C     C_R   0.411622 0.440562 0.222952 0.324245
C34   C     C_R   0.589196 0.552615 0.776736 0.375606
N1    N     N_2   0.468188 0.506587 0.014954 -0.091383
N2    N     N_2   0.530147 0.482683 0.983399 -0.077112
N3    N     N_R   0.489120 0.713640 0.490430 -0.208568
N4    N     N_R   0.510880 0.286360 0.509570 -0.206856
C35   C     C_R   0.526893 0.772251 0.552004 0.241234
C36   C     C_R   0.473634 0.228087 0.447564 0.239076
C37   C     C_R   0.531600 0.860941 0.547013 0.302355
C38   C     C_R   0.468591 0.139220 0.452168 0.296461
C39   C     C_R   0.492958 0.888385 0.479059 0.128268
C40   C     C_R   0.505682 0.111024 0.520530 0.127526
C41   C     C_R   0.455002 0.827410 0.416719 0.062551
C42   C     C_R   0.542229 0.171314 0.583607 0.057667
C43   C     C_R   0.454640 0.740654 0.422925 0.305409
C44   C     C_R   0.542962 0.258205 0.577704 0.314925
N5    N     N_2   0.493902 0.976404 0.468529 0.022261
N6    N     N_2   0.504552 0.022912 0.530824 0.026238
N7    N     N_R   0.904339 0.270595 0.652688 0.267980
O9    O     O_R   0.873328 0.259311 0.725247 -0.194679
O10   O     O_R   0.871404 0.209303 0.598588 -0.246456
N8    N     N_R   0.104633 0.765634 0.619658 0.265008
O11   O     O_R   0.071678 0.802334 0.676807 -0.250906
O12   O     O_R   0.187457 0.804630 0.593674 -0.215365
N9    N     N_R   0.436769 0.256096 0.378093 0.233718
O13   O     O_R   0.353450 0.262036 0.379171 -0.254460
O14   O     O_R   0.478089 0.258599 0.309951 -0.307638
N10   N     N_R   0.563022 0.744393 0.622017 0.235450
O15   O     O_R   0.644424 0.734078 0.620800 -0.276611
O16   O     O_R   0.522419 0.744158 0.690225 -0.304362
O17   O     O_3   0.425056 0.078679 0.392829 -0.629202
H1    H     H_    0.391439 0.103725 0.354236 0.406871
O18   O     O_3   0.576194 0.921978 0.605608 -0.626878
H2    H     H_    0.612026 0.897668 0.642835 0.407709
N11   N     N_R   0.416049 0.853347 0.346385 0.281171
O19   O     O_R   0.335120 0.806368 0.318055 -0.216647
O20   O     O_R   0.461915 0.923155 0.309528 -0.233076
N12   N     N_R   0.579630 0.144579 0.654367 0.282492
O21   O     O_R   0.659922 0.191304 0.684128 -0.194755
O22   O     O_R   0.532900 0.074385 0.690252 -0.222623
N13   N     N_R   0.424326 0.683159 0.354821 0.260702
O23   O     O_R   0.465975 0.702587 0.286885 -0.313115
O24   O     O_R   0.347974 0.618268 0.356971 -0.262568
N14   N     N_R   0.571364 0.314690 0.646573 0.270801
O25   O     O_R   0.530455 0.293160 0.714542 -0.301649
O26   O     O_R   0.643012 0.383969 0.643746 -0.310701
N15   N     N_R   0.802167 0.448137 0.481891 0.236155
O27   O     O_R   0.842408 0.444700 0.414162 -0.284124
O28   O     O_R   0.746175 0.377063 0.509936 -0.295940
N16   N     N_R   0.199031 0.546964 0.477742 0.251065
O29   O     O_R   0.150190 0.536190 0.411530 -0.258742
O30   O     O_R   0.255830 0.623571 0.496805 -0.305240
N17   N     N_R   0.785625 0.736695 0.473085 0.250074
O31   O     O_R   0.754072 0.721676 0.399578 -0.291835
O32   O     O_R   0.784679 0.807537 0.510265 -0.248868
N18   N     N_R   0.236313 0.273230 0.568473 0.244828
O33   O     O_R   0.274500 0.260213 0.635134 -0.264310
O34   O     O_R   0.228848 0.219738 0.507825 -0.249212
N19   N     N_R   0.063835 0.232185 0.638874 0.253876
O35   O     O_R   0.049206 0.160438 0.597074 -0.199353
O36   O     O_R   0.060843 0.229542 0.716648 -0.226553
N20   N     N_R   0.972381 0.797329 0.524434 0.250130
O37   O     O_R   0.032595 0.815760 0.467438 -0.250030
O38   O     O_R   0.960125 0.859658 0.568509 -0.188329
O39   O     O_3   0.824945 0.399794 0.656366 -0.619173
H3    H     H_    0.814353 0.455307 0.670955 0.358712
O40   O     O_3   0.192205 0.642880 0.638655 -0.651672
H4    H     H_    0.208118 0.592172 0.658306 0.345578
O41   O     O_3   0.341374 0.418179 0.743549 -0.619058
H5    H     H_    0.336028 0.447548 0.693256 0.299655
O42   O     O_3   0.649200 0.588913 0.263479 -0.680440
H6    H     H_    0.695653 0.625664 0.227317 0.428464
O43   O     O_3   0.367042 0.379594 0.895428 -0.576157
H7    H     H_    0.391234 0.358646 0.943585 0.377887
O44   O     O_3   0.627185 0.618321 0.100404 -0.655786
H8    H     H_    0.601730 0.634225 0.050308 0.390995
N21   N     N_R   0.319060 0.398405 0.097132 0.227778
O45   O     O_R   0.278115 0.434648 0.046345 -0.250890
O46   O     O_R   0.287495 0.314805 0.105424 -0.264042
N22   N     N_R   0.683672 0.585789 0.902154 0.227983
O47   O     O_R   0.719948 0.545799 0.953264 -0.256803
O48   O     O_R   0.721388 0.668965 0.894200 -0.270222
O49   O     O_3   0.339435 0.392290 0.269048 -0.648805
H9    H     H_    0.279879 0.381110 0.239298 0.400087
O50   O     O_3   0.662922 0.598686 0.730957 -0.669921
H10   H     H_    0.722055 0.603165 0.759101 0.377960

loop_
_geom_bond_atom_site_label_1
_geom_bond_atom_site_label_2
_geom_bond_distance
_ccdc_geom_bond_type
C15   C21   1.423253 A    
C28   C30   1.414627 A    
C34   O50   1.383840 S    
C16   C22   1.423407 A    
N19   O35   1.301083 A    
O17   H1    0.988083 S    
C21   N7    1.431743 S    
N17   O31   1.301286 A    
C8    C16   1.421343 A    
O18   H2    0.988382 S    
C33   O49   1.383309 S    
N20   O38   1.300966 A    
C39   N5    1.440946 S    
C29   C31   1.403988 A    
C40   N6    1.441018 S    
N11   O19   1.301279 A    
C30   N2    1.402045 S    
O1    C1    1.294023 A    
C18   C19   1.415471 A    
C25   C27   1.399772 A    
C14   C16   1.420249 A    
C41   N11   1.438300 S    
N14   O26   1.297284 A    
O43   H7    0.990508 S    
O4    Zn1   1.971555 S    
N7    O10   1.300908 A    
C7    N19   1.433717 S    
C23   C25   1.400664 A    
C5    C9    1.417531 A    
C3    C5    1.488468 S    
C4    C6    1.488493 S    
C35   C37   1.425000 A    
C1    C23   1.438110 S    
C36   C38   1.426001 A    
O39   H3    0.991252 S    
C43   N13   1.430414 S    
N10   O15   1.299433 A    
C13   C17   1.412641 A    
N15   O28   1.299791 A    
C36   N9    1.426232 S    
C24   C26   1.409726 A    
C6    C10   1.415620 A    
C29   N1    1.400433 S    
N21   O46   1.301354 A    
N11   O20   1.301161 A    
N5    N6    1.250253 D    
N19   O36   1.300997 A    
C17   C20   1.417819 A    
C31   C33   1.405555 A    
O2    C2    1.293035 A    
C32   C34   1.406852 A    
C44   N14   1.428848 S    
N20   O37   1.301015 A    
C9    N18   1.432168 S    
C38   C40   1.414282 A    
C39   C41   1.405702 A    
C40   C42   1.404737 A    
C20   O40   1.383282 S    
N9    O13   1.299473 A    
C23   C33   1.401495 A    
C24   C34   1.403412 A    
C22   N8    1.434517 S    
N12   O22   1.301181 A    
C38   O17   1.384223 S    
N14   O25   1.301481 A    
N1    N2    1.244453 D    
C2    C24   1.436995 S    
C6    C12   1.408369 A    
C37   C39   1.414811 A    
N8    O12   1.301436 A    
O5    C3    1.305359 A    
O7    Zn2   1.902134 S    
N3    C43   1.374627 A    
C30   C32   1.404694 A    
N13   O23   1.301424 A    
C5    C11   1.411512 A    
O6    C4    1.306154 A    
C26   O41   1.383208 S    
N16   O30   1.300855 A    
C8    N20   1.433875 S    
C31   N21   1.437048 S    
O7    C3    1.301660 A    
O3    Zn2   1.971555 S    
O8    C4    1.302603 A    
O4    C2    1.286612 A    
N13   O24   1.299066 A    
C10   N17   1.438002 S    
N18   O34   1.300052 A    
C35   N10   1.427168 S    
C41   C43   1.414559 A    
O49   H9    0.989247 S    
C12   C14   1.409193 A    
O1    Zn1   1.971806 S    
N22   O48   1.301406 A    
O50   H10   0.989531 S    
C32   N22   1.437822 S    
O42   H6    0.989503 S    
O6    Zn2   1.929174 S    
O41   H5    0.989939 S    
C14   C18   1.415069 A    
C37   O18   1.384061 S    
N12   O21   1.301164 A    
O3    C1    1.286569 A    
O8    Zn1   1.902132 S    
Zn1   N4    2.019440 S    
N21   O45   1.301224 A    
N17   O32   1.300284 A    
N4    C44   1.375077 A    
Zn2   N3    2.019441 S    
N3    C35   1.374734 A    
C42   N12   1.438399 S    
C7    C15   1.418994 A    
N8    O11   1.300970 A    
C11   C13   1.407542 A    
N15   O27   1.300540 A    
C27   C29   1.415538 A    
O40   H4    0.990632 S    
C26   C28   1.385888 A    
C20   C22   1.407763 A    
C28   O43   1.381643 S    
N4    C36   1.375516 A    
N16   O29   1.300615 A    
C7    C9    1.408193 A    
C12   N15   1.440155 S    
C42   C44   1.414553 A    
C25   O42   1.385213 S    
C8    C10   1.412725 A    
C13   C15   1.418420 A    
N7    O9    1.300926 A    
O2    Zn2   1.971806 S    
O5    Zn1   1.929176 S    
C27   O44   1.383044 S    
C19   C21   1.404972 A    
N18   O33   1.300584 A    
C17   C18   1.388525 A    
C19   O39   1.377379 S    
N10   O16   1.301296 A    
N9    O14   1.301361 A    
N22   O47   1.301290 A    
O44   H8    0.990175 S    
C11   N16   1.438448 S    
