data_mof_unit_63859.cif
_audit_creation_date              2013-03-05T16:43:43-0500
_audit_creation_method            fapswitch 2.2
_symmetry_space_group_name_H-M    P1
_symmetry_Int_Tables_number       1
_space_group_crystal_system       triclinic
_cell_length_a                    10.862957
_cell_length_b                    19.227013
_cell_length_c                    19.195775
_cell_angle_alpha                 95.052366
_cell_angle_beta                  92.178659
_cell_angle_gamma                 95.869191
_cell_volume                      3968.28394469

loop_
_atom_site_label
_atom_site_type_symbol
_atom_site_description
_atom_site_fract_x
_atom_site_fract_y
_atom_site_fract_z
_atom_type_partial_charge
Zn1   Zn    Zn3+2 0.396020 0.434560 0.434560 0.989738
Zn2   Zn    Zn3+2 0.611960 0.561120 0.448760 0.994277
Zn3   Zn    Zn3+2 0.595990 0.448060 0.560420 1.058352
Zn4   Zn    Zn3+2 0.396040 0.556260 0.556260 1.054752
O1    O     O_3   0.500000 0.500000 0.500000 -0.513190
O2    O     O_R   0.435110 0.654980 0.544320 -0.641954
O3    O     O_R   0.419350 0.338590 0.449260 -0.645992
O4    O     O_R   0.586210 0.538520 0.349230 -0.642578
O5    O     O_R   0.559330 0.467910 0.657200 -0.620135
O6    O     O_R   0.783160 0.551820 0.473170 -0.636290
O7    O     O_R   0.222430 0.530340 0.530340 -0.587986
O8    O     O_R   0.771990 0.472690 0.551320 -0.625013
O9    O     O_R   0.222420 0.445150 0.445160 -0.642523
O10   O     O_R   0.435070 0.449940 0.339290 -0.652024
O11   O     O_R   0.419380 0.543640 0.654290 -0.624196
O12   O     O_R   0.586230 0.658380 0.469080 -0.634439
O13   O     O_R   0.559310 0.348040 0.537340 -0.604572
C1    C     C_R   0.512619 0.690046 0.508711 0.826598
C2    C     C_R   0.486156 0.309947 0.492466 0.865190
C3    C     C_R   0.512557 0.492660 0.310963 0.814194
C4    C     C_R   0.487147 0.506949 0.689199 0.843537
C5    C     C_R   0.834431 0.514319 0.515232 0.800621
C6    C     C_R   0.164055 0.485391 0.485542 0.939762
C7    C     C_2   0.030145 0.483468 0.478770 -0.477257
H1    H     H_    0.982319 0.453747 0.433019 0.137261
C8    C     C_2   0.966282 0.519650 0.525574 0.196889
C9    C     C_R   0.482402 0.233310 0.489631 -0.120242
C10   C     C_R   0.495431 0.199028 0.551307 0.273109
C11   C     C_R   0.505977 0.126904 0.545565 -0.181266
C12   C     C_R   0.500157 0.087887 0.479431 0.264624
C13   C     C_R   0.484539 0.122288 0.419112 -0.168851
C14   C     C_R   0.475195 0.194288 0.424035 -0.252885
C15   C     C_R   0.561058 0.878053 0.465578 -0.199780
C16   C     C_R   0.566078 0.805713 0.461743 -0.194763
C17   C     C_R   0.505215 0.912792 0.522025 0.222059
N1    N     N_2   0.507542 0.014203 0.471644 -0.171744
N2    N     N_2   0.500915 0.986511 0.527910 -0.121566
C18   C     C_R   0.515028 0.766822 0.513855 -0.060206
H2    H     H_    0.465816 0.219947 0.376362 0.177583
C19   C     C_R   0.462074 0.801342 0.570870 -0.249719
C20   C     C_R   0.456801 0.874036 0.575822 0.288630
H3    H     H_    0.423204 0.771346 0.611491 0.214479
H4    H     H_    0.516539 0.101311 0.593142 0.216982
C21   C     C_R   0.484190 0.509585 0.765950 -0.028825
C22   C     C_R   0.550327 0.463804 0.802016 -0.164937
C23   C     C_R   0.550709 0.466300 0.874611 -0.128739
C24   C     C_R   0.484415 0.514914 0.912978 0.329997
C25   C     C_R   0.418803 0.560722 0.876940 -0.154973
C26   C     C_R   0.417961 0.557975 0.803926 -0.167405
C27   C     C_R   0.594090 0.535999 0.128418 0.309503
C28   C     C_R   0.586962 0.540675 0.201515 -0.275555
C29   C     C_R   0.528043 0.477948 0.087866 0.218451
N3    N     N_2   0.483573 0.520192 0.987323 -0.136070
N4    N     N_2   0.527757 0.470813 0.014075 -0.158788
C30   C     C_R   0.517898 0.488087 0.234225 -0.059046
H5    H     H_    0.637079 0.584871 0.232972 0.209509
H6    H     H_    0.368000 0.598613 0.905612 0.171398
C31   C     C_R   0.455592 0.430216 0.193233 -0.198885
C32   C     C_R   0.461607 0.425084 0.120765 -0.216893
H7    H     H_    0.412568 0.380186 0.089817 0.176498
H8    H     H_    0.602345 0.425955 0.774162 0.200560
N5    N     N_R   0.493951 0.235854 0.619825 0.225067
O14   O     O_R   0.415188 0.281523 0.632491 -0.373937
O15   O     O_R   0.558456 0.216739 0.672010 -0.347201
N6    N     N_R   0.670916 0.588831 0.096685 0.219270
O16   O     O_R   0.728553 0.572536 0.040298 -0.347927
O17   O     O_R   0.694447 0.651833 0.128182 -0.361400
H9    H     H_    0.366578 0.594045 0.777339 0.194769
H10   H     H_    0.402661 0.388582 0.217160 0.181868
H11   H     H_    0.603842 0.430506 0.900433 0.175074
N7    N     N_R   0.018596 0.550793 0.592492 0.233625
O18   O     O_R   0.986728 0.611178 0.617324 -0.366157
O19   O     O_R   0.070775 0.512134 0.634927 -0.343555
H12   H     H_    0.607906 0.780076 0.417466 0.184343
H13   H     H_    0.601487 0.906849 0.424574 0.179876
H14   H     H_    0.479806 0.093098 0.368013 0.164615
N8    N     N_R   0.400515 0.907270 0.635145 0.223773
O20   O     O_R   0.390953 0.876650 0.692825 -0.341210
O21   O     O_R   0.350734 0.965579 0.630771 -0.336160

loop_
_geom_bond_atom_site_label_1
_geom_bond_atom_site_label_2
_geom_bond_distance
_ccdc_geom_bond_type
C21   C26   1.404262 A    
C19   C20   1.399721 A    
C26   H9    1.082971 S    
C25   H6    1.083020 S    
N3    N4    1.247308 D    
O6    C5    1.277685 A    
N5    O14   1.301552 A    
Zn1   O1    1.939072 S    
C10   C11   1.398137 A    
C17   N2    1.417627 S    
C7    C8    1.344781 D    
C20   N8    1.443469 S    
C12   C13   1.396362 A    
O8    C5    1.266088 A    
O9    C6    1.278099 A    
C28   H5    1.083108 S    
C14   H2    1.083485 S    
C22   H8    1.083192 S    
N5    O15   1.301430 A    
Zn3   O8    1.940322 S    
O13   C2    1.275820 A    
C15   H13   1.082702 S    
C13   C14   1.393585 A    
N6    O17   1.301588 A    
C27   C29   1.416759 A    
C6    C7    1.451925 S    
C2    C9    1.466040 S    
C24   N3    1.422207 S    
C19   H3    1.083212 S    
C32   H7    1.083266 S    
C16   C18   1.398730 A    
C11   H4    1.082635 S    
C8    N7    1.439080 S    
C3    C30   1.471640 S    
C29   N4    1.410888 S    
C15   C16   1.393098 A    
N8    O21   1.301338 A    
O2    C1    1.280456 A    
O10   C3    1.284885 A    
C7    H1    1.088084 S    
Zn4   O2    1.937697 S    
N7    O19   1.301929 A    
C31   C32   1.390373 A    
N8    O20   1.301690 A    
C11   C12   1.412402 A    
Zn3   O5    1.928211 S    
C29   C32   1.396600 A    
C4    C21   1.471392 S    
C24   C25   1.400182 A    
C27   C28   1.403706 A    
O4    C3    1.286137 A    
Zn4   O7    1.935298 S    
C16   H12   1.083147 S    
C25   C26   1.397558 A    
O3    C2    1.278370 A    
Zn2   O1    1.957002 S    
Zn1   O9    1.933789 S    
Zn2   O6    1.930458 S    
Zn2   O12   1.927163 S    
C21   C22   1.403253 A    
C23   C24   1.411176 A    
N1    N2    1.246832 D    
C9    C14   1.403074 A    
Zn1   O3    1.931473 S    
Zn2   O4    1.924985 S    
Zn4   O1    1.936118 S    
Zn3   O1    1.937725 S    
C31   H10   1.083080 S    
C12   N1    1.422214 S    
Zn4   O11   1.928968 S    
C1    C18   1.468246 S    
N7    O18   1.300897 A    
C18   C19   1.402585 A    
O5    C4    1.277238 A    
C13   H14   1.083089 S    
O7    C6    1.266515 A    
C15   C17   1.411937 A    
Zn3   O13   1.932125 S    
C28   C30   1.404258 A    
C17   C20   1.412437 A    
C27   N6    1.440015 S    
C23   H11   1.082608 S    
C22   C23   1.389955 A    
O11   C4    1.280847 A    
O12   C1    1.285720 A    
N6    O16   1.301405 A    
C5    C8    1.430436 S    
C30   C31   1.402364 A    
C9    C10   1.414209 A    
Zn1   O10   1.934012 S    
C10   N5    1.439229 S    
