data_mof_unit_61822.cif
_audit_creation_date              2012-12-10T21:41:18-0500
_audit_creation_method            fapswitch 2.2
_symmetry_space_group_name_H-M    P1
_symmetry_Int_Tables_number       1
_space_group_crystal_system       triclinic
_cell_length_a                    23.788054
_cell_length_b                    23.68941
_cell_length_c                    16.128854
_cell_angle_alpha                 89.999636
_cell_angle_beta                  94.736001
_cell_angle_gamma                 89.999978
_cell_volume                      9057.97930823

loop_
_atom_site_label
_atom_site_type_symbol
_atom_type_description
_atom_site_fract_x
_atom_site_fract_y
_atom_site_fract_z
_atom_type_partial_charge
C1    C     C_R   0.575675 0.077149 0.511834 1.015716
C2    C     C_R   0.424376 0.922529 0.488213 1.003847
C3    C     C_R   0.424325 0.077149 0.488165 1.015709
C4    C     C_R   0.575623 0.922529 0.511787 1.003844
C5    C     C_R   0.075675 0.577148 0.511834 1.015709
C6    C     C_R   0.924377 0.422528 0.488213 1.003816
C7    C     C_R   0.924325 0.577148 0.488165 1.015705
C8    C     C_R   0.075624 0.422529 0.511787 1.003824
C9    C     C_R   0.515627 0.999968 0.110955 0.071820
C10   C     C_R   0.484373 0.999968 0.889045 0.071820
C11   C     C_R   0.015627 0.499968 0.110955 0.071812
C12   C     C_R   0.984373 0.499967 0.889045 0.071819
C13   C     C_R   0.564559 0.997667 0.165451 -0.461925
C14   C     C_R   0.435440 0.997667 0.834549 -0.461923
C15   C     C_R   0.064560 0.497671 0.165451 -0.461924
C16   C     C_R   0.935440 0.497669 0.834549 -0.461930
C17   C     C_R   0.561157 0.996559 0.252555 0.570830
C18   C     C_R   0.438843 0.996559 0.747444 0.570828
C19   C     C_R   0.061157 0.496562 0.252556 0.570832
C20   C     C_R   0.938842 0.496561 0.747444 0.570837
C21   C     C_R   0.616743 0.876986 0.520297 -0.446428
C22   C     C_R   0.385326 0.124030 0.478757 -0.462135
C23   C     C_R   0.383256 0.876987 0.479703 -0.446425
C24   C     C_R   0.614676 0.124028 0.521243 -0.462124
C25   C     C_R   0.116745 0.376987 0.520297 -0.446439
C26   C     C_R   0.885323 0.624027 0.478756 -0.462153
C27   C     C_R   0.883257 0.376985 0.479705 -0.446435
C28   C     C_R   0.114677 0.624028 0.521243 -0.462149
C29   C     C_R   0.620584 0.839772 0.453341 0.446175
C30   C     C_R   0.390136 0.167970 0.537048 0.503163
C31   C     C_R   0.379414 0.839772 0.546659 0.446176
C32   C     C_R   0.609867 0.167969 0.462952 0.503157
C33   C     C_R   0.120592 0.339777 0.453338 0.446173
C34   C     C_R   0.890130 0.667967 0.537048 0.503167
C35   C     C_R   0.879409 0.339778 0.546668 0.446178
C36   C     C_R   0.109870 0.667968 0.462951 0.503163
C37   C     C_R   0.662527 0.799339 0.456497 0.507345
C38   C     C_R   0.353697 0.213480 0.528500 0.512054
C39   C     C_R   0.337470 0.799342 0.543504 0.507343
C40   C     C_R   0.646307 0.213478 0.471501 0.512050
C41   C     C_R   0.162538 0.299348 0.456492 0.507352
C42   C     C_R   0.853688 0.713475 0.528500 0.512062
C43   C     C_R   0.837464 0.299348 0.543514 0.507342
C44   C     C_R   0.146310 0.713476 0.471500 0.512060
C45   C     C_R   0.702483 0.796815 0.525639 -0.064782
C46   C     C_R   0.312030 0.215277 0.461562 -0.081743
C47   C     C_R   0.297512 0.796820 0.474364 -0.064784
C48   C     C_R   0.687974 0.215274 0.538441 -0.081718
C49   C     C_R   0.202491 0.296822 0.525638 -0.064797
C50   C     C_R   0.812021 0.715270 0.461561 -0.081785
C51   C     C_R   0.797513 0.296818 0.474365 -0.064775
C52   C     C_R   0.187975 0.715273 0.538441 -0.081771
C53   C     C_R   0.697391 0.831745 0.594531 0.328753
C54   C     C_R   0.309845 0.173826 0.399527 0.344815
C55   C     C_R   0.302604 0.831751 0.405472 0.328756
C56   C     C_R   0.690157 0.173822 0.600476 0.344802
C57   C     C_R   0.197394 0.331748 0.594533 0.328752
C58   C     C_R   0.809840 0.673820 0.399525 0.344833
C59   C     C_R   0.802612 0.331740 0.405466 0.328755
C60   C     C_R   0.190155 0.673822 0.600479 0.344827
C61   C     C_R   0.652615 0.870284 0.593842 0.276254
C62   C     C_R   0.344954 0.126648 0.409780 0.314258
C63   C     C_R   0.347382 0.870288 0.406160 0.276254
C64   C     C_R   0.655047 0.126645 0.590221 0.314237
C65   C     C_R   0.152615 0.370285 0.593844 0.276262
C66   C     C_R   0.844951 0.626644 0.409778 0.314283
C67   C     C_R   0.847391 0.370278 0.406155 0.276247
C68   C     C_R   0.155046 0.626645 0.590224 0.314270
C69   C     C_R   0.461340 0.002968 0.232488 0.553524
C70   C     C_R   0.538660 0.002967 0.767512 0.553524
C71   C     C_R   0.961340 0.502963 0.232488 0.553542
C72   C     C_R   0.038660 0.502965 0.767512 0.553535
C73   C     C_R   0.462991 0.002646 0.145774 0.446379
C74   C     C_R   0.537009 0.002645 0.854226 0.446378
C75   C     C_R   0.962991 0.502641 0.145774 0.446385
C76   C     C_R   0.037009 0.502643 0.854226 0.446383
H1    H     H_    0.605176 0.997308 0.139779 0.226835
H2    H     H_    0.394824 0.997309 0.860221 0.226836
H3    H     H_    0.105176 0.497315 0.139779 0.226837
H4    H     H_    0.894824 0.497313 0.860221 0.226836
N1    N     N_2   0.748092 0.759084 0.527671 -0.015417
N2    N     N_2   0.268563 0.255342 0.459332 -0.036611
N3    N     N_2   0.251903 0.759090 0.472332 -0.015412
N4    N     N_2   0.731440 0.255338 0.540672 -0.036583
N5    N     N_2   0.248101 0.259093 0.527671 -0.015433
N6    N     N_2   0.768553 0.755333 0.459331 -0.036640
N7    N     N_2   0.751904 0.259088 0.472333 -0.015427
N8    N     N_2   0.231444 0.755336 0.540673 -0.036626
N9    N     N_R   0.509690 1.000000 0.283730 -0.208462
N10   N     N_R   0.490310 1.000000 0.716270 -0.208463
N11   N     N_R   0.009690 0.500000 0.283730 -0.208466
N12   N     N_R   0.990310 0.500000 0.716270 -0.208463
N13   N     N_2   0.522325 0.000083 0.023312 -0.019973
N14   N     N_2   0.477675 0.000083 0.976688 -0.019974
N15   N     N_2   0.022325 0.500083 0.023312 -0.019971
N16   N     N_2   0.977675 0.500083 0.976688 -0.019971
O1    O     O_R   0.554580 0.058040 0.577230 -0.542119
O2    O     O_R   0.445420 0.941960 0.422770 -0.572649
O3    O     O_R   0.445420 0.058040 0.422770 -0.542120
O4    O     O_R   0.554580 0.941960 0.577230 -0.572652
O5    O     O_R   0.054580 0.558040 0.577230 -0.542125
O6    O     O_R   0.945420 0.441960 0.422770 -0.572643
O7    O     O_R   0.945420 0.558040 0.422770 -0.542130
O8    O     O_R   0.054580 0.441960 0.577230 -0.572651
O9    O     O_R   0.560810 0.058060 0.438340 -0.554438
O10   O     O_R   0.439190 0.941940 0.561660 -0.567509
O11   O     O_R   0.439190 0.058060 0.561660 -0.554435
O12   O     O_R   0.560810 0.941940 0.438340 -0.567503
O13   O     O_R   0.060810 0.558060 0.438340 -0.554427
O14   O     O_R   0.939190 0.441940 0.561660 -0.567493
O15   O     O_R   0.939190 0.558060 0.561660 -0.554429
O16   O     O_R   0.060810 0.441940 0.438340 -0.567500
Zn1   Zn    Zn3+2 0.495820 1.000000 0.592740 1.107009
Zn2   Zn    Zn3+2 0.504180 1.000000 0.407260 1.107012
Zn3   Zn    Zn3+2 0.995820 0.500000 0.592740 1.107011
Zn4   Zn    Zn3+2 0.004180 0.500000 0.407260 1.107010
F1    F     F_    0.430436 0.167049 0.601842 -0.580423
F2    F     F_    0.583096 0.841871 0.385121 -0.614305
F3    F     F_    0.569568 0.167050 0.398157 -0.580423
F4    F     F_    0.416905 0.841869 0.614878 -0.614306
F5    F     F_    0.930429 0.667048 0.601842 -0.580423
F6    F     F_    0.083106 0.341877 0.385114 -0.614312
F7    F     F_    0.069572 0.667047 0.398154 -0.580420
F8    F     F_    0.916893 0.341881 0.614894 -0.614308
F9    F     F_    0.358067 0.255375 0.586146 -0.594464
F10   F     F_    0.664425 0.762809 0.391855 -0.572519
F11   F     F_    0.641939 0.255374 0.413855 -0.594449
F12   F     F_    0.335571 0.762811 0.608146 -0.572514
F13   F     F_    0.858055 0.755369 0.586147 -0.594466
F14   F     F_    0.164440 0.262822 0.391847 -0.572515
F15   F     F_    0.141944 0.755371 0.413852 -0.594452
F16   F     F_    0.835560 0.262825 0.608164 -0.572510
O17   O     O_3   0.735946 0.827493 0.663252 -0.552796
C77   C     C_3   0.778437 0.868281 0.655976 -0.094143
H5    H     H_    0.761093 0.911866 0.657339 0.133933
H6    H     H_    0.800531 0.861807 0.598485 0.173521
H7    H     H_    0.810252 0.863897 0.709858 0.203556
O18   O     O_3   0.268387 0.175613 0.334340 -0.531039
C78   C     C_3   0.289377 0.206439 0.268855 -0.085335
H8    H     H_    0.327310 0.185755 0.246340 0.170128
H9    H     H_    0.299130 0.250824 0.287662 0.141367
H10   H     H_    0.256428 0.207723 0.216051 0.192925
O19   O     O_3   0.264047 0.827503 0.336753 -0.552797
C79   C     C_3   0.221560 0.868295 0.344029 -0.094146
H11   H     H_    0.238904 0.911878 0.342648 0.133946
H12   H     H_    0.199473 0.861830 0.401529 0.173486
H13   H     H_    0.189738 0.863904 0.290155 0.203565
O20   O     O_3   0.731615 0.175609 0.665663 -0.531043
C80   C     C_3   0.710618 0.206418 0.731158 -0.085352
H14   H     H_    0.672692 0.185719 0.753668 0.170162
H15   H     H_    0.700852 0.250802 0.712363 0.141360
H16   H     H_    0.743569 0.207704 0.783960 0.192928
O21   O     O_3   0.235945 0.327495 0.663258 -0.552802
C81   C     C_3   0.278437 0.368283 0.655991 -0.094137
H17   H     H_    0.261094 0.411868 0.657355 0.133933
H18   H     H_    0.300534 0.361812 0.598502 0.173525
H19   H     H_    0.310250 0.363897 0.709876 0.203554
O22   O     O_3   0.768385 0.675606 0.334333 -0.531034
C82   C     C_3   0.789367 0.706456 0.268866 -0.085333
H20   H     H_    0.827311 0.685795 0.246350 0.170087
H21   H     H_    0.799098 0.750841 0.287693 0.141376
H22   H     H_    0.756421 0.707735 0.216056 0.192927
O23   O     O_3   0.764065 0.327480 0.336737 -0.552805
C83   C     C_3   0.721579 0.368277 0.343978 -0.094132
H23   H     H_    0.738926 0.411859 0.342568 0.133988
H24   H     H_    0.699488 0.361835 0.401480 0.173462
H25   H     H_    0.689759 0.363872 0.290104 0.203564
O24   O     O_3   0.231608 0.675610 0.665672 -0.531036
C84   C     C_3   0.210619 0.706452 0.731142 -0.085354
H26   H     H_    0.172678 0.685782 0.753653 0.170108
H27   H     H_    0.200881 0.750836 0.712319 0.141371
H28   H     H_    0.243564 0.707734 0.783953 0.192929
O25   O     O_3   0.647459 0.904796 0.661960 -0.559411
C85   C     C_3   0.620680 0.873884 0.722325 -0.061077
H29   H     H_    0.645674 0.836229 0.743998 0.169769
H30   H     H_    0.577342 0.860978 0.698405 0.150103
H31   H     H_    0.616891 0.901220 0.777371 0.201398
O26   O     O_3   0.340390 0.084016 0.351036 -0.503198
C86   C     C_3   0.302901 0.042763 0.377116 -0.052834
H32   H     H_    0.260541 0.060936 0.385264 0.143684
H33   H     H_    0.320179 0.021791 0.435499 0.100457
H34   H     H_    0.297302 0.009836 0.328265 0.225241
O27   O     O_3   0.352538 0.904802 0.338043 -0.559418
C87   C     C_3   0.379309 0.873891 0.277671 -0.061085
H35   H     H_    0.354311 0.836237 0.255999 0.169773
H36   H     H_    0.422648 0.860980 0.301584 0.150101
H37   H     H_    0.383097 0.901228 0.222625 0.201405
O28   O     O_3   0.659609 0.084012 0.648964 -0.503214
C88   C     C_3   0.697100 0.042759 0.622887 -0.052845
H38   H     H_    0.739460 0.060933 0.614745 0.143693
H39   H     H_    0.679825 0.021790 0.564501 0.100456
H40   H     H_    0.702695 0.009831 0.671737 0.225246
O29   O     O_3   0.147454 0.404792 0.661966 -0.559397
C89   C     C_3   0.120672 0.373875 0.722322 -0.061072
H41   H     H_    0.145668 0.336220 0.743996 0.169769
H42   H     H_    0.077337 0.360967 0.698394 0.150098
H43   H     H_    0.116877 0.401208 0.777371 0.201387
O30   O     O_3   0.840391 0.584013 0.351032 -0.503183
C90   C     C_3   0.802907 0.542755 0.377111 -0.052821
H44   H     H_    0.760544 0.560923 0.385254 0.143686
H45   H     H_    0.820185 0.521786 0.435496 0.100436
H46   H     H_    0.797314 0.509826 0.328261 0.225239
O31   O     O_3   0.852554 0.404782 0.338029 -0.559397
C91   C     C_3   0.879340 0.373863 0.277680 -0.061088
H47   H     H_    0.854346 0.336208 0.256007 0.169773
H48   H     H_    0.922675 0.360956 0.301616 0.150106
H49   H     H_    0.883140 0.401195 0.222630 0.201374
O32   O     O_3   0.159606 0.584015 0.648970 -0.503188
C92   C     C_3   0.197095 0.542759 0.622896 -0.052812
H50   H     H_    0.239457 0.560931 0.614758 0.143689
H51   H     H_    0.179821 0.521791 0.564508 0.100437
H52   H     H_    0.202686 0.509830 0.671745 0.225254
F17   F     F_    0.588979 0.006611 0.734309 -0.565454
F18   F     F_    0.411021 0.006613 0.265692 -0.565452
F19   F     F_    0.088979 0.506606 0.734309 -0.565451
F20   F     F_    0.911020 0.506603 0.265691 -0.565443
F21   F     F_    0.586432 0.005596 0.902522 -0.601703
F22   F     F_    0.413568 0.005599 0.097478 -0.601703
F23   F     F_    0.086432 0.505591 0.902522 -0.601696
F24   F     F_    0.913568 0.505589 0.097478 -0.601691
O33   O     O_3   0.608960 0.996705 0.307940 -0.555863
C93   C     C_3   0.646632 0.953439 0.288867 -0.213101
H53   H     H_    0.673697 0.967611 0.239978 0.160248
H54   H     H_    0.624553 0.913369 0.270093 0.200234
H55   H     H_    0.674814 0.944185 0.345515 0.176515
O34   O     O_3   0.391040 0.996706 0.692060 -0.555863
C94   C     C_3   0.353368 0.953440 0.711132 -0.213108
H56   H     H_    0.326303 0.967611 0.760022 0.160250
H57   H     H_    0.375447 0.913369 0.729905 0.200233
H58   H     H_    0.325186 0.944187 0.654484 0.176515
O35   O     O_3   0.108960 0.496712 0.307940 -0.555860
C95   C     C_3   0.146636 0.453450 0.288867 -0.213090
H59   H     H_    0.173701 0.467627 0.239980 0.160252
H60   H     H_    0.124562 0.413378 0.270089 0.200233
H61   H     H_    0.174818 0.444196 0.345515 0.176519
O36   O     O_3   0.891040 0.496710 0.692059 -0.555864
C96   C     C_3   0.853363 0.453450 0.711136 -0.213075
H62   H     H_    0.826298 0.467630 0.760021 0.160251
H63   H     H_    0.875436 0.413378 0.729919 0.200237
H64   H     H_    0.825181 0.444195 0.654489 0.176522

loop_
_geom_bond_atom_site_label_1
_geom_bond_atom_site_label_2
_ccdc_geom_bond_type
C89   H42   S    
O31   C91   S    
C72   F19   S    
N13   N14   D    
O17   C77   S    
C84   H27   S    
C84   H26   S    
C14   C18   A    
N15   N16   D    
C34   C42   A    
N4    N7    D    
C72   C76   A    
O3    Zn2   S    
O26   C86   S    
O25   C85   S    
C87   H35   S    
C44   F15   S    
C15   C19   A    
C4    O12   A    
C60   O24   S    
C7    C26   S    
C9    C73   A    
C53   O17   S    
C47   C55   A    
C35   F8    S    
C28   C68   A    
C80   H15   S    
C82   H20   S    
C41   F14   S    
C72   N12   A    
C78   H10   S    
C23   C63   A    
O2    Zn2   S    
C89   H43   S    
C10   N14   S    
C76   F23   S    
O19   C79   S    
O8    Zn3   S    
C92   H52   S    
C49   C57   A    
O36   C96   S    
C30   C38   A    
C55   O19   S    
C48   C56   A    
N10   Zn1   S    
O12   Zn2   S    
C88   H39   S    
C94   H56   S    
C9    C13   A    
C85   H29   S    
O11   Zn1   S    
C52   C60   A    
O13   Zn4   S    
C59   C67   A    
C46   N2    S    
C53   C61   A    
C26   C34   A    
C15   H3    S    
C12   C16   A    
C7    O15   A    
O32   C92   S    
C20   O36   S    
C55   C63   A    
C70   C74   A    
C90   H46   S    
C56   C64   A    
C69   C73   A    
O30   C90   S    
C47   N3    S    
C18   O34   S    
C81   H18   S    
N1    N6    D    
C86   H34   S    
C44   C52   A    
C14   H2    S    
N3    N8    D    
C45   C53   A    
C90   H44   S    
C24   C64   A    
C7    O7    A    
C96   H62   S    
C6    O6    A    
C8    C25   S    
C6    O14   A    
C83   H23   S    
C70   N10   A    
C11   C15   A    
C77   H7    S    
C79   H13   S    
C69   N9    A    
C41   C49   A    
C58   C66   A    
C65   O29   S    
C2    C23   S    
C5    O5    A    
C63   O27   S    
O4    Zn1   S    
O10   Zn1   S    
C26   C66   A    
C49   N5    S    
O9    Zn2   S    
C52   N8    S    
C36   F7    S    
C17   N9    A    
O20   C80   S    
C81   H19   S    
C79   H12   S    
N11   Zn4   S    
C58   O22   S    
C80   H16   S    
C51   N7    S    
C77   H6    S    
C54   C62   A    
C93   H55   S    
C27   C35   A    
C40   F11   S    
C21   C29   A    
C2    O10   A    
C95   H61   S    
C48   N4    S    
O28   C88   S    
C16   H4    S    
C18   N10   A    
O22   C82   S    
C56   O20   S    
C88   H40   S    
O27   C87   S    
C24   C32   A    
C68   O32   S    
O33   C93   S    
C22   C62   A    
C5    C28   S    
C20   N12   A    
C6    C27   S    
C31   C39   A    
C91   H49   S    
C1    O1    A    
C16   C20   A    
C46   C54   A    
C25   C33   A    
C95   H60   S    
C92   H50   S    
C82   H22   S    
C25   C65   A    
C27   C67   A    
C64   O28   S    
C78   H9    S    
C93   H54   S    
C8    O8    A    
C85   H31   S    
C2    O2    A    
C81   H17   S    
C66   O30   S    
C1    O9    A    
C42   C50   A    
O24   C84   S    
C94   H57   S    
C91   H48   S    
O34   C94   S    
C34   F5    S    
C4    O4    A    
C12   C76   A    
C10   C14   A    
C33   F6    S    
O5    Zn3   S    
C84   H28   S    
C59   O23   S    
C36   C44   A    
C51   C59   A    
C32   F3    S    
C37   C45   A    
C9    N13   S    
O16   Zn4   S    
C38   F9    S    
C35   C43   A    
C39   C47   A    
C37   F10   S    
C11   N15   S    
C40   C48   A    
N9    Zn2   S    
C43   F16   S    
C39   F12   S    
C22   C30   A    
C70   F17   S    
C21   C61   A    
C83   H25   S    
C45   N1    S    
C69   F18   S    
C57   C65   A    
C79   H11   S    
C19   O35   S    
C62   O26   S    
C78   H8    S    
C77   H5    S    
C30   F1    S    
N2    N5    D    
C29   F2    S    
C87   H37   S    
C13   C17   A    
C60   C68   A    
C3    O11   A    
C96   H63   S    
O7    Zn4   S    
C33   C41   A    
C11   C75   A    
C80   H14   S    
C13   H1    S    
C71   C75   A    
C4    C21   S    
C10   C74   A    
C43   C51   A    
C54   O18   S    
C57   O21   S    
C75   F24   S    
O14   Zn3   S    
C74   F21   S    
C83   H24   S    
C95   H59   S    
C92   H51   S    
C8    O16   A    
C87   H36   S    
C73   F22   S    
C89   H41   S    
C42   F13   S    
C32   C40   A    
O6    Zn4   S    
C88   H38   S    
N12   Zn3   S    
C85   H30   S    
C31   F4    S    
C38   C46   A    
O23   C83   S    
C67   O31   S    
O18   C78   S    
C50   N6    S    
C86   H32   S    
C17   O33   S    
C3    O3    A    
C94   H58   S    
C71   N11   A    
C91   H47   S    
C28   C36   A    
C1    C24   S    
O29   C89   S    
C96   H64   S    
C29   C37   A    
O35   C95   S    
C90   H45   S    
C61   O25   S    
C19   N11   A    
C12   N16   S    
C3    C22   S    
O15   Zn3   S    
C5    O13   A    
O21   C81   S    
C82   H21   S    
O1    Zn1   S    
C93   H53   S    
C71   F20   S    
C50   C58   A    
C23   C31   A    
C86   H33   S    
