data_mof_unit_46108.cif
_audit_creation_date              2012-12-10T21:29:46-0500
_audit_creation_method            fapswitch 2.2
_symmetry_space_group_name_H-M    P1
_symmetry_Int_Tables_number       1
_space_group_crystal_system       triclinic
_cell_length_a                    10.573832
_cell_length_b                    16.192384
_cell_length_c                    16.598998
_cell_angle_alpha                 88.28889
_cell_angle_beta                  93.679909
_cell_angle_gamma                 93.764651
_cell_volume                      2829.08818983

loop_
_atom_site_label
_atom_site_type_symbol
_atom_type_description
_atom_site_fract_x
_atom_site_fract_y
_atom_site_fract_z
_atom_type_partial_charge
C1    C     C_R   0.494465 0.489209 0.654369 0.877894
C2    C     C_R   0.345759 0.522037 0.101524 0.159782
C3    C     C_R   0.353168 0.412150 0.851809 -0.078574
C4    C     C_R   0.397029 0.596244 0.136398 -0.137753
C5    C     C_R   0.383546 0.416837 0.770258 -0.090043
C6    C     C_R   0.458373 0.594094 0.214961 -0.141815
C7    C     C_R   0.422825 0.758405 0.464106 0.022334
C8    C     C_R   0.575404 0.242443 0.537398 -0.002347
C9    C     C_R   0.417481 0.846559 0.467142 -0.124598
C10   C     C_R   0.585877 0.155068 0.532758 -0.138697
C11   C     C_R   0.502658 0.891529 0.520454 0.191867
C12   C     C_R   0.499603 0.510724 0.345279 0.939615
C13   C     C_R   0.497997 0.109142 0.481560 0.219066
C14   C     C_R   0.592162 0.849057 0.566280 -0.218774
C15   C     C_R   0.405433 0.150598 0.436960 -0.245619
C16   C     C_R   0.739283 0.501917 0.488572 0.915163
C17   C     C_R   0.260402 0.497956 0.511055 0.860228
C18   C     C_R   0.602839 0.763206 0.559140 0.120615
C19   C     C_R   0.396560 0.236797 0.441729 0.043522
C20   C     C_R   0.871310 0.362528 0.420288 -0.061675
C21   C     C_R   0.124597 0.637805 0.577808 -0.037255
C22   C     C_R   0.911154 0.281437 0.436408 -0.145989
C23   C     C_R   0.467912 0.482040 0.741911 -0.239053
C24   C     C_R   0.078960 0.718027 0.562434 -0.062582
C25   C     C_R   0.015501 0.270272 0.492295 -0.043749
C26   C     C_R   0.977541 0.728085 0.503718 -0.022782
C27   C     C_R   0.088417 0.340470 0.520417 -0.072131
C28   C     C_R   0.910383 0.657354 0.472583 -0.067716
C29   C     C_R   0.049871 0.421244 0.503471 0.054795
C30   C     C_R   0.949329 0.577702 0.492840 0.038659
C31   C     C_R   0.931091 0.430056 0.464217 0.039042
C32   C     C_R   0.067289 0.569514 0.533486 -0.015289
C33   C     C_R   0.124919 0.493748 0.525972 -0.199167
C34   C     C_R   0.471372 0.516421 0.256184 -0.197402
C35   C     C_R   0.874152 0.505567 0.472098 -0.139798
C36   C     C_2   0.935695 0.811358 0.477558 0.484988
C37   C     C_2   0.055432 0.186244 0.517316 0.475445
C38   C     C_2   0.691426 0.111615 0.576284 0.394470
C39   C     C_2   0.322903 0.892474 0.416455 0.525393
C40   C     C_2   0.714332 0.729463 0.606198 0.943694
C41   C     C_2   0.288300 0.271712 0.392064 1.016115
C42   C     C_2   0.771514 0.377563 0.355705 0.554298
C43   C     C_2   0.224965 0.622319 0.642765 0.526930
C44   C     C_2   0.845595 0.208880 0.395103 0.385764
C45   C     C_R   0.519191 0.542504 0.797447 -0.064620
C46   C     C_2   0.135355 0.791081 0.606690 0.541837
C47   C     C_2   0.506790 0.369877 0.225422 1.022495
C48   C     C_2   0.608613 0.610725 0.773568 1.064677
C49   C     C_2   0.265993 0.373740 0.118398 0.496621
C50   C     C_2   0.554908 0.593466 0.940428 0.505648
C51   C     C_2   0.265576 0.344142 0.881537 0.977756
C52   C     C_2   0.392805 0.674286 0.086547 1.005323
C53   C     C_2   0.315669 0.356895 0.714831 0.956389
C54   C     C_2   0.517876 0.671660 0.250490 0.987065
C55   C     C_2   0.666838 0.289631 0.591823 0.675333
C56   C     C_R   0.429629 0.442943 0.215942 -0.026719
C57   C     C_2   0.323354 0.711734 0.413446 0.587365
C58   C     C_R   0.490480 0.536333 0.879266 -0.089523
C59   C     C_R   0.346901 0.447164 0.146941 -0.134545
C60   C     C_R   0.405159 0.472247 0.905338 0.166410
H1    H     H_    0.656644 0.884872 0.607231 0.204519
H2    H     H_    0.209157 0.368530 0.334101 0.350302
H3    H     H_    0.695410 0.330979 0.343200 0.084430
H4    H     H_    0.227693 0.561482 0.671860 0.028475
H5    H     H_    0.819230 0.153089 0.429348 0.031445
H6    H     H_    0.170998 0.845696 0.573775 0.009886
H7    H     H_    0.523688 0.252531 0.266793 0.350158
H8    H     H_    0.788930 0.659948 0.784813 0.374312
H9    H     H_    0.200379 0.379984 0.066168 0.147204
H10   H     H_    0.580253 0.570199 0.000907 0.089745
H11   H     H_    0.220931 0.221288 0.889674 0.379076
H12   H     H_    0.339473 0.114237 0.397370 0.205308
H13   H     H_    0.292891 0.743307 0.005162 0.383889
H14   H     H_    0.322439 0.253542 0.650798 0.373769
H15   H     H_    0.672869 0.729367 0.306192 0.374130
H16   H     H_    0.760086 0.309188 0.572173 0.008874
H17   H     H_    0.344453 0.661251 0.377621 0.101519
H18   H     H_    0.174090 0.331188 0.557226 0.202299
H19   H     H_    0.828480 0.664382 0.430891 0.202451
H20   H     H_    0.982496 0.867240 0.502539 0.052206
H21   H     H_    0.010672 0.131175 0.489604 0.068130
H22   H     H_    0.721968 0.054877 0.552792 0.093465
H23   H     H_    0.276659 0.942761 0.441789 0.053098
H24   H     H_    0.809420 0.631783 0.647335 0.338195
N1    N     N_2   0.386013 0.462278 0.988498 -0.194602
N2    N     N_2   0.332400 0.520961 0.015787 -0.127392
N3    N     N_R   0.515300 0.716920 0.509720 -0.158016
N4    N     N_R   0.484700 0.283080 0.490280 -0.166940
N5    N     N_2   0.498181 0.978604 0.532654 -0.157904
N6    N     N_2   0.503574 0.022257 0.469350 -0.171667
O1    O     O_R   0.494530 0.422540 0.612660 -0.572047
O2    O     O_2   0.139881 0.177177 0.569851 -0.568108
O3    O     O_2   0.744282 0.137200 0.639028 -0.493689
O4    O     O_2   0.300185 0.877087 0.345226 -0.457161
O5    O     O_2   0.800875 0.777128 0.632487 -0.646378
O6    O     O_R   0.722310 0.645825 0.623786 -0.749641
O7    O     O_2   0.199083 0.225184 0.367573 -0.614378
O8    O     O_R   0.288248 0.354673 0.368354 -0.731677
O9    O     O_2   0.774311 0.442279 0.315943 -0.548738
O10   O     O_2   0.308020 0.675247 0.661984 -0.494700
O11   O     O_2   0.823821 0.209930 0.321969 -0.490574
O12   O     O_R   0.505470 0.577460 0.387340 -0.654054
O13   O     O_2   0.138599 0.791602 0.680323 -0.460223
O14   O     O_2   0.606085 0.370628 0.191456 -0.559699
O15   O     O_R   0.464092 0.298989 0.267888 -0.756943
O16   O     O_2   0.567634 0.675057 0.745573 -0.522265
O17   O     O_R   0.738233 0.605515 0.793944 -0.774294
O18   O     O_2   0.266315 0.307070 0.154638 -0.482289
O19   O     O_2   0.576619 0.667043 0.925060 -0.480308
O20   O     O_2   0.172958 0.360327 0.917081 -0.588155
O21   O     O_R   0.287715 0.261847 0.867173 -0.726109
O22   O     O_2   0.484829 0.724171 0.086702 -0.529844
O23   O     O_R   0.504350 0.561840 0.618900 -0.547170
O24   O     O_R   0.284050 0.689142 0.037163 -0.730308
O25   O     O_2   0.201585 0.360926 0.699748 -0.645075
O26   O     O_R   0.379434 0.291960 0.686214 -0.679599
O27   O     O_2   0.457917 0.733724 0.250643 -0.573530
O28   O     O_R   0.643243 0.673576 0.283213 -0.747401
O29   O     O_2   0.643108 0.300333 0.661547 -0.455978
O30   O     O_2   0.212968 0.729707 0.410821 -0.586870
O31   O     O_R   0.495650 0.438160 0.381100 -0.574729
O32   O     O_R   0.678310 0.430340 0.496890 -0.682425
O33   O     O_R   0.321690 0.569660 0.503110 -0.644169
O34   O     O_R   0.688140 0.569650 0.503130 -0.578843
O35   O     O_R   0.311860 0.430350 0.496870 -0.596149
O36   O     O_2   0.847409 0.818736 0.427239 -0.566470
Zn1   Zn    Zn3+2 0.493440 0.406980 0.495830 0.991863
Zn2   Zn    Zn3+2 0.506560 0.593020 0.504170 1.009381

loop_
_geom_bond_atom_site_label_1
_geom_bond_atom_site_label_2
_ccdc_geom_bond_type
C34   C56   A    
C23   C45   A    
C13   N6    S    
C27   C29   A    
C14   C18   A    
C27   H18   S    
O23   Zn2   S    
C55   O29   D    
N1    N2    D    
C15   C19   A    
C15   H12   S    
O1    Zn1   S    
C30   C35   A    
C4    C52   S    
C5    C53   S    
C6    C54   S    
C46   H6    S    
N4    Zn1   S    
O12   Zn2   S    
C16   C35   S    
C11   C14   A    
C48   O17   S    
C52   O22   D    
C58   C60   A    
C29   C33   A    
C9    C39   S    
H24   O6    S    
O32   Zn1   S    
C28   H19   S    
C16   O32   A    
C18   C40   S    
C25   C37   S    
H2    O8    S    
C17   O33   A    
C48   O16   D    
C12   O31   A    
C47   O15   S    
C22   C25   A    
H11   O21   S    
H8    O17   S    
C53   O26   S    
O34   Zn2   S    
C3    C60   A    
C1    O1    A    
C49   H9    S    
C38   H22   S    
C37   H21   S    
C44   H5    S    
H15   O28   S    
C17   C33   S    
C40   O6    S    
C8    C55   S    
N3    Zn2   S    
C43   H4    S    
C49   O18   D    
C21   C32   A    
C22   C44   S    
C45   C58   A    
C50   C58   S    
C57   H17   S    
C43   O10   D    
C4    C6    A    
C19   N4    A    
C36   H20   S    
C3    C51   S    
C2    C59   A    
H7    O15   S    
C14   H1    S    
C50   O19   D    
H13   O24   S    
C6    C34   A    
C8    N4    A    
C2    C4    A    
C39   O4    D    
C12   O12   A    
C11   N5    S    
C5    C23   A    
C60   N1    S    
H14   O26   S    
C9    C11   A    
C57   O30   D    
C55   H16   S    
C26   C36   S    
C20   C22   A    
C1    C23   S    
C51   O20   D    
C54   O28   S    
C31   C35   A    
C21   C24   A    
C40   O5    D    
C12   C34   S    
C45   C48   S    
C7    C9    A    
C51   O21   S    
C47   O14   D    
C37   O2    D    
C36   O36   D    
C24   C26   A    
C3    C5    A    
C10   C13   A    
C20   C42   S    
C44   O11   D    
O31   Zn1   S    
C52   O24   S    
C25   C27   A    
C46   O13   D    
C26   C28   A    
C18   N3    A    
C49   C59   S    
C56   C59   A    
C10   C38   S    
C24   C46   S    
C32   C33   A    
C13   C15   A    
C16   O34   A    
C39   H23   S    
C29   C31   A    
C42   O9    D    
C30   C32   A    
C17   O35   A    
O33   Zn2   S    
C38   O3    D    
C28   C30   A    
C2    N2    S    
C41   O7    D    
C1    O23   A    
C50   H10   S    
C19   C41   S    
C7    N3    A    
C8    C10   A    
C54   O27   D    
O35   Zn1   S    
C41   O8    S    
N5    N6    D    
C42   H3    S    
C7    C57   S    
C21   C43   S    
C53   O25   D    
C47   C56   S    
C20   C31   A    
