data_mof_unit_10131.cif
_audit_creation_date              2012-12-11T14:58:26-0500
_audit_creation_method            fapswitch 2.2
_symmetry_space_group_name_H-M    P1
_symmetry_Int_Tables_number       1
_space_group_crystal_system       triclinic
_cell_length_a                    11.040882
_cell_length_b                    11.0809
_cell_length_c                    18.688522
_cell_angle_alpha                 90.289836
_cell_angle_beta                  90.455735
_cell_angle_gamma                 59.36959
_cell_volume                      1967.32599811

loop_
_atom_site_label
_atom_site_type_symbol
_atom_type_description
_atom_site_fract_x
_atom_site_fract_y
_atom_site_fract_z
_atom_type_partial_charge
C1    C     C_R   0.354993 0.779990 0.399731 0.585093
C2    C     C_R   0.611477 0.105002 0.177345 0.083245
C3    C     C_R   0.354802 0.314529 0.167024 -0.038534
C4    C     C_R   0.456826 0.205919 0.280859 0.356224
C5    C     C_R   0.468708 0.206121 0.206935 0.005677
C6    C     C_R   0.097082 0.659798 0.328683 0.393819
C7    C     C_R   0.974774 0.771856 0.359276 0.346609
C8    C     C_R   0.642020 0.984358 0.137839 -0.052999
C9    C     C_R   0.778602 0.888578 0.115763 -0.133149
C10   C     C_R   0.239720 0.422329 0.202961 -0.116391
C11   C     C_R   0.232053 0.424221 0.276848 0.013136
C12   C     C_R   0.381377 0.350183 0.389815 0.568697
C13   C     C_R   0.851166 0.766978 0.358895 -0.064226
C14   C     C_R   0.851763 0.652596 0.327452 0.315329
C15   C     C_R   0.976423 0.539416 0.303013 -0.107444
C16   C     C_R   0.101918 0.538180 0.308572 -0.041226
C17   C     C_R   0.348201 0.322607 0.316981 0.058255
C18   C     C_R   0.896962 0.284314 0.306976 0.400983
C19   C     C_R   0.944869 0.267043 0.237209 0.099200
C20   C     C_R   0.850462 0.341037 0.181491 -0.026505
C21   C     C_R   0.708794 0.437105 0.195618 -0.182708
C22   C     C_R   0.661730 0.458706 0.266112 -0.162328
C23   C     C_R   0.712302 0.415585 0.395063 0.600216
C24   C     C_R   0.756916 0.384238 0.321596 0.060322
C25   C     C_R   0.447185 0.852909 0.296846 -0.040960
C26   C     C_R   0.453127 0.847605 0.221623 -0.090320
C27   C     C_R   0.342073 0.852068 0.181983 0.007350
C28   C     C_R   0.230949 0.857553 0.220585 -0.063916
C29   C     C_R   0.215950 0.888400 0.292413 0.019417
C30   C     C_R   0.333918 0.856781 0.332252 0.047767
C31   C     C_R   0.378300 0.197277 0.690620 -0.078009
C32   C     C_R   0.366998 0.182033 0.762824 0.369286
C33   C     C_R   0.295498 0.301797 0.807019 0.011566
C34   C     C_R   0.371838 0.706652 0.611183 0.558346
C35   C     C_R   0.223174 0.435362 0.777074 -0.203754
C36   C     C_R   0.231567 0.449719 0.704086 -0.094566
C37   C     C_R   0.317211 0.331178 0.661863 -0.010945
C38   C     C_R   0.910980 0.390723 0.706951 0.417121
C39   C     C_R   0.945768 0.373233 0.778770 -0.081814
C40   C     C_R   0.921826 0.283396 0.820623 -0.034276
C41   C     C_R   0.872452 0.201765 0.788574 -0.152277
C42   C     C_R   0.832932 0.222259 0.716622 -0.192451
C43   C     C_R   0.845348 0.322346 0.676443 0.044262
C44   C     C_R   0.229153 0.773275 0.720998 -0.197587
C45   C     C_R   0.367871 0.350153 0.594524 0.541587
C46   C     C_R   0.208864 0.810310 0.792265 -0.162844
C47   C     C_R   0.314845 0.814947 0.831629 -0.019674
C48   C     C_R   0.446595 0.768374 0.800827 -0.030273
C49   C     C_R   0.468262 0.728680 0.729222 0.380489
C50   C     C_R   0.356959 0.736854 0.687933 0.019361
C51   C     C_R   0.905319 0.318541 0.109799 0.588242
C52   C     C_R   0.329277 0.292037 0.092992 0.567902
C53   C     C_R   0.308548 0.897605 0.106147 0.555149
C54   C     C_R   0.947677 0.280621 0.897328 0.565907
C55   C     C_R   0.290865 0.281961 0.882938 0.559919
C56   C     C_R   0.768765 0.373666 0.608827 0.586859
C57   C     C_R   0.277873 0.889884 0.899402 0.550029
C58   C     C_R   0.888444 0.909575 0.134677 -0.101813
C59   C     C_R   0.861257 0.024682 0.177003 -0.080381
C60   C     C_R   0.724617 0.120176 0.198773 -0.052999
Cr1   Cr    Cr6+3 0.601770 0.606860 0.505860 1.135600
Cr2   Cr    Cr6+3 0.291380 0.601660 0.495070 1.094569
Cr3   Cr    Cr6+3 0.606880 0.291510 0.499120 1.108785
Cr4   Cr    Cr6+3 0.062440 0.063090 0.008210 1.024231
Cr5   Cr    Cr6+3 0.062880 0.375170 0.998920 1.019308
Cr6   Cr    Cr6+3 0.374700 0.061720 0.992470 1.053390
H1    H     H_    0.754804 0.853412 0.380092 0.204620
H2    H     H_    0.974299 0.458094 0.274838 0.185532
H3    H     H_    0.636091 0.495442 0.152652 0.127957
H4    H     H_    0.552745 0.534881 0.277642 0.152844
H5    H     H_    0.529610 0.852968 0.327867 0.228518
H6    H     H_    0.545703 0.833586 0.196122 0.135641
H7    H     H_    0.148243 0.849685 0.194660 0.137486
H8    H     H_    0.799061 0.797986 0.084182 0.112504
H9    H     H_    0.119762 0.911841 0.317626 0.251965
H10   H     H_    0.441823 0.105051 0.658128 0.175957
H11   H     H_    0.163515 0.527716 0.810048 0.138398
H12   H     H_    0.179892 0.554024 0.681701 0.166017
H13   H     H_    0.985575 0.435282 0.802652 0.155299
H14   H     H_    0.856514 0.128921 0.819728 0.158330
H15   H     H_    0.784137 0.167028 0.694005 0.159193
H16   H     H_    0.141619 0.779451 0.691309 0.159180
H17   H     H_    0.106104 0.845071 0.814810 0.155841
H18   H     H_    0.530265 0.769264 0.831065 0.182486
H19   H     H_    0.994060 0.835661 0.117114 0.120525
H20   H     H_    0.945269 0.040754 0.193549 0.142866
H21   H     H_    0.706848 0.204065 0.234375 0.120968
H22   H     H_    0.560922 0.964298 0.122547 0.161893
H23   H     H_    0.150356 0.503084 0.173275 0.148337
O1    O     O_R   0.748800 0.497470 0.428000 -0.430021
O2    O     O_R   0.300070 0.471040 0.567100 -0.516007
O3    O     O_R   0.491670 0.258900 0.574910 -0.517507
O4    O     O_R   0.718780 0.304180 0.577850 -0.521221
O5    O     O_3   0.500010 0.500010 0.500020 -0.355658
O6    O     O_R   0.186690 0.923650 0.086970 -0.525475
O7    O     O_R   0.957250 0.194250 0.084630 -0.481379
O8    O     O_R   0.934970 0.407490 0.085330 -0.499842
O9    O     O_R   0.203780 0.365190 0.067090 -0.492844
O10   O     O_R   0.417600 0.174890 0.067840 -0.531980
O11   O     O_R   0.375320 0.946260 0.070860 -0.515347
O12   O     O_R   0.476420 0.724060 0.429470 -0.520891
O13   O     O_R   0.160600 0.919630 0.926660 -0.535845
O14   O     O_R   0.933060 0.190520 0.936020 -0.501338
O15   O     O_R   0.908880 0.403460 0.925020 -0.519884
O16   O     O_R   0.179600 0.361450 0.918490 -0.544044
O17   O     O_R   0.391510 0.170860 0.907530 -0.443300
O18   O     O_R   0.351130 0.942530 0.922260 -0.472002
O19   O     O_3   0.166667 0.166667 0.999870 -0.270043
O20   O     O_R   0.264580 0.744340 0.416750 -0.395614
O21   O     O_R   0.309380 0.472470 0.418200 -0.483519
O22   O     O_R   0.501710 0.260430 0.414300 -0.444436
O23   O     O_R   0.728090 0.305600 0.428960 -0.443945
O24   O     O_R   0.738760 0.495930 0.588610 -0.390579
O25   O     O_R   0.467110 0.722640 0.578360 -0.432468
O26   O     O_R   0.254530 0.742800 0.577360 -0.513934
F1    F     F_    0.559826 0.094466 0.317590 -0.636691
F2    F     F_    0.731994 0.651826 0.317930 -0.675770
F3    F     F_    0.989945 0.217211 0.361224 -0.577717
Br1   Br    Br    0.143018 0.181376 0.222551 -0.517541
F4    F     F_    0.429332 0.049806 0.789407 -0.618763
F5    F     F_    0.932585 0.482134 0.668894 -0.590511
F6    F     F_    0.973077 0.884122 0.389228 -0.606718
F7    F     F_    0.595557 0.688389 0.700183 -0.584285
F8    F     F_    0.211434 0.664973 0.311384 -0.674124

loop_
_geom_bond_atom_site_label_1
_geom_bond_atom_site_label_2
_ccdc_geom_bond_type
C33   C55   S    
Cr4   O14   S    
C51   O8    A    
C53   O6    A    
C26   H6    S    
C41   C42   A    
C35   C36   A    
C6    F8    S    
Cr6   O18   S    
C41   H14   S    
C12   O21   A    
Cr4   O13   S    
C23   O23   A    
Cr3   O5    S    
C26   C27   A    
C55   O16   A    
C18   C24   A    
C54   O15   A    
C28   C29   A    
C32   F4    S    
Cr5   O9    S    
C18   C19   A    
C20   C51   S    
C44   H16   S    
C38   C39   A    
C2    C60   A    
C15   C16   A    
C49   F7    S    
C9    C58   A    
Cr6   O11   S    
Cr3   O23   S    
C45   O3    A    
C1    O20   A    
C19   C20   A    
C10   H23   S    
C8    C9    A    
C12   C17   S    
C56   O24   A    
C25   H5    S    
C18   F3    S    
Cr5   O19   S    
C51   O7    A    
C19   Br1   S    
C59   C60   A    
C21   C22   A    
C42   H15   S    
Cr6   O17   S    
C28   H7    S    
Cr5   O16   S    
C25   C26   A    
C60   H21   S    
C44   C46   A    
Cr4   O19   S    
C53   O11   A    
C56   O4    A    
C34   C50   S    
C55   O17   A    
C54   O14   A    
Cr4   O7    S    
C39   C40   A    
Cr1   O5    S    
C58   C59   A    
C35   H11   S    
C48   H18   S    
C21   H3    S    
C8    H22   S    
C39   H13   S    
Cr6   O10   S    
Cr3   O3    S    
Cr1   O12   S    
C29   C30   A    
C57   O13   A    
C47   C57   S    
C11   C16   S    
C47   C48   A    
Cr2   O21   S    
C7    C13   A    
C23   C24   S    
C14   F2    S    
Cr2   O2    S    
C23   O1    A    
C4    C17   A    
C40   C41   A    
C57   O18   A    
C40   C54   S    
Cr2   O5    S    
Cr1   O24   S    
C22   C24   A    
C2    C5    S    
C9    H8    S    
C7    F6    S    
C37   C45   S    
C58   H19   S    
C1    O12   A    
C27   C28   A    
Cr1   O1    S    
C13   H1    S    
C44   C50   A    
C25   C30   A    
C46   C47   A    
C11   C17   A    
C4    F1    S    
C31   C32   A    
C2    C8    A    
Cr4   O6    S    
Cr6   O19   S    
C4    C5    A    
C3    C5    A    
C3    C52   S    
C27   C53   S    
C6    C7    A    
C29   H9    S    
C34   O25   A    
Cr3   O4    S    
C52   O10   A    
C32   C33   A    
C34   O26   A    
C59   H20   S    
Cr5   O8    S    
C38   C43   A    
C3    C10   A    
C36   H12   S    
C31   H10   S    
Cr2   O20   S    
C48   C49   A    
C15   H2    S    
C52   O9    A    
C1    C30   S    
C33   C35   A    
Cr3   O22   S    
C45   O2    A    
C38   F5    S    
C10   C11   A    
C6    C16   A    
C46   H17   S    
C31   C37   A    
C43   C56   S    
Cr2   O26   S    
C20   C21   A    
C36   C37   A    
C49   C50   A    
C42   C43   A    
Cr1   O25   S    
C14   C15   A    
Cr5   O15   S    
C13   C14   A    
C22   H4    S    
C12   O22   A    
