data_mof_unit_8432.cif
_audit_creation_date              2012-12-10T16:56:30-0500
_audit_creation_method            fapswitch 2.2
_symmetry_space_group_name_H-M    P1
_symmetry_Int_Tables_number       1
_space_group_crystal_system       triclinic
_cell_length_a                    7.774394
_cell_length_b                    8.579389
_cell_length_c                    15.695867
_cell_angle_alpha                 90.865086
_cell_angle_beta                  85.886941
_cell_angle_gamma                 93.634254
_cell_volume                      1042.05247536

loop_
_atom_site_label
_atom_site_type_symbol
_atom_type_description
_atom_site_fract_x
_atom_site_fract_y
_atom_site_fract_z
_atom_type_partial_charge
C1    C     C_R   0.545759 0.794716 0.497808 0.960839
C2    C     C_3   0.408739 0.371235 0.029520 -0.167108
C3    C     C_1   0.506422 0.499625 0.750833 -0.181022
C4    C     C_1   0.493578 0.500375 0.249167 -0.181022
C5    C     C_3   0.337684 0.499059 0.975732 -0.164012
C6    C     C_3   0.662316 0.500940 0.024268 -0.164012
C7    C     C_3   0.504059 0.499704 0.917239 0.212275
C8    C     C_3   0.495941 0.500296 0.082761 0.212275
C9    C     C_1   0.506934 0.499526 0.826212 -0.084663
C10   C     C_1   0.493066 0.500474 0.173787 -0.084663
C11   C     C_R   0.454241 0.205284 0.502192 0.960839
C12   C     C_R   0.502167 0.500043 0.661982 0.904380
C13   C     C_R   0.497833 0.499957 0.338018 0.904380
C14   C     C_2   0.569828 0.958197 0.496557 -0.379245
C15   C     C_2   0.430172 0.041803 0.503443 -0.379246
C16   C     C_3   0.424874 0.628121 0.030788 -0.165641
C17   C     C_3   0.575126 0.371878 0.969211 -0.165641
C18   C     C_3   0.591261 0.628765 0.970480 -0.167108
H1    H     H_    0.666048 0.733865 0.944121 0.131212
H2    H     H_    0.205072 0.498268 0.953684 0.132110
H3    H     H_    0.333952 0.266134 0.055879 0.131212
H4    H     H_    0.363276 0.732711 0.058175 0.131812
H5    H     H_    0.636724 0.267288 0.941825 0.131812
H6    H     H_    0.701739 0.009227 0.489988 0.180877
H7    H     H_    0.298261 0.990773 0.510012 0.180877
H8    H     H_    0.013357 0.381985 0.436420 0.192578
H9    H     H_    0.986643 0.618015 0.563580 0.192578
H10   H     H_    0.794928 0.501731 0.046316 0.132110
N1    N     N_2   0.950320 0.457950 0.477300 -0.172955
N2    N     N_2   0.049680 0.542050 0.522700 -0.172955
O1    O     O_R   0.389250 0.738570 0.505570 -0.613095
O2    O     O_R   0.610750 0.261430 0.494430 -0.613095
O3    O     O_R   0.678390 0.711630 0.491020 -0.630937
O4    O     O_R   0.321610 0.288370 0.508980 -0.630937
O5    O     O_R   0.355460 0.513480 0.630490 -0.611979
O6    O     O_R   0.644540 0.486520 0.369510 -0.611979
O7    O     O_R   0.644600 0.486540 0.615950 -0.621760
O8    O     O_R   0.355400 0.513460 0.384050 -0.621759
Zn1   Zn    Zn3+2 0.306940 0.517990 0.509710 0.946332
Zn2   Zn    Zn3+2 0.693060 0.482010 0.490290 0.946332

loop_
_geom_bond_atom_site_label_1
_geom_bond_atom_site_label_2
_ccdc_geom_bond_type
N2    Zn1   S    
O5    Zn1   S    
N1    N2    D    
C3    C9    T    
C1    C14   S    
O6    Zn2   S    
C12   O5    A    
C7    C18   S    
C2    H3    S    
C1    O3    A    
C8    C16   S    
C5    H2    S    
C2    C17   S    
C13   O8    A    
C17   H5    S    
H8    N1    S    
C6    C8    S    
N1    Zn2   S    
C16   C18   S    
O1    Zn1   S    
C11   O2    A    
O7    Zn2   S    
O2    Zn2   S    
O8    Zn1   S    
C6    C18   S    
C2    C8    S    
C15   H7    S    
C2    C5    S    
C4    C10   T    
O4    Zn1   S    
O3    Zn2   S    
C7    C9    S    
C1    O1    A    
C13   O6    A    
C8    C10   S    
C18   H1    S    
C12   O7    A    
C14   H6    S    
C4    C13   S    
C5    C7    S    
C6    C17   S    
C14   C15   D    
C5    C16   S    
C16   H4    S    
C3    C12   S    
C7    C17   S    
C11   C15   S    
C11   O4    A    
C6    H10   S    
H9    N2    S    
