data_mof_unit_6762.cif
_audit_creation_date              2012-12-10T18:42:28-0500
_audit_creation_method            fapswitch 2.2
_symmetry_space_group_name_H-M    P1
_symmetry_Int_Tables_number       1
_space_group_crystal_system       triclinic
_cell_length_a                    8.584725
_cell_length_b                    10.66329
_cell_length_c                    9.850377
_cell_angle_alpha                 89.89869
_cell_angle_beta                  98.644785
_cell_angle_gamma                 90.269984
_cell_volume                      891.462776802

loop_
_atom_site_label
_atom_site_type_symbol
_atom_type_description
_atom_site_fract_x
_atom_site_fract_y
_atom_site_fract_z
_atom_type_partial_charge
C1    C     C_R   0.501466 0.260198 0.500245 0.916339
C2    C     C_R   0.498056 0.739914 0.499525 0.946014
C3    C     C_R   0.201100 0.499735 0.464078 0.974450
C4    C     C_R   0.798896 0.499759 0.535938 0.954938
C5    C     C_2   0.035961 0.499536 0.444767 -0.372287
C6    C     C_2   0.964028 0.499008 0.555300 -0.394209
C7    C     C_R   0.412459 0.066030 0.391624 -0.371615
C8    C     C_R   0.590133 0.934411 0.607032 -0.364531
C9    C     C_R   0.411710 0.936781 0.387991 0.478821
C10   C     C_R   0.596992 0.063296 0.606756 0.482721
C11   C     C_R   0.498329 0.872384 0.498457 -0.187647
C12   C     C_R   0.504161 0.127936 0.500128 -0.192494
C13   C     C_R   0.599059 0.577329 0.084701 -0.080300
C14   C     C_R   0.400933 0.422685 0.915296 -0.047146
C15   C     C_R   0.598897 0.577391 0.940858 -0.074389
C16   C     C_R   0.400966 0.422716 0.059123 -0.081859
H1    H     H_    0.974047 0.500235 0.339930 0.180160
H2    H     H_    0.025931 0.498164 0.660143 0.179372
H3    H     H_    0.338766 0.118021 0.311955 0.172448
H4    H     H_    0.658911 0.882960 0.690171 0.179432
H5    H     H_    0.678116 0.639307 0.149345 0.127519
H6    H     H_    0.321744 0.360834 0.850634 0.124509
H7    H     H_    0.677898 0.639373 0.896618 0.125849
H8    H     H_    0.321760 0.360888 0.103327 0.125927
N1    N     N_R   0.499960 0.499970 0.857200 -0.079294
N2    N     N_R   0.500040 0.500030 0.142800 -0.083281
O1    O     O_R   0.499990 0.316750 0.614620 -0.577743
O2    O     O_R   0.500010 0.683250 0.385380 -0.599124
O3    O     O_R   0.499990 0.316780 0.385290 -0.636091
O4    O     O_R   0.500010 0.683220 0.614710 -0.632984
O5    O     O_R   0.271750 0.499990 0.587840 -0.624533
O6    O     O_R   0.728250 0.500010 0.412160 -0.619538
O7    O     O_R   0.271750 0.500010 0.358510 -0.623334
O8    O     O_R   0.728250 0.499990 0.641490 -0.629808
Zn1   Zn    Zn3+2 0.500000 0.499980 0.653120 0.955569
Zn2   Zn    Zn3+2 0.500000 0.500020 0.346880 0.946703
O9    O     O_3   0.312438 0.873085 0.286878 -0.602691
C17   C     C_3   0.369422 0.885912 0.160210 0.128753
H9    H     H_    0.495107 0.856606 0.169415 0.138634
H10   H     H_    0.358009 0.984353 0.122482 0.131370
C18   C     C_3   0.272676 0.802254 0.054033 -0.796126
H11   H     H_    0.147802 0.832956 0.037359 0.244123
H12   H     H_    0.319783 0.807965 0.955164 0.207648
H13   H     H_    0.278272 0.703406 0.089970 0.268852
O10   O     O_3   0.689088 0.125435 0.713306 -0.592760
C19   C     C_3   0.840094 0.145285 0.676571 0.114604
H14   H     H_    0.832989 0.201959 0.580646 0.123231
H15   H     H_    0.898523 0.054231 0.661879 0.135173
C20   C     C_3   0.941728 0.216813 0.790967 -0.814151
H16   H     H_    0.059892 0.234867 0.761908 0.196412
H17   H     H_    0.886088 0.307950 0.808733 0.267963
H18   H     H_    0.955681 0.161086 0.887361 0.250404

loop_
_geom_bond_atom_site_label_1
_geom_bond_atom_site_label_2
_ccdc_geom_bond_type
C3    O5    A    
O9    C17   S    
C9    C11   A    
C18   H11   S    
C7    H3    S    
C19   C20   S    
C2    O4    A    
C20   H18   S    
C15   H7    S    
C14   H6    S    
C10   O10   S    
C1    O3    A    
C3    C5    S    
C13   H5    S    
C16   H8    S    
C8    H4    S    
O10   C19   S    
C17   H10   S    
C18   H12   S    
O3    Zn2   S    
C4    O6    A    
C1    C12   S    
C10   C12   A    
O4    Zn1   S    
N1    Zn1   S    
C8    C11   A    
C5    C6    D    
C2    C11   S    
O6    Zn2   S    
C9    O9    S    
C20   H16   S    
O5    Zn1   S    
C13   C15   A    
C4    O8    A    
C16   N2    A    
C7    C12   A    
C6    H2    S    
C18   H13   S    
C14   C16   A    
C13   N2    A    
C15   N1    A    
C4    C6    S    
C5    H1    S    
C3    O7    A    
C19   H15   S    
C7    C9    A    
O7    Zn2   S    
C17   H9    S    
C14   N1    A    
O2    Zn2   S    
C17   C18   S    
C8    C10   A    
O8    Zn1   S    
N2    Zn2   S    
C1    O1    A    
C19   H14   S    
C2    O2    A    
O1    Zn1   S    
C20   H17   S    
