data_mof_unit_67314.cif
_audit_creation_date              2013-03-05T16:05:14-0500
_audit_creation_method            fapswitch 2.2
_symmetry_space_group_name_H-M    P1
_symmetry_Int_Tables_number       1
_space_group_crystal_system       triclinic
_cell_length_a                    8.327409
_cell_length_b                    15.482353
_cell_length_c                    15.067295
_cell_angle_alpha                 100.808349
_cell_angle_beta                  97.377253
_cell_angle_gamma                 98.889484
_cell_volume                      1860.25778992

loop_
_atom_site_label
_atom_site_type_symbol
_atom_site_description
_atom_site_fract_x
_atom_site_fract_y
_atom_site_fract_z
_atom_type_partial_charge
P1    P     P_3+3 0.996570 0.418570 0.288410 0.527328
O1    O     O_2   0.826460 0.445380 0.275370 -0.328146
O2    O     O_3   0.098920 0.448470 0.388920 -0.369380
O3    O     O_3   0.628660 0.613390 0.338240 -0.342355
O4    O     O_2   0.663222 0.516799 0.180049 -0.316069
O5    O     O_3   0.948930 0.300761 0.256552 -0.540623
O6    O     O_3   0.691881 0.681737 0.180461 -0.504609
C1    C     C_3   0.671731 0.804320 0.109976 0.153595
H1    H     H_    0.802056 0.800102 0.106446 0.124081
P2    P     P_3+3 0.693070 0.712070 0.580610 0.542945
P3    P     P_3+3 0.118815 0.777329 0.403522 0.525692
O7    O     O_2   0.863170 0.725020 0.553760 -0.334440
O8    O     O_3   0.060910 0.661460 0.386100 -0.343747
O9    O     O_2   0.998390 0.813813 0.463604 -0.339487
O10   O     O_3   0.768197 0.743444 0.699009 -0.546196
O11   O     O_3   0.056735 0.807581 0.299987 -0.487629
C2    C     C_3   0.147442 0.774905 0.232765 0.673690
H2    H     H_    0.269939 0.762754 0.261356 -0.030336
C3    C     C_3   0.172342 0.843792 0.172176 0.286193
H3    H     H_    0.057567 0.869851 0.157393 0.150095
C4    C     C_3   0.231721 0.731746 0.658837 0.418711
H4    H     H_    0.324147 0.709583 0.617697 0.000225
H5    H     H_    0.110410 0.706030 0.617319 0.161658
C5    C     C_3   0.254707 0.833568 0.680005 -0.775779
H6    H     H_    0.386672 0.863623 0.687415 0.253465
H7    H     H_    0.188458 0.856641 0.622904 0.213871
H8    H     H_    0.205334 0.858018 0.743226 0.317373
Ba1   Ba    Ba6+2 0.844900 0.542440 0.457470 1.698751
C6    C     C_3   0.823307 0.270760 0.178623 0.247123
H9    H     H_    0.753374 0.321972 0.161490 0.083056
H10   H     H_    0.730775 0.218151 0.193905 0.202242
C7    C     C_3   0.891361 0.233347 0.092629 0.093459
H11   H     H_    0.834110 0.257555 0.033457 0.099160
H12   H     H_    0.025839 0.256902 0.101184 0.092521
C8    C     C_3   0.660173 0.710210 0.752866 0.604302
H13   H     H_    0.531691 0.696419 0.719094 0.051405
C9    C     C_3   0.679370 0.773939 0.847246 0.356481
H14   H     H_    0.652801 0.734055 0.899205 0.032052
P4    P     P_3+3 0.193140 0.581510 0.711600 0.505490
O12   O     O_2   0.363260 0.554650 0.724690 -0.360158
O13   O     O_3   0.090800 0.551610 0.611090 -0.416147
O14   O     O_3   0.561050 0.386690 0.661770 -0.340919
O15   O     O_3   0.242666 0.698971 0.739887 -0.532891
P5    P     P_3+3 0.093763 0.224271 0.613615 0.536431
O16   O     O_3   0.598950 0.388690 0.448890 -0.340188
O17   O     O_3   0.128800 0.338610 0.613910 -0.370430
O18   O     O_2   0.220027 0.184201 0.560065 -0.366566
O19   O     O_3   0.151396 0.211958 0.725467 -0.484329
Ba2   Ba    Ba6+2 0.344940 0.457640 0.542540 1.681445
P6    P     P_3+3 0.579956 0.594680 0.218310 0.530677
C10   C     C_3   0.610750 0.754692 0.182146 0.491207
H15   H     H_    0.475405 0.733420 0.165059 -0.031029
H16   H     H_    0.600481 0.770088 0.042163 0.078218
O20   O     O_3   0.590770 0.611390 0.551120 -0.377622
C11   C     C_3   0.341403 0.250275 0.253298 0.324954
H17   H     H_    0.271491 0.294581 0.293316 0.135401
C12   C     C_3   0.237573 0.157915 0.209804 0.098994
H18   H     H_    0.182623 0.154052 0.138047 0.171185
H19   H     H_    0.315771 0.106165 0.207878 0.220054
P7    P     P_3+3 0.504839 0.272773 0.421639 0.529006
O21   O     O_2   0.326540 0.275010 0.446300 -0.352364
O22   O     O_3   0.490245 0.239380 0.302238 -0.561785
C13   C     C_3   0.074394 0.268204 0.783648 0.317663
H20   H     H_    0.125511 0.339298 0.785676 0.040884
H21   H     H_    0.939191 0.254701 0.760390 -0.018872
C14   C     C_3   0.108076 0.252593 0.880592 0.125348
H22   H     H_    0.241153 0.274456 0.908437 0.169891
H23   H     H_    0.038054 0.292324 0.925348 0.008131
P8    P     P_3+3 0.606549 0.395702 0.779666 0.529546
C15   C     C_3   0.603925 0.232615 0.794831 0.065789
H24   H     H_    0.722850 0.253851 0.842665 0.082956
O23   O     O_2   0.510477 0.466071 0.822319 -0.325820
O24   O     O_3   0.507372 0.298894 0.807552 -0.507498
H25   H     H_    0.626028 0.218099 0.722595 0.052562
C16   C     C_3   0.510962 0.147807 0.815788 0.686880
H26   H     H_    0.387150 0.128294 0.772943 0.110050
C17   C     C_R   0.358614 0.553490 0.172478 0.134626
H27   H     H_    0.320264 0.527109 0.304058 0.144418
H28   H     H_    0.508254 0.609298 0.037618 0.161192
C18   C     C_R   0.105820 0.471517 0.204042 0.269857
C19   C     C_R   0.929162 0.470586 0.762894 -0.359913
C20   C     C_R   0.829368 0.437319 0.821939 0.231117
C21   C     C_R   0.891303 0.447549 0.914534 -0.319809
C22   C     C_R   0.054667 0.491043 0.951345 0.060963
C23   C     C_R   0.150689 0.531703 0.891471 -0.028560
C24   C     C_R   0.123834 0.497497 0.046382 0.140628
C25   C     C_R   0.289369 0.542806 0.078692 0.046150
C26   C     C_R   0.380933 0.578006 0.017263 -0.201415
C27   C     C_R   0.311144 0.576659 0.927939 -0.042815
C28   C     C_R   0.035581 0.460329 0.110697 -0.246790
C29   C     C_R   0.264803 0.520033 0.233451 -0.346291
C30   C     C_R   0.084818 0.524227 0.796300 0.252735
H29   H     H_    0.911682 0.423624 0.090646 0.117487
H30   H     H_    0.878004 0.462149 0.691401 0.178369
H31   H     H_    0.807780 0.421536 0.956172 0.161197
H32   H     H_    0.387085 0.610729 0.887628 0.174433
C31   C     C_R   0.332982 0.830331 0.460192 0.151299
H33   H     H_    0.383980 0.699480 0.464600 0.154177
C32   C     C_R   0.588678 0.799434 0.536089 0.196732
C33   C     C_R   0.782359 0.224347 0.516066 -0.099804
C34   C     C_R   0.876862 0.174234 0.560642 0.145642
C35   C     C_R   0.809881 0.086419 0.560320 -0.206348
C36   C     C_R   0.642012 0.049057 0.526299 0.100468
C37   C     C_R   0.546962 0.106220 0.486416 -0.085635
C38   C     C_R   0.568573 0.956117 0.522907 0.004884
C39   C     C_R   0.399375 0.924325 0.478048 -0.100473
C40   C     C_R   0.308567 0.988287 0.449459 0.271154
C41   C     C_R   0.386738 0.072465 0.446416 -0.066452
C42   C     C_R   0.653681 0.893045 0.561556 0.132102
C43   C     C_R   0.433144 0.770561 0.483071 -0.485287
C44   C     C_R   0.615755 0.195837 0.483220 0.143719
H34   H     H_    0.899579 0.048205 0.576639 0.189637
H35   H     H_    0.316916 0.113901 0.413696 0.206582
I1    I     I_    0.664363 0.835383 0.316561 -0.140871
Cl1   Cl    Cl    0.843050 0.114077 0.063789 -0.316703
Cl2   Cl    Cl    0.720631 0.611585 0.772284 -0.643737
Cl3   Cl    Cl    0.654712 0.919581 0.127291 -0.349604
I2    I     I_    0.918961 0.853322 0.894211 0.019634
Cl4   Cl    Cl    0.538800 0.848992 0.851077 -0.481674
I3    I     I_    0.400083 0.316305 0.145986 -0.396891
Cl5   Cl    Cl    0.075144 0.131450 0.271232 -0.502080
I4    I     I_    0.241178 0.793027 0.043009 -0.200778
Cl6   Cl    Cl    0.047987 0.137345 0.881933 -0.405441
Cl7   Cl    Cl    0.618465 0.058615 0.791237 -0.504156
Cl8   Cl    Cl    0.029966 0.672203 0.167168 -0.629263
Cl9   Cl    Cl    0.489047 0.164293 0.933498 -0.482902
I5    I     I_    0.052936 0.988724 0.418322 -0.148620
I6    I     I_    0.857886 0.931204 0.673235 -0.150737
I7    I     I_    0.905491 0.309689 0.450252 -0.026835
Cl10  Cl    Cl    0.325313 0.936695 0.230824 -0.576146

loop_
_geom_bond_atom_site_label_1
_geom_bond_atom_site_label_2
_geom_bond_distance
_ccdc_geom_bond_type
C14   H23   1.108769 S    
C11   H17   1.109717 S    
C13   H21   1.110224 S    
O16   P7    1.791623 S    
C34   C35   1.386391 A    
H33   C43   1.082954 S    
C35   H34   1.054703 S    
C3    H3    1.106401 S    
C5    H8    1.110484 S    
C25   C26   1.406078 A    
C19   C20   1.405969 A    
O2    Ba2   2.853770 S    
P4    O13   1.586738 S    
O17   Ba2   2.829714 S    
C6    H9    1.102412 S    
O7    Ba1   2.896711 S    
O2    Ba1   2.933722 S    
C8    C9    1.545291 S    
C22   C24   1.452232 A    
C6    C7    1.531028 S    
P2    O10   1.761899 S    
P3    O9    1.536459 D    
C12   H19   1.106432 S    
C39   C40   1.430319 A    
O12   Ba2   2.843784 S    
C32   C42   1.427023 A    
C11   O22   1.408910 S    
Ba1   O13   2.853164 S    
P7    O22   1.759049 S    
P1    O1    1.535715 D    
Ba1   Ba2   4.583946 S    
O10   C8    1.390501 S    
P8    C20   1.853870 S    
C4    O15   1.405438 S    
C19   C30   1.402217 A    
C9    I2    2.131992 S    
C8    H13   1.094572 S    
O11   C2    1.405261 S    
C15   H25   1.114224 S    
P1    Ba1   3.391816 S    
C40   C41   1.375589 A    
O8    Ba1   2.828986 S    
P8    O24   1.745809 S    
C15   H24   1.111534 S    
Ba2   O20   2.860837 S    
P5    O18   1.540512 D    
C3    Cl10  1.772120 S    
C14   H22   1.109091 S    
C13   C14   1.522779 S    
C4    H4    1.103967 S    
C35   C36   1.416471 A    
O13   Ba2   2.934565 S    
H28   C26   1.074673 S    
O3    Ba1   2.863085 S    
C23   C30   1.444533 A    
P5    O17   1.748139 S    
C1    Cl3   1.784854 S    
C11   I3    2.136984 S    
C19   H30   1.082171 S    
Ba1   O16   2.861416 S    
C10   I1    2.123263 S    
Ba2   O21   2.896976 S    
C10   H15   1.106348 S    
C5    H6    1.107973 S    
C24   C28   1.439311 A    
P4    O12   1.536177 D    
Ba1   O20   2.917060 S    
C33   I7    2.028400 S    
C1    H1    1.104687 S    
O19   C13   1.403064 S    
P4    O15   1.758222 S    
C32   C43   1.391731 A    
C12   Cl5   1.773846 S    
O14   P8    1.742526 S    
C16   Cl7   1.766537 S    
O3    P6    1.758661 S    
P7    O21   1.580051 D    
P1    O2    1.586769 S    
C7    H12   1.105784 S    
C41   H35   1.073761 S    
P8    O23   1.542351 D    
C16   H26   1.109372 S    
C9    H14   1.107580 S    
P3    O11   1.749842 S    
C42   I6    2.157315 S    
C21   C22   1.412366 A    
C9    Cl4   1.770994 S    
O16   Ba2   2.916215 S    
C21   H31   1.076945 S    
C15   O24   1.398933 S    
C2    H2    1.112834 S    
C8    Cl2   1.742971 S    
C36   C38   1.462718 A    
C22   C23   1.446451 A    
C1    C10   1.537945 S    
P2    O7    1.516616 D    
C31   C39   1.436012 A    
P4    Ba2   3.392419 S    
C11   C12   1.530605 S    
O4    P6    1.538638 D    
P6    C17   1.850854 S    
P4    C30   1.924000 S    
C37   C41   1.369833 A    
C28   H29   1.073818 S    
P2    Ba1   3.426293 S    
C38   C42   1.454711 A    
C17   C29   1.400124 A    
C23   C27   1.397253 A    
P1    O5    1.764577 S    
C24   C25   1.424793 A    
O6    P6    1.745598 S    
C5    H7    1.107454 S    
C1    H16   1.104965 S    
C37   C44   1.429030 A    
P5    C34   1.861472 S    
H27   C29   1.082385 S    
C38   C39   1.449369 A    
P3    C31   1.864680 S    
C16   Cl9   1.780951 S    
C7    H11   1.110875 S    
C27   H32   1.078323 S    
C4    H5    1.091038 S    
O6    C10   1.400862 S    
C6    H10   1.110016 S    
P7    C44   1.915021 S    
C31   C43   1.398295 A    
P3    O8    1.744451 S    
C2    Cl8   1.773055 S    
C12   H18   1.105512 S    
C18   C29   1.389418 A    
C3    I4    2.141505 S    
C33   C34   1.385913 A    
C2    C3    1.536014 S    
C7    Cl1   1.784688 S    
C18   C28   1.419967 A    
P2    C32   1.894506 S    
P2    O20   1.607957 S    
O14   Ba2   2.862424 S    
C40   I5    2.121528 S    
C13   H20   1.110368 S    
O5    C6    1.420794 S    
C26   C27   1.390832 A    
C17   C25   1.424891 A    
C33   C44   1.384581 A    
C20   C21   1.394518 A    
C4    C5    1.525124 S    
C36   C37   1.436898 A    
P1    C18   1.890226 S    
C14   Cl6   1.781783 S    
C15   C16   1.525502 S    
O1    Ba1   2.843248 S    
P5    O19   1.745843 S    
