data_mof_unit_53785.cif
_audit_creation_date              2012-10-26T20:51:29-0400
_audit_creation_method            fapswitch 2.2
_symmetry_space_group_name_H-M    P1
_symmetry_Int_Tables_number       1
_space_group_crystal_system       triclinic
_cell_length_a                    9.556712
_cell_length_b                    10.813239
_cell_length_c                    13.882208
_cell_angle_alpha                 90.254589
_cell_angle_beta                  84.810604
_cell_angle_gamma                 89.859059
_cell_volume                      1428.6735468

loop_
_atom_site_label
_atom_site_type_symbol
_atom_type_description
_atom_site_fract_x
_atom_site_fract_y
_atom_site_fract_z
_atom_type_partial_charge
C1    C     C_R   0.499957 0.737543 0.498713 0.542356
C2    C     C_3   0.275024 0.929622 0.602349 -0.275306
C3    C     C_R   0.936007 0.439363 0.429192 0.116796
C4    C     C_R   0.477235 0.500688 0.682896 0.548709
C5    C     C_R   0.916807 0.572817 0.563084 0.370716
C6    C     C_R   0.066417 0.570144 0.563953 -0.006270
C7    C     C_R   0.083205 0.440290 0.428637 0.146029
C8    C     C_3   0.093696 0.306135 0.404127 -0.267927
C9    C     C_3   0.934752 0.304582 0.406718 -0.285292
C10   C     C_R   0.500144 0.262308 0.498827 0.540415
C11   C     C_R   0.522841 0.499265 0.317045 0.544180
C12   C     C_1   0.463796 0.503158 0.785932 -0.027227
C13   C     C_1   0.537249 0.494127 0.213940 -0.036123
C14   C     C_2   0.563081 0.480147 0.023374 0.006675
C15   C     C_2   0.450201 0.507961 0.976362 -0.113478
C16   C     C_1   0.455269 0.505507 0.872695 -0.065966
C17   C     C_1   0.549768 0.488182 0.127179 -0.056189
C18   C     C_3   0.703997 0.443993 0.971974 -0.229566
C19   C     C_3   0.789985 0.558767 0.940559 -0.288310
C20   C     C_3   0.929936 0.522829 0.885711 -0.439600
C21   C     C_3   0.866027 0.767973 0.625969 -0.014456
C22   C     C_3   0.918672 0.813172 0.720234 -0.409176
C23   C     C_R   0.375216 0.936427 0.513629 0.028439
C24   C     C_R   0.499445 0.870553 0.490840 0.004776
C25   C     C_R   0.621184 0.934671 0.456125 -0.174299
C26   C     C_R   0.620985 0.063670 0.456026 -0.165376
C27   C     C_R   0.499610 0.128931 0.491396 0.008767
C28   C     C_R   0.375230 0.063762 0.514174 0.017491
C29   C     C_3   0.275422 0.069903 0.603482 -0.272220
Cu1   Cu    Cu3+1 0.359330 0.500020 0.500000 0.931386
Cu2   Cu    Cu3+1 0.640670 0.499980 0.500000 0.984995
H1    H     H_    0.351556 0.534253 0.016454 0.115898
H2    H     H_    0.172160 0.110387 0.589894 0.127997
H3    H     H_    0.322645 0.887820 0.664810 0.130077
H4    H     H_    0.172516 0.889786 0.586685 0.130674
H5    H     H_    0.991729 0.463125 0.931226 0.145190
H6    H     H_    0.911777 0.472768 0.817907 0.177082
H7    H     H_    0.991797 0.607386 0.866730 0.143194
H8    H     H_    0.730114 0.617257 0.892898 0.181732
H9    H     H_    0.810689 0.614133 0.005419 0.159399
H10   H     H_    0.763634 0.387598 0.021283 0.135740
H11   H     H_    0.688814 0.384820 0.908053 0.150926
H12   H     H_    0.116429 0.622877 0.617456 0.120188
H13   H     H_    0.767123 0.818421 0.616048 0.166256
H14   H     H_    0.942430 0.794375 0.563896 0.087589
H15   H     H_    0.019217 0.767132 0.732707 0.130940
H16   H     H_    0.936196 0.914602 0.716713 0.103111
H17   H     H_    0.839681 0.792941 0.781755 0.158261
H18   H     H_    0.147055 0.289746 0.330661 0.129069
H19   H     H_    0.133937 0.249805 0.462254 0.153526
H20   H     H_    0.895756 0.284982 0.335188 0.126090
H21   H     H_    0.885625 0.249707 0.468124 0.142220
H22   H     H_    0.717177 0.885654 0.432233 0.125630
H23   H     H_    0.716253 0.111582 0.430972 0.120305
H24   H     H_    0.323987 0.110003 0.666395 0.135078
N1    N     N_R   0.852140 0.499070 0.499400 -0.222867
N2    N     N_R   0.148050 0.499110 0.499400 -0.260910
O1    O     O_R   0.381190 0.680360 0.500000 -0.502845
O2    O     O_R   0.618770 0.680320 0.499990 -0.487970
O3    O     O_R   0.364410 0.500000 0.637850 -0.511075
O4    O     O_R   0.602000 0.499960 0.637840 -0.439894
O5    O     O_R   0.381230 0.319680 0.500010 -0.502335
O6    O     O_R   0.618810 0.319640 0.500000 -0.513948
O7    O     O_R   0.398000 0.500040 0.362160 -0.490549
O8    O     O_R   0.635590 0.500000 0.362150 -0.499206
O9    O     O_3   0.834881 0.639992 0.632243 -0.529520

loop_
_geom_bond_atom_site_label_1
_geom_bond_atom_site_label_2
_ccdc_geom_bond_type
C10   C27   S    
C2    H4    S    
C22   H17   S    
C23   C24   A    
C3    C9    S    
Cu1   O7    S    
Cu2   N1    S    
C4    C12   S    
C21   H13   S    
C20   H7    S    
C3    N1    A    
C14   C18   S    
C5    N1    A    
C3    C7    A    
C10   O6    A    
C9    H20   S    
C13   C17   T    
Cu1   Cu2   S    
C2    H3    S    
C1    O2    A    
C22   H16   S    
C15   H1    S    
C4    O4    A    
C1    O1    A    
C20   H6    S    
C11   C13   S    
C6    N2    A    
C4    O3    A    
C26   C27   A    
C10   O5    A    
C9    H21   S    
C19   H8    S    
C2    C29   S    
C12   C16   T    
Cu1   O1    S    
C28   C29   S    
C22   H15   S    
C25   H22   S    
C11   O7    A    
C8    H19   S    
C21   H14   S    
C6    H12   S    
C18   H11   S    
Cu1   O5    S    
C5    C6    A    
C26   H23   S    
C23   C28   A    
C19   H9    S    
C15   C16   S    
C20   H5    S    
Cu1   N2    S    
Cu2   O6    S    
C7    C8    S    
C24   C25   A    
C1    C24   S    
C18   C19   S    
C18   H10   S    
Cu2   O2    S    
C27   C28   A    
Cu2   O8    S    
Cu2   O4    S    
C14   C15   D    
C5    O9    S    
C29   H24   S    
C25   C26   A    
C21   C22   S    
C11   O8    A    
C8    H18   S    
C7    N2    A    
C2    C23   S    
C19   C20   S    
C29   H2    S    
Cu1   O3    S    
C8    C9    S    
C21   O9    S    
C14   C17   S    
