data_mof_unit_44166.cif
_audit_creation_date              2013-03-05T16:50:12-0500
_audit_creation_method            fapswitch 2.2
_symmetry_space_group_name_H-M    P1
_symmetry_Int_Tables_number       1
_space_group_crystal_system       triclinic
_cell_length_a                    15.859054
_cell_length_b                    15.025543
_cell_length_c                    10.611431
_cell_angle_alpha                 89.998397
_cell_angle_beta                  89.92271
_cell_angle_gamma                 90.002948
_cell_volume                      2528.6051151

loop_
_atom_site_label
_atom_site_type_symbol
_atom_site_description
_atom_site_fract_x
_atom_site_fract_y
_atom_site_fract_z
_atom_type_partial_charge
O1    O     O_R   0.378020 0.573650 0.500040 -0.594551
O2    O     O_R   0.621980 0.426350 0.499960 -0.584294
O3    O     O_R   0.621980 0.573650 0.499960 -0.594467
O4    O     O_R   0.378020 0.426350 0.500040 -0.584292
C1    C     C_1   0.250692 0.499994 0.504010 -0.060517
C2    C     C_1   0.749308 0.500016 0.495996 -0.060515
C3    C     C_R   0.338865 0.499998 0.500220 0.891207
C4    C     C_R   0.661135 0.500003 0.499780 0.891289
O5    O     O_R   0.499990 0.573670 0.316780 -0.613298
O6    O     O_R   0.500010 0.426330 0.683220 -0.613312
O7    O     O_R   0.500010 0.573670 0.683220 -0.613254
O8    O     O_R   0.499990 0.426330 0.316780 -0.613277
C5    C     C_R   0.513828 0.499981 0.260020 0.870768
C6    C     C_R   0.486136 0.499978 0.739963 0.870755
Zn1   Zn    Zn3+2 0.500000 0.598370 0.500000 1.045258
Zn2   Zn    Zn3+2 0.500000 0.401630 0.500000 1.078319
C7    C     C_R   0.913131 0.500056 0.489464 -0.186589
C8    C     C_R   0.086869 0.499977 0.510552 -0.186580
C9    C     C_1   0.500003 0.807113 0.499989 0.262048
C10   C     C_1   0.500007 0.192879 0.499979 0.406433
C11   C     C_1   0.824021 0.500038 0.492378 0.170462
C12   C     C_1   0.175979 0.499988 0.507634 0.170442
C13   C     C_R   0.548349 0.663123 0.108528 -0.255208
C14   C     C_R   0.452231 0.336469 0.890794 -0.242696
C15   C     C_R   0.451557 0.663116 0.891407 -0.255143
C16   C     C_R   0.547673 0.336471 0.109180 -0.242640
C17   C     C_R   0.527183 0.744661 0.052667 0.325329
C18   C     C_R   0.473712 0.254872 0.946190 0.336041
C19   C     C_R   0.472743 0.744659 0.947236 0.325234
C20   C     C_R   0.526219 0.254874 0.053759 0.335863
C21   C     C_R   0.480800 0.581524 0.941066 0.038585
C22   C     C_R   0.518955 0.418134 0.059022 0.019281
C23   C     C_R   0.519091 0.581528 0.058898 0.038536
C24   C     C_R   0.480933 0.418133 0.940966 0.019276
C25   C     C_R   0.473030 0.499868 0.876067 -0.140910
C26   C     C_R   0.526875 0.499873 0.123906 -0.140886
C27   C     C_R   0.500008 0.905018 0.499970 -0.227067
C28   C     C_R   0.500015 0.094971 0.499952 -0.251375
C29   C     C_R   0.427432 0.952659 0.461791 0.240987
C30   C     C_R   0.571939 0.047281 0.541040 0.206930
C31   C     C_R   0.572592 0.952662 0.538117 0.240822
C32   C     C_R   0.428094 0.047277 0.458844 0.206369
H1    H     H_    0.589249 0.663176 0.189990 0.197980
H2    H     H_    0.411469 0.336409 0.809187 0.228069
H3    H     H_    0.410667 0.663161 0.809933 0.197976
H4    H     H_    0.588463 0.336413 0.190755 0.228142
N1    N     N_1   0.500000 0.270550 0.500000 -0.059392
N2    N     N_1   0.500000 0.729450 0.500000 -0.082557
C33   C     C_R   0.956040 0.581861 0.495252 0.191921
C34   C     C_R   0.043960 0.418173 0.504757 0.190108
C35   C     C_R   0.043961 0.581821 0.506081 0.192032
C36   C     C_R   0.956039 0.418213 0.493946 0.190238
N3    N     N_R   0.089788 0.664521 0.507018 0.256364
O9    O     O_R   0.147465 0.679271 0.591601 -0.298517
O10   O     O_R   0.074317 0.725203 0.422662 -0.223796
N4    N     N_R   0.910213 0.335512 0.493043 0.256597
O11   O     O_R   0.852518 0.320753 0.408495 -0.290910
O12   O     O_R   0.925697 0.274843 0.577411 -0.226461
N5    N     N_R   0.910215 0.664560 0.495649 0.256358
O13   O     O_R   0.852545 0.679994 0.411301 -0.297932
O14   O     O_R   0.925681 0.724553 0.580987 -0.224199
N6    N     N_R   0.089784 0.335475 0.504330 0.256534
O15   O     O_R   0.147469 0.320033 0.588652 -0.290173
O16   O     O_R   0.074307 0.275493 0.418982 -0.226937
S1    S     S_3+6 0.566812 0.156027 0.122041 0.129333
O17   O     O_2   0.495845 0.095214 0.159215 -0.192506
O18   O     O_2   0.622506 0.109693 0.028000 -0.137379
O19   O     O_3   0.624211 0.179804 0.250838 -0.547098
H5    H     H_    0.646894 0.121701 0.279038 0.416768
S2    S     S_3+6 0.430047 0.843328 0.881314 0.146932
O20   O     O_2   0.397205 0.902939 0.983821 -0.089358
O21   O     O_2   0.497294 0.892077 0.809270 -0.239271
O22   O     O_3   0.349824 0.819270 0.783323 -0.478277
H6    H     H_    0.376454 0.806922 0.700708 0.351439
S3    S     S_3+6 0.433284 0.156011 0.877732 0.129277
O23   O     O_2   0.504381 0.095526 0.840156 -0.193385
O24   O     O_2   0.377850 0.109317 0.971735 -0.136879
O25   O     O_3   0.375640 0.179814 0.749209 -0.546867
H7    H     H_    0.353365 0.121647 0.720571 0.416572
S4    S     S_3+6 0.569910 0.843329 0.118554 0.146918
O26   O     O_2   0.602782 0.902930 0.016034 -0.089356
O27   O     O_2   0.502673 0.892100 0.190582 -0.239182
O28   O     O_3   0.650122 0.819250 0.216559 -0.478556
H8    H     H_    0.623491 0.806974 0.299195 0.351473
N7    N     N_R   0.356437 0.094371 0.409060 0.247446
O29   O     O_R   0.322683 0.069542 0.303016 -0.199104
O30   O     O_R   0.324985 0.162525 0.468372 -0.309611
N8    N     N_R   0.648430 0.905357 0.570404 0.248237
O31   O     O_R   0.720190 0.928593 0.520718 -0.225290
O32   O     O_R   0.646213 0.838602 0.648465 -0.297211
N9    N     N_R   0.643614 0.094381 0.590765 0.247454
O33   O     O_R   0.677416 0.069545 0.696772 -0.199059
O34   O     O_R   0.675049 0.162535 0.531417 -0.309701
N10   N     N_R   0.351593 0.905351 0.429487 0.248216
O35   O     O_R   0.279820 0.928613 0.479099 -0.225296
O36   O     O_R   0.353818 0.838574 0.351469 -0.297489

loop_
_geom_bond_atom_site_label_1
_geom_bond_atom_site_label_2
_geom_bond_distance
_ccdc_geom_bond_type
C15   C21   1.412956 A    
C16   C22   1.413151 A    
C17   C19   1.414103 A    
O22   H6    0.990117 S    
C33   C35   1.399225 A    
N7    O29   1.301389 A    
C22   C26   1.413681 A    
C28   C32   1.416354 A    
S4    O28   1.683536 S    
O7    C6    1.279290 A    
C23   C26   1.413012 A    
C13   H1    1.081428 S    
N4    O11   1.301356 A    
C7    C36   1.406310 A    
C24   C25   1.413659 A    
O5    C5    1.279285 A    
N6    O16   1.301294 A    
C9    C27   1.471065 S    
O7    Zn1   1.979322 S    
C1    C12   1.185451 T    
O8    Zn2   1.979322 S    
O19   H5    0.990677 S    
C13   C23   1.412940 A    
C34   C36   1.399209 A    
C21   C23   1.390763 A    
S2    O20   1.501765 D    
O1    Zn1   1.969804 S    
C13   C17   1.401983 A    
O2    Zn2   1.969804 S    
N7    O30   1.301101 A    
N5    O13   1.301383 A    
O1    C3    1.268941 A    
Zn1   N2    1.969550 S    
O4    C3    1.268948 A    
Zn2   N1    1.969550 S    
C8    C35   1.406319 A    
C29   C32   1.422072 A    
N3    O10   1.301314 A    
C15   C19   1.401977 A    
N5    O14   1.301307 A    
C20   S1    1.773876 S    
C5    C26   1.458837 S    
S4    O27   1.502041 D    
O3    C4    1.268929 A    
O6    C6    1.278765 A    
C7    C33   1.406322 A    
N9    O33   1.301391 A    
C1    C3    1.398861 S    
C9    N2    1.166935 T    
C2    C4    1.398863 S    
S1    O18   1.502787 D    
N3    O9    1.301380 A    
C2    C11   1.185451 T    
C14   C24   1.413123 A    
C35   N3    1.439550 S    
C22   C24   1.391044 A    
O4    Zn2   1.969841 S    
S3    O23   1.501732 D    
C29   N10   1.438891 S    
N6    O15   1.301375 A    
N9    O34   1.301112 A    
C10   C28   1.471118 S    
O28   H8    0.990110 S    
S1    O19   1.681537 S    
S2    O22   1.683484 S    
C32   N7    1.439759 S    
N8    O31   1.301284 A    
N10   O36   1.301280 A    
S3    O24   1.502559 D    
C30   C31   1.422076 A    
N8    O32   1.301279 A    
C16   C20   1.401905 A    
C34   N6    1.439542 S    
C21   C25   1.412988 A    
C15   H3    1.081436 S    
C6    C25   1.458855 S    
O3    Zn1   1.969841 S    
C8    C34   1.406310 A    
C19   S2    1.774015 S    
C31   N8    1.438864 S    
C8    C12   1.413504 S    
O2    C4    1.268959 A    
C14   C18   1.401906 A    
S4    O26   1.501873 D    
C33   N5    1.439551 S    
C18   C20   1.413826 A    
O5    Zn1   1.979342 S    
C27   C29   1.415145 A    
O6    Zn2   1.979342 S    
C28   C30   1.416361 A    
O25   H7    0.990600 S    
C14   H2    1.081345 S    
N4    O12   1.301292 A    
C30   N9    1.439749 S    
C27   C31   1.415134 A    
N10   O35   1.301299 A    
S3    O25   1.681360 S    
C7    C11   1.413503 S    
C10   N1    1.167046 T    
C16   H4    1.081344 S    
O8    C5    1.278744 A    
C17   S4    1.774019 S    
S1    O17   1.501963 D    
S2    O21   1.502005 D    
C18   S3    1.773846 S    
C36   N4    1.439547 S    
