data_mof_unit_48155.cif
_audit_creation_date              2012-12-11T15:34:13-0500
_audit_creation_method            fapswitch 2.2
_symmetry_space_group_name_H-M    P1
_symmetry_Int_Tables_number       1
_space_group_crystal_system       triclinic
_cell_length_a                    15.056222
_cell_length_b                    15.054889
_cell_length_c                    34.961381
_cell_angle_alpha                 90.694631
_cell_angle_beta                  90.061555
_cell_angle_gamma                 59.966724
_cell_volume                      6860.06000303

loop_
_atom_site_label
_atom_site_type_symbol
_atom_type_description
_atom_site_fract_x
_atom_site_fract_y
_atom_site_fract_z
_atom_type_partial_charge
C1    C     C_R   0.302267 0.608556 0.555743 0.548387
C2    C     C_R   0.658036 0.669597 0.667341 0.040305
C3    C     C_R   0.262094 0.666701 0.266154 -0.088945
C4    C     C_R   0.205285 0.634875 0.288146 0.020930
C5    C     C_R   0.144610 0.600897 0.269867 -0.111865
C6    C     C_R   0.137442 0.602777 0.230181 -0.106268
C7    C     C_R   0.190883 0.638647 0.208257 0.048610
C8    C     C_R   0.223584 0.552371 0.351179 -0.118432
C9    C     C_R   0.243283 0.547938 0.390217 -0.130166
C10   C     C_R   0.227748 0.716155 0.388059 -0.124487
C11   C     C_R   0.208139 0.720436 0.349049 -0.120192
C12   C     C_R   0.210255 0.636765 0.330092 0.027946
C13   C     C_R   0.565477 0.732318 0.648362 -0.113425
C14   C     C_R   0.250373 0.627700 0.408585 0.018884
C15   C     C_R   0.735939 0.025498 0.943369 0.551077
C16   C     C_R   0.746360 0.723025 0.944903 0.548493
C17   C     C_R   0.037696 0.733857 0.948164 0.549233
C18   C     C_R   0.723144 0.038561 0.053005 0.546007
C19   C     C_R   0.733213 0.734301 0.054572 0.538251
C20   C     C_R   0.028375 0.744327 0.057715 0.563210
C21   C     C_R   0.552558 0.710511 0.610624 -0.125056
C22   C     C_R   0.676862 0.686967 0.786222 0.352104
C23   C     C_R   0.665774 0.680875 0.708873 0.330010
C24   C     C_R   0.774249 0.614474 0.845894 -0.156993
C25   C     C_R   0.790313 0.620622 0.884702 -0.144258
C26   C     C_R   0.624764 0.775556 0.890151 -0.122413
C27   C     C_R   0.608039 0.770404 0.850934 0.243493
C28   C     C_R   0.684886 0.690410 0.828261 0.034916
C29   C     C_R   0.610689 0.588703 0.555162 0.550449
C30   C     C_R   0.717644 0.703348 0.906857 -0.019321
C31   C     C_R   0.722905 0.073090 0.905677 -0.015559
C32   C     C_R   0.639756 0.088960 0.882838 -0.146969
C33   C     C_R   0.636968 0.113125 0.844571 -0.185441
C34   C     C_R   0.716651 0.122372 0.828223 0.038707
C35   C     C_R   0.798575 0.111736 0.850981 0.276518
C36   C     C_R   0.799842 0.089107 0.890099 -0.122167
C37   C     C_R   0.712810 0.223520 0.771677 -0.058767
C38   C     C_R   0.699551 0.243117 0.732293 0.062084
C39   C     C_R   0.692404 0.170904 0.707701 0.001448
C40   C     C_R   0.590315 0.300645 0.553584 0.547375
C41   C     C_R   0.697582 0.082895 0.723052 -0.115584
C42   C     C_R   0.708187 0.066233 0.762172 -0.083350
C43   C     C_R   0.715259 0.136592 0.786672 0.046494
C44   C     C_R   0.584948 0.197543 0.650378 -0.123039
C45   C     C_R   0.560682 0.226993 0.612436 -0.119748
C46   C     C_R   0.721402 0.225974 0.605124 -0.109243
C47   C     C_R   0.745655 0.196237 0.643077 -0.072114
C48   C     C_R   0.675233 0.186725 0.666308 0.050507
C49   C     C_R   0.626710 0.245751 0.589947 0.023153
C50   C     C_R   0.089566 0.695430 0.910877 -0.016823
C51   C     C_R   0.300501 0.610083 0.445996 0.534429
C52   C     C_R   0.131829 0.747010 0.891641 -0.100116
C53   C     C_R   0.159984 0.725373 0.853048 0.292933
C54   C     C_R   0.139161 0.655920 0.832919 0.065222
C55   C     C_R   0.105321 0.598272 0.852776 -0.135717
C56   C     C_R   0.081566 0.617162 0.891561 -0.132658
C57   C     C_R   0.224064 0.560215 0.773732 -0.166692
C58   C     C_R   0.241882 0.554215 0.734179 0.066907
C59   C     C_R   0.175132 0.638653 0.711345 -0.026137
C60   C     C_R   0.093217 0.725908 0.728379 -0.149535
C61   C     C_R   0.076280 0.732444 0.767961 0.095753
C62   C     C_R   0.607264 0.589320 0.444992 0.544500
C63   C     C_R   0.144700 0.649241 0.790857 -0.005623
C64   C     C_R   0.215304 0.711370 0.655272 -0.110994
C65   C     C_R   0.243765 0.705478 0.617103 -0.160469
C66   C     C_R   0.211611 0.563910 0.606463 0.274012
C67   C     C_R   0.185877 0.568773 0.645219 -0.052013
C68   C     C_R   0.190718 0.640276 0.669866 0.019214
C69   C     C_R   0.247578 0.628586 0.592732 0.019370
C70   C     C_R   0.690836 0.717714 0.089979 0.019026
C71   C     C_R   0.609998 0.801218 0.109405 -0.127497
C72   C     C_R   0.584110 0.789888 0.146592 -0.116828
C73   C     C_R   0.587547 0.303400 0.443577 0.543968
C74   C     C_R   0.638310 0.694885 0.164858 0.027773
C75   C     C_R   0.713429 0.609555 0.144323 -0.117621
C76   C     C_R   0.739428 0.620894 0.107173 -0.128547
C77   C     C_R   0.624357 0.601575 0.221332 -0.104793
C78   C     C_R   0.620943 0.591180 0.260836 -0.089926
C79   C     C_R   0.618099 0.666426 0.285688 0.055834
C80   C     C_R   0.618249 0.752237 0.270791 -0.068663
C81   C     C_R   0.621363 0.762824 0.231381 -0.102915
C82   C     C_R   0.625118 0.687317 0.206292 0.021389
C83   C     C_R   0.532681 0.724761 0.350527 0.060823
C84   C     C_R   0.631778 0.625171 0.591372 0.025493
C85   C     C_R   0.536675 0.707904 0.390002 -0.126413
C86   C     C_R   0.703012 0.554314 0.383276 -0.127798
C87   C     C_R   0.701575 0.571387 0.344162 -0.147356
C88   C     C_R   0.616415 0.654659 0.327337 -0.005457
C89   C     C_R   0.619302 0.620790 0.406402 -0.010131
C90   C     C_R   0.700303 0.100248 0.088515 -0.007415
C91   C     C_R   0.775201 0.118452 0.104591 -0.132661
C92   C     C_R   0.764038 0.156002 0.141845 -0.124609
C93   C     C_R   0.677979 0.176174 0.163766 0.051735
C94   C     C_R   0.598050 0.165040 0.147092 0.085826
C95   C     C_R   0.726860 0.567202 0.609413 -0.128691
C96   C     C_R   0.609911 0.128526 0.109204 -0.126423
C97   C     C_R   0.610925 0.292549 0.222396 0.090600
C98   C     C_R   0.606380 0.298974 0.262559 -0.112601
C99   C     C_R   0.670555 0.213663 0.284799 0.042381
C100  C     C_R   0.742661 0.121935 0.267163 -0.077504
C101  C     C_R   0.747043 0.113584 0.227509 -0.124625
C102  C     C_R   0.679838 0.196876 0.204922 0.038791
C103  C     C_R   0.736645 0.208177 0.350994 0.272161
C104  C     C_R   0.715557 0.229409 0.390260 -0.116348
C105  C     C_R   0.544035 0.257061 0.380762 -0.141086
C106  C     C_R   0.740066 0.589549 0.647027 -0.114670
C107  C     C_R   0.563101 0.239986 0.341710 -0.168489
C108  C     C_R   0.657567 0.219478 0.326504 0.036774
C109  C     C_R   0.618398 0.256551 0.405161 -0.020433
C110  C     C_R   0.088121 0.707039 0.093240 0.031560
C111  C     C_R   0.117278 0.609047 0.107901 0.264587
C112  C     C_R   0.160036 0.583639 0.144586 -0.090818
C113  C     C_R   0.169815 0.655690 0.167146 -0.011608
C114  C     C_R   0.146799 0.749942 0.151543 -0.145105
C115  C     C_R   0.107079 0.775049 0.114891 -0.172523
C116  C     C_R   0.254681 0.668893 0.226473 -0.057696
Cr1   Cr    Cr6+3 0.421670 0.426920 0.499620 1.039207
Cr2   Cr    Cr6+3 0.427030 0.651190 0.500980 1.016213
Cr3   Cr    Cr6+3 0.651280 0.421870 0.499380 1.012801
Cr4   Cr    Cr6+3 0.910810 0.908010 0.001130 1.010407
Cr5   Cr    Cr6+3 0.682800 0.909890 0.998370 1.016431
Cr6   Cr    Cr6+3 0.908370 0.682300 0.002180 1.034865
H1    H     H_    0.789470 0.501299 0.595187 0.128174
H2    H     H_    0.862421 0.080551 0.907924 0.119581
H3    H     H_    0.816673 0.185959 0.654914 0.118614
H4    H     H_    0.715562 0.278724 0.791115 0.175024
H5    H     H_    0.573646 0.121949 0.827234 0.115338
H6    H     H_    0.691862 0.027561 0.704640 0.118938
H7    H     H_    0.709874 0.998702 0.773489 0.121373
H8    H     H_    0.530477 0.189094 0.667960 0.130722
H9    H     H_    0.487377 0.241269 0.601547 0.151844
H10   H     H_    0.478473 0.756886 0.597381 0.127329
H11   H     H_    0.774224 0.238958 0.588377 0.122964
H12   H     H_    0.139699 0.806585 0.906146 0.119839
H13   H     H_    0.049398 0.575776 0.905580 0.137592
H14   H     H_    0.164681 0.514986 0.656296 0.125826
H15   H     H_    0.276054 0.497527 0.791801 0.138137
H16   H     H_    0.041938 0.789192 0.710394 0.146691
H17   H     H_    0.218143 0.767776 0.673993 0.129995
H18   H     H_    0.862594 0.563527 0.896792 0.139568
H19   H     H_    0.269235 0.757181 0.607416 0.137289
H20   H     H_    0.091238 0.543213 0.837727 0.123231
H21   H     H_    0.570830 0.876688 0.096819 0.134277
H22   H     H_    0.801116 0.554947 0.092665 0.114580
H23   H     H_    0.766246 0.517876 0.326688 0.123373
H24   H     H_    0.620634 0.524564 0.272066 0.123427
H25   H     H_    0.627039 0.542521 0.202555 0.135987
H26   H     H_    0.524712 0.856414 0.161695 0.123490
H27   H     H_    0.616974 0.810344 0.289741 0.115299
H28   H     H_    0.812708 0.540346 0.660777 0.136415
H29   H     H_    0.624173 0.828481 0.220555 0.114047
H30   H     H_    0.471061 0.758850 0.407599 0.169903
H31   H     H_    0.756640 0.535521 0.157781 0.107756
H32   H     H_    0.767367 0.486223 0.395009 0.138920
H33   H     H_    0.845318 0.098271 0.089187 0.130324
H34   H     H_    0.551710 0.114834 0.096856 0.157672
H35   H     H_    0.502658 0.246499 0.323045 0.132850
H36   H     H_    0.552351 0.370276 0.276797 0.139758
H37   H     H_    0.501368 0.795411 0.663154 0.130524
H38   H     H_    0.825268 0.164555 0.154362 0.113381
H39   H     H_    0.792320 0.055571 0.284096 0.110120
H40   H     H_    0.800034 0.040261 0.214314 0.108099
H41   H     H_    0.773195 0.230131 0.408600 0.122728
H42   H     H_    0.468245 0.278274 0.391306 0.142237
H43   H     H_    0.085602 0.850600 0.104451 0.140365
H44   H     H_    0.195629 0.787252 0.333333 0.114766
H45   H     H_    0.833801 0.551312 0.829454 0.150768
H46   H     H_    0.311701 0.690495 0.279696 0.153654
H47   H     H_    0.297382 0.695744 0.210039 0.131214
H48   H     H_    0.182009 0.509085 0.156112 0.128436
H49   H     H_    0.100072 0.576250 0.286314 0.102788
H50   H     H_    0.086285 0.580804 0.216757 0.096357
H51   H     H_    0.225312 0.487043 0.337095 0.108162
H52   H     H_    0.260226 0.478852 0.405323 0.123052
H53   H     H_    0.153384 0.807007 0.168526 0.117074
H54   H     H_    0.232085 0.779095 0.401476 0.140745
H55   H     H_    0.566399 0.838150 0.907184 0.126868
H56   H     H_    0.578982 0.077825 0.893976 0.135859
N1    N     N_R   0.761962 0.627433 0.764798 -0.231944
N2    N     N_R   0.756518 0.624142 0.726925 -0.241690
N3    N     N_R   0.580692 0.741125 0.730211 -0.243138
N4    N     N_R   0.586223 0.744335 0.768128 -0.188176
O1    O     O_R   0.502070 0.323090 0.541280 -0.501969
O2    O     O_R   0.520720 0.641670 0.461580 -0.502999
O3    O     O_R   0.674120 0.502090 0.457500 -0.518281
O4    O     O_R   0.640110 0.338380 0.459630 -0.504192
O5    O     O_3   0.499990 0.499990 0.499990 -0.239606
O6    O     O_R   0.017640 0.822070 0.960410 -0.520066
O7    O     O_R   0.822000 0.989470 0.960340 -0.502050
O8    O     O_R   0.666920 0.007430 0.955290 -0.516279
O9    O     O_R   0.694410 0.812480 0.959650 -0.503307
O10   O     O_R   0.831550 0.656950 0.958960 -0.519150
O11   O     O_R   0.998590 0.685540 0.963930 -0.497725
O12   O     O_R   0.338340 0.520690 0.539540 -0.453217
O13   O     O_R   0.008220 0.831200 0.045060 -0.533195
O14   O     O_R   0.813270 0.997930 0.038810 -0.502361
O15   O     O_R   0.657500 0.016560 0.039940 -0.516938
O16   O     O_R   0.685680 0.820940 0.038120 -0.501407
O17   O     O_R   0.822130 0.666070 0.043610 -0.532937
O18   O     O_R   0.989860 0.694000 0.042400 -0.456052
O19   O     O_3   0.833990 0.833400 0.000560 -0.242581
O20   O     O_R   0.324760 0.674070 0.543580 -0.532602
O21   O     O_R   0.522400 0.640310 0.540110 -0.501638
O22   O     O_R   0.675940 0.500630 0.542210 -0.517591
O23   O     O_R   0.641790 0.337020 0.538150 -0.502915
O24   O     O_R   0.500260 0.324550 0.456580 -0.518579
O25   O     O_R   0.336660 0.522040 0.461020 -0.510596
O26   O     O_R   0.322940 0.675540 0.458880 -0.520081
C117  C     C_2   0.687614 0.341955 0.718779 0.563903
O27   O     O_2   0.638459 0.382581 0.689997 -0.501991
O28   O     O_R   0.730217 0.390725 0.739969 -0.698440
H57   H     H_    0.715943 0.457898 0.728307 0.358815
O29   O     O_3   0.872071 0.130060 0.834848 -0.572102
C118  C     C_3   0.973474 0.049127 0.841231 0.037590
H58   H     H_    0.009512 0.018207 0.812834 0.208531
H59   H     H_    0.979310 0.982876 0.857343 0.143709
C119  C     C_3   0.034128 0.092107 0.861643 -0.275296
H60   H     H_    0.028118 0.157570 0.845157 0.185089
H61   H     H_    0.000871 0.120849 0.890572 0.156365
C120  C     C_3   0.147221 0.011189 0.865493 -0.464580
H62   H     H_    0.155707 0.947291 0.883493 0.171688
H63   H     H_    0.189110 0.046094 0.879327 0.135263
H64   H     H_    0.182014 0.980663 0.836896 0.180720
C121  C     C_2   0.334172 0.462038 0.718313 0.570959
O30   O     O_2   0.367707 0.379281 0.734070 -0.543866
O31   O     O_R   0.385036 0.469882 0.686219 -0.665520
H65   H     H_    0.446513 0.401835 0.678382 0.363339
O32   O     O_3   0.197656 0.780558 0.834523 -0.597220
C122  C     C_3   0.303696 0.716141 0.826781 0.001702
H66   H     H_    0.323560 0.747524 0.801689 0.176936
H67   H     H_    0.324507 0.636196 0.818664 0.129277
C123  C     C_3   0.368553 0.715017 0.860807 -0.271083
H68   H     H_    0.360261 0.792239 0.864567 0.193673
H69   H     H_    0.341769 0.696052 0.887432 0.153573
C124  C     C_3   0.481431 0.635290 0.854598 -0.436319
H70   H     H_    0.491539 0.556997 0.853174 0.145714
H71   H     H_    0.527429 0.638753 0.878803 0.158351
H72   H     H_    0.510044 0.650102 0.827541 0.195193
C125  C     C_2   0.985949 0.825952 0.784223 0.580037
O33   O     O_2   0.948870 0.906771 0.766899 -0.543881
O34   O     O_R   0.941126 0.821600 0.818649 -0.703514
H73   H     H_    0.879599 0.889944 0.826264 0.328596
O35   O     O_3   0.210382 0.488888 0.583569 -0.557642
C126  C     C_3   0.126384 0.534488 0.558109 0.016808
H74   H     H_    0.144877 0.481350 0.533236 0.154056
H75   H     H_    0.113485 0.608537 0.546303 0.107488
C127  C     C_3   0.028107 0.549353 0.577234 -0.281398
H76   H     H_    0.041698 0.474795 0.588426 0.174180
H77   H     H_    0.006591 0.604507 0.601603 0.154704
C128  C     C_3   0.939245 0.590625 0.549021 -0.477590
H78   H     H_    0.924463 0.665187 0.537448 0.149511
H79   H     H_    0.868796 0.602745 0.563805 0.154559
H80   H     H_    0.956944 0.535095 0.525029 0.148771
C129  C     C_2   0.437071 0.811623 0.334681 0.552407
O36   O     O_2   0.411603 0.808863 0.301663 -0.535197
O37   O     O_R   0.373888 0.895864 0.358177 -0.726728
H81   H     H_    0.310725 0.949507 0.344408 0.332984
C130  C     C_2   0.542538 0.385319 0.199809 0.560208
O38   O     O_2   0.468611 0.458138 0.215209 -0.537437
O39   O     O_R   0.563240 0.391087 0.161224 -0.706681
H82   H     H_    0.511317 0.458422 0.149326 0.342929
O40   O     O_3   0.828814 0.190970 0.335648 -0.573425
C131  C     C_3   0.911729 0.097940 0.349206 -0.000335
H83   H     H_    0.947626 0.045702 0.324178 0.146277
H84   H     H_    0.889670 0.056071 0.369857 0.111166
C132  C     C_3   0.991312 0.119381 0.367702 -0.259184
H85   H     H_    0.015235 0.158819 0.346907 0.179411
H86   H     H_    0.956700 0.170727 0.393031 0.156401
C133  C     C_3   0.085787 0.020376 0.380253 -0.481609
H87   H     H_    0.063941 0.979590 0.401180 0.146352
H88   H     H_    0.141351 0.038657 0.393992 0.163843
H89   H     H_    0.123554 0.969424 0.355109 0.149110
C134  C     C_2   0.504864 0.184083 0.168751 0.571996
O41   O     O_2   0.424572 0.210683 0.151699 -0.531808
O42   O     O_R   0.508650 0.169268 0.208254 -0.710479
H90   H     H_    0.440136 0.184738 0.219378 0.339062
O43   O     O_3   0.108304 0.537081 0.085650 -0.552467
C135  C     C_3   0.039397 0.510446 0.102597 0.009906
H91   H     H_    0.978020 0.526939 0.081577 0.180524
H92   H     H_    0.000274 0.555039 0.129157 0.105111
C136  C     C_3   0.095239 0.395467 0.110818 -0.262644
H93   H     H_    0.129094 0.351565 0.083828 0.184205
H94   H     H_    0.158506 0.376146 0.131331 0.187330
C137  C     C_3   0.022240 0.363190 0.127576 -0.487817
H95   H     H_    0.987820 0.405744 0.154733 0.146396
H96   H     H_    0.065138 0.279766 0.133588 0.159788
H97   H     H_    0.960088 0.378499 0.106987 0.142822
O44   O     O_3   0.513921 0.838964 0.835537 -0.572969
C138  C     C_3   0.509075 0.933791 0.829473 0.015959
H98   H     H_    0.575353 0.923352 0.811771 0.141556
H99   H     H_    0.508464 0.970945 0.857282 0.120006
C139  C     C_3   0.409757 0.003682 0.808205 -0.253105
H100  H     H_    0.408598 0.966068 0.780793 0.196991
H101  H     H_    0.343126 0.015692 0.825830 0.163387
C140  C     C_3   0.399279 0.107600 0.799674 -0.475264
H102  H     H_    0.398345 0.147553 0.826717 0.144818
H103  H     H_    0.326188 0.155964 0.784389 0.167455
H104  H     H_    0.463721 0.097604 0.781195 0.158258

loop_
_geom_bond_atom_site_label_1
_geom_bond_atom_site_label_2
_ccdc_geom_bond_type
C131  C132  S    
C55   C56   A    
C101  C102  A    
C29   O21   A    
C52   H12   S    
C41   C42   A    
C54   C55   A    
C17   O11   A    
O42   H90   S    
C73   O24   A    
C118  C119  S    
C121  O30   D    
C94   C134  S    
C120  H63   S    
C73   O4    A    
C57   C58   A    
C124  H70   S    
C131  H83   S    
C140  H103  S    
C6    H50   S    
N3    N4    A    
C52   C53   A    
C119  C120  S    
C99   C108  S    
C105  C107  A    
C46   C49   A    
C26   C27   A    
Cr4   O14   S    
C106  H28   S    
C111  O43   S    
Cr6   O19   S    
C71   H21   S    
C139  H100  S    
C95   C106  A    
C125  O33   D    
C23   N3    A    
C122  C123  S    
C3    C116  A    
C14   C51   S    
C65   C69   A    
C5    C6    A    
C34   C35   A    
C51   O25   A    
C127  C128  S    
C66   C69   A    
C66   O35   S    
C17   O6    A    
C44   H8    S    
C40   C49   S    
C98   C99   A    
C62   C89   S    
C97   C98   A    
C33   H5    S    
C138  C139  S    
C126  H74   S    
C15   C31   S    
O34   H73   S    
C61   C63   A    
C2    C13   A    
C110  C111  A    
C79   C88   S    
C129  O37   S    
Cr1   O12   S    
C16   O10   A    
C132  H85   S    
C117  O28   S    
C27   O44   S    
C46   C47   A    
C1    O12   A    
C112  H48   S    
C6    C7    A    
C98   H36   S    
C8    C9    A    
C19   O16   A    
C135  C136  S    
Cr2   O5    S    
C3    H46   S    
C11   H44   S    
C50   C52   A    
C107  C108  A    
C57   C63   A    
C100  H39   S    
Cr3   O23   S    
Cr6   O17   S    
C115  H43   S    
C50   C56   A    
C77   H25   S    
C20   O13   A    
C97   C102  A    
C135  H91   S    
Cr2   O26   S    
C40   O1    A    
C85   H30   S    
C128  H80   S    
C83   C88   A    
C15   O7    A    
C59   C60   A    
C55   H20   S    
C22   C28   S    
O43   C135  S    
Cr4   O19   S    
C124  H71   S    
C41   H6    S    
C32   H56   S    
Cr2   O20   S    
C37   C38   A    
C74   C82   S    
C1    O20   A    
Cr4   O6    S    
C120  H62   S    
C107  H35   S    
C103  C104  A    
C97   C130  S    
C47   H3    S    
C140  H104  S    
Cr3   O5    S    
C127  H77   S    
C10   H54   S    
C80   H27   S    
O44   C138  S    
Cr4   O13   S    
C74   C75   A    
C34   C43   S    
C83   C129  S    
C18   O14   A    
C67   C68   A    
C61   C125  S    
C47   C48   A    
C25   H18   S    
C38   C39   A    
C24   C25   A    
C29   C84   S    
C117  O27   D    
Cr1   O24   S    
Cr1   O5    S    
C114  C115  A    
C91   C92   A    
C137  H97   S    
C9    C14   A    
C58   C121  S    
C118  H58   S    
C22   N1    A    
C136  H93   S    
C77   C78   A    
C62   O2    A    
C90   C96   A    
C2    C106  A    
C123  C124  S    
C81   C82   A    
C79   C80   A    
C72   H26   S    
C60   C61   A    
C136  C137  S    
C35   C36   A    
C18   C90   S    
C7    C116  A    
C37   C43   A    
C130  O39   S    
C75   C76   A    
Cr3   O3    S    
O28   H57   S    
C91   H33   S    
C122  H66   S    
C16   O9    A    
C136  H94   S    
C59   C68   S    
C65   H19   S    
C75   H31   S    
C31   C32   A    
C21   C84   A    
C45   C49   A    
C8    C12   A    
O37   H81   S    
C24   H45   S    
C18   O15   A    
C123  H69   S    
C33   C34   A    
C5    H49   S    
C105  H42   S    
C57   H15   S    
C9    H52   S    
C125  O34   S    
C93   C94   A    
C64   H17   S    
C140  H102  S    
C94   C96   A    
C35   O29   S    
Cr5   O15   S    
C23   N2    A    
C103  C108  A    
C132  H86   S    
C62   O3    A    
C20   C110  S    
C76   H22   S    
C72   C74   A    
C114  H53   S    
C83   C85   A    
C15   O8    A    
C45   H9    S    
C128  H79   S    
C133  H88   S    
C84   C95   A    
C10   C14   A    
C124  H72   S    
C135  H92   S    
C132  C133  S    
Cr2   O21   S    
C4    C12   S    
C42   C43   A    
C96   H34   S    
Cr6   O11   S    
C3    C4    A    
C64   C68   A    
Cr5   O8    S    
C56   H13   S    
C44   C45   A    
C86   C87   A    
C138  H98   S    
C113  C114  A    
C26   H55   S    
C95   H1    S    
C25   C30   A    
C131  H84   S    
O39   H82   S    
C105  C109  A    
C40   O23   A    
C101  H40   S    
Cr6   O10   S    
C85   C89   A    
C87   H23   S    
C111  C112  A    
C36   H2    S    
C51   O26   A    
C93   C102  S    
C139  C140  S    
Cr3   O22   S    
C24   C28   A    
C80   C81   A    
Cr1   O25   S    
C86   C89   A    
C121  O31   S    
C17   C50   S    
Cr5   O9    S    
C127  H76   S    
Cr1   O1    S    
C53   C54   A    
O40   C131  S    
Cr2   O2    S    
C119  H61   S    
Cr3   O4    S    
C112  C113  A    
C19   O17   A    
C99   C100  A    
C92   H38   S    
C32   C33   A    
C7    C113  S    
C129  O36   D    
C137  H96   S    
C67   H14   S    
C58   C59   A    
C21   H10   S    
Cr5   O19   S    
C71   C72   A    
C122  H67   S    
C126  C127  S    
C81   H29   S    
Cr4   O7    S    
C13   C21   A    
C46   H11   S    
C70   C76   A    
C78   C79   A    
C90   C91   A    
C104  C109  A    
C77   C82   A    
C123  H68   S    
O29   C118  S    
C4    C5    A    
C64   C65   A    
C139  H101  S    
C92   C93   A    
C134  O42   S    
C103  O40   S    
C126  H75   S    
C116  H47   S    
C66   C67   A    
C42   H7    S    
C118  H59   S    
C73   C109  S    
C119  H60   S    
C38   C117  S    
C86   H32   S    
C1    C69   S    
Cr5   O16   S    
C128  H78   S    
C70   C71   A    
C137  H95   S    
C10   C11   A    
C78   H24   S    
O32   C122  S    
N1    N2    A    
C44   C48   A    
C104  H41   S    
C37   H4    S    
C39   C41   A    
C87   C88   A    
C22   N4    A    
O31   H65   S    
C54   C63   S    
C133  H89   S    
C130  O38   D    
C2    C23   S    
C29   O22   A    
C20   O18   A    
C31   C36   A    
C138  H99   S    
C19   C70   S    
C100  C101  A    
C53   O32   S    
C8    H51   S    
Cr6   O18   S    
C133  H87   S    
C16   C30   S    
C110  C115  A    
C13   H37   S    
C120  H64   S    
O35   C126  S    
C11   C12   A    
C60   H16   S    
C39   C48   S    
C27   C28   A    
C26   C30   A    
C134  O41   D    
