data_mof_unit_7286.cif
_audit_creation_date              2012-12-10T20:37:33-0500
_audit_creation_method            fapswitch 2.2
_symmetry_space_group_name_H-M    P1
_symmetry_Int_Tables_number       1
_space_group_crystal_system       triclinic
_cell_length_a                    15.719155
_cell_length_b                    10.747272
_cell_length_c                    9.86128
_cell_angle_alpha                 89.970865
_cell_angle_beta                  90.014358
_cell_angle_gamma                 90.130714
_cell_volume                      1665.94065721

loop_
_atom_site_label
_atom_site_type_symbol
_atom_type_description
_atom_site_fract_x
_atom_site_fract_y
_atom_site_fract_z
_atom_type_partial_charge
C1    C     C_R   0.500446 0.260464 0.499894 0.877818
C2    C     C_R   0.502488 0.129252 0.498369 -0.088734
C3    C     C_R   0.510295 0.064668 0.374833 -0.227781
C4    C     C_R   0.337887 0.499833 0.499984 0.906967
C5    C     C_R   0.510227 0.935492 0.374806 -0.203428
C6    C     C_R   0.502175 0.870738 0.498285 -0.111160
C7    C     C_R   0.495881 0.937811 0.617473 0.031531
C8    C     C_3   0.484639 0.928506 0.767485 -0.193083
C9    C     C_3   0.484822 0.072074 0.767232 -0.561743
C10   C     C_R   0.455081 0.411960 0.071275 0.203054
C11   C     C_R   0.550183 0.579788 0.071959 -0.100527
C12   C     C_3   0.082736 0.497280 0.500773 0.126716
C13   C     C_R   0.550262 0.579699 0.927949 -0.058302
C14   C     C_R   0.454975 0.412105 0.928681 0.206548
C15   C     C_3   0.361147 0.392093 0.923207 -0.487960
C16   C     C_R   0.500370 0.739527 0.499806 0.878683
C17   C     C_3   0.361342 0.391417 0.077124 -0.488173
C18   C     C_R   0.662131 0.500106 0.500032 0.899258
C19   C     C_3   0.971128 0.392804 0.558264 -0.126306
C20   C     C_3   0.027667 0.398989 0.429673 -0.231091
C21   C     C_1   0.248950 0.498886 0.500074 -0.179068
C22   C     C_1   0.751102 0.499847 0.500063 -0.193816
C23   C     C_3   0.972233 0.597644 0.572082 -0.259420
C24   C     C_3   0.027991 0.491084 0.629368 -0.226267
C25   C     C_3   0.999252 0.788824 0.341371 -0.327813
C26   C     C_2   0.400339 0.872552 0.805986 0.478816
C27   C     C_3   0.917305 0.499081 0.500118 0.137651
C28   C     C_3   0.027737 0.601340 0.443847 0.612157
C29   C     C_3   0.971902 0.504807 0.370767 -0.257403
C30   C     C_1   0.173635 0.498006 0.500363 -0.017293
C31   C     C_1   0.826432 0.499504 0.500098 -0.057628
C32   C     C_R   0.496471 0.062035 0.617500 0.113856
H1    H     H_    0.052549 0.317782 0.372701 0.152420
H2    H     H_    0.344954 0.299214 0.121194 0.196299
H3    H     H_    0.945284 0.306858 0.605427 0.138182
H4    H     H_    0.946974 0.511002 0.265647 0.140009
H5    H     H_    0.947567 0.678751 0.629452 0.138864
H6    H     H_    0.053146 0.484561 0.734334 0.155391
H7    H     H_    0.515956 0.112992 0.278797 0.172704
H8    H     H_    0.515992 0.887299 0.278782 0.178918
H9    H     H_    0.959517 0.820710 0.427878 0.154944
H10   H     H_    0.958927 0.744306 0.262337 0.156613
H11   H     H_    0.028908 0.872498 0.295275 0.198574
H12   H     H_    0.540581 0.886521 0.819183 0.168304
H13   H     H_    0.342128 0.904926 0.758436 0.056269
H14   H     H_    0.422976 0.115504 0.794189 0.190648
H15   H     H_    0.541361 0.113410 0.817943 0.206776
H16   H     H_    0.589326 0.645982 0.126308 0.135180
H17   H     H_    0.589455 0.645820 0.873555 0.129764
H18   H     H_    0.326624 0.472859 0.879368 0.240110
H19   H     H_    0.344138 0.300514 0.878475 0.186188
H20   H     H_    0.326664 0.471533 0.121915 0.236732
N1    N     N_R   0.499430 0.499140 0.142800 -0.106366
N2    N     N_R   0.499430 0.499180 0.857150 -0.098734
O1    O     O_R   0.500010 0.316790 0.614690 -0.618997
O2    O     O_2   0.396818 0.790068 0.890882 -0.575936
O3    O     O_R   0.500000 0.316760 0.385350 -0.629966
O4    O     O_R   0.376780 0.500010 0.614650 -0.610949
O5    O     O_R   0.376770 0.499970 0.385310 -0.610557
O6    O     O_R   0.500000 0.683240 0.614650 -0.611044
O7    O     O_R   0.499990 0.683210 0.385310 -0.621625
O8    O     O_R   0.623230 0.500030 0.614690 -0.622276
O9    O     O_R   0.623220 0.499990 0.385350 -0.619611
O10   O     O_3   0.064385 0.708453 0.385033 -0.603034
Zn1   Zn    Zn3+2 0.500010 0.500020 0.653130 0.965137
Zn2   Zn    Zn3+2 0.499990 0.499980 0.346870 0.955014

loop_
_geom_bond_atom_site_label_1
_geom_bond_atom_site_label_2
_ccdc_geom_bond_type
C25   H10   S    
C16   O7    A    
C24   H6    S    
C23   C24   S    
C15   C17   S    
C6    C7    A    
C4    C21   S    
C1    O3    A    
C27   C29   S    
C8    C26   S    
C21   C30   T    
C12   C24   S    
O4    Zn1   S    
C19   C20   S    
C11   N1    A    
O3    Zn2   S    
C12   C30   S    
C25   H11   S    
C26   H13   S    
C18   C22   S    
C2    C3    A    
C1    O1    A    
O9    Zn2   S    
C3    H7    S    
C9    H14   S    
N2    Zn1   S    
C25   H9    S    
C23   C28   S    
C27   C31   S    
N1    Zn2   S    
C11   C13   A    
C29   H4    S    
C12   C20   S    
C11   H16   S    
C12   C28   S    
C13   H17   S    
C20   H1    S    
C28   O10   S    
C17   H20   S    
C28   C29   S    
C14   N2    A    
O6    Zn1   S    
C9    H15   S    
C15   H19   S    
C20   C29   S    
O5    Zn2   S    
C10   C14   A    
C5    C6    A    
C18   O9    A    
C15   H18   S    
C17   H2    S    
C10   C17   S    
C6    C16   S    
O8    Zn1   S    
C7    C8    S    
C19   C27   S    
C4    O5    A    
C2    C32   A    
C13   N2    A    
C22   C31   T    
C5    H8    S    
C4    O4    A    
C1    C2    S    
C10   N1    A    
C14   C15   S    
C18   O8    A    
C19   H3    S    
C7    C32   A    
C9    C32   S    
O1    Zn1   S    
C23   H5    S    
C16   O6    A    
C19   C24   S    
O7    Zn2   S    
C23   C27   S    
C8    H12   S    
C8    C9    S    
C3    C5    A    
C25   O10   S    
C26   O2    D    
