data_mof_unit_5828.cif
_audit_creation_date              2012-12-10T17:32:19-0500
_audit_creation_method            fapswitch 2.2
_symmetry_space_group_name_H-M    P1
_symmetry_Int_Tables_number       1
_space_group_crystal_system       triclinic
_cell_length_a                    12.377614
_cell_length_b                    13.281898
_cell_length_c                    15.046246
_cell_angle_alpha                 77.56333
_cell_angle_beta                  100.826809
_cell_angle_gamma                 116.601657
_cell_volume                      2147.96028956

loop_
_atom_site_label
_atom_site_type_symbol
_atom_type_description
_atom_site_fract_x
_atom_site_fract_y
_atom_site_fract_z
_atom_type_partial_charge
C1    C     C_R   0.855115 0.286989 0.506204 0.806675
C2    C     C_R   0.951201 0.564113 0.073723 0.122874
C3    C     C_R   0.156814 0.424164 0.081455 0.159037
C4    C     C_R   0.153333 0.424225 0.988479 -0.231650
C5    C     C_R   0.080203 0.465781 0.924427 0.061932
C6    C     C_R   0.014879 0.514822 0.952581 0.075976
C7    C     C_R   0.948122 0.564631 0.887031 0.124426
C8    C     C_R   0.886242 0.616395 0.915301 -0.210410
C9    C     C_R   0.888494 0.616838 0.008170 -0.177809
C10   C     C_R   0.074539 0.462064 0.832107 -0.219420
C11   C     C_R   0.005335 0.507999 0.767024 -0.068041
C12   C     C_R   0.001318 0.502668 0.670643 0.799151
C13   C     C_R   0.944443 0.561554 0.794341 -0.253842
C14   C     C_R   0.270115 0.030627 0.429225 0.172413
C15   C     C_R   0.229161 0.833807 0.483490 -0.084185
C16   C     C_R   0.819555 0.085656 0.555388 -0.174336
C17   C     C_R   0.742004 0.971282 0.578149 0.234123
C18   C     C_R   0.616801 0.935377 0.557580 -0.180287
C19   C     C_R   0.567230 0.010822 0.506734 0.022592
C20   C     C_R   0.648410 0.124050 0.474804 0.024526
C21   C     C_R   0.439586 0.977618 0.486154 0.054054
C22   C     C_R   0.395897 0.059781 0.440889 0.057325
C23   C     C_R   0.145138 0.712820 0.490296 0.802502
C24   C     C_R   0.477353 0.164892 0.400340 -0.214840
C25   C     C_R   0.600558 0.191896 0.409784 0.157654
C26   C     C_R   0.353847 0.864515 0.505714 -0.235548
C27   C     C_R   0.187756 0.918024 0.450651 -0.217070
C28   C     C_R   0.773814 0.164126 0.508073 -0.139673
C29   C     C_R   0.306198 0.285625 0.592669 -0.260019
C30   C     C_R   0.763187 0.657370 0.384594 0.391605
C31   C     C_R   0.671957 0.695338 0.369225 -0.228601
C32   C     C_R   0.567485 0.635407 0.411605 -0.210945
C33   C     C_R   0.549606 0.533671 0.470263 -0.035529
C34   C     C_R   0.000862 0.500026 0.329027 0.821484
C35   C     C_R   0.645912 0.496808 0.489592 0.223316
C36   C     C_R   0.438051 0.466801 0.510481 -0.010301
C37   C     C_R   0.412863 0.353601 0.550712 0.140295
C38   C     C_R   0.498960 0.312140 0.555345 -0.241949
C39   C     C_R   0.620142 0.390252 0.549265 0.188179
C40   C     C_R   0.349169 0.506386 0.511425 0.030007
C41   C     C_R   0.224765 0.330456 0.594424 0.090694
C42   C     C_R   0.951116 0.562249 0.166350 -0.250614
C43   C     C_R   0.004114 0.500899 0.231993 -0.066029
C44   C     C_R   0.059345 0.440976 0.204660 0.099295
C45   C     C_R   0.078743 0.459146 0.111921 0.038932
C46   C     C_R   0.015512 0.513172 0.046210 -0.002554
Cu1   Cu    Cu3+1 0.098270 0.475420 0.521130 0.942682
Cu2   Cu    Cu3+1 0.901730 0.524580 0.478870 0.955742
H1    H     H_    0.906335 0.605879 0.187338 0.164533
H2    H     H_    0.444816 0.221745 0.353206 0.218277
H3    H     H_    0.382015 0.797397 0.533479 0.152560
H4    H     H_    0.915581 0.114118 0.578241 0.156092
H5    H     H_    0.561297 0.848086 0.583265 0.133084
H6    H     H_    0.140988 0.276931 0.624822 0.122717
H7    H     H_    0.479548 0.226250 0.590478 0.158162
H8    H     H_    0.286497 0.198795 0.624728 0.143331
H9    H     H_    0.358920 0.589988 0.478633 0.120264
H10   H     H_    0.499231 0.667813 0.393008 0.151876
H11   H     H_    0.680582 0.771736 0.321340 0.163679
H12   H     H_    0.211013 0.394813 0.965932 0.171898
H13   H     H_    0.123812 0.422586 0.811130 0.158117
H14   H     H_    0.895255 0.601581 0.743765 0.148240
H15   H     H_    0.835665 0.655913 0.865684 0.144898
H16   H     H_    0.839634 0.656851 0.028842 0.149662
H17   H     H_    0.091483 0.896057 0.438192 0.175080
N1    N     N_R   0.246280 0.438190 0.553160 -0.189538
N2    N     N_R   0.754320 0.561190 0.447410 -0.192050
O1    O     O_R   0.972510 0.318130 0.526570 -0.593974
O2    O     O_R   0.806530 0.359650 0.490890 -0.557364
O3    O     O_R   0.082980 0.479210 0.647590 -0.584493
O4    O     O_R   0.917000 0.520730 0.611900 -0.591947
O5    O     O_R   0.193470 0.640350 0.509110 -0.595569
O6    O     O_R   0.027490 0.681870 0.473430 -0.593530
O7    O     O_R   0.083000 0.479270 0.388100 -0.574591
O8    O     O_R   0.917020 0.520790 0.352410 -0.571840
I1    I     I_    0.195136 0.149330 0.379285 -0.442184
C47   C     C_3   0.791295 0.887478 0.628716 -0.885178
H18   H     H_    0.892061 0.928126 0.640770 0.232422
H19   H     H_    0.754305 0.850886 0.695982 0.230100
H20   H     H_    0.763889 0.817585 0.588128 0.239433
I2    I     I_    0.690925 0.300986 0.295813 -0.334230
C48   C     C_3   0.070966 0.341364 0.269392 -0.688250
H21   H     H_    0.063583 0.275273 0.231394 0.251993
H22   H     H_    0.158408 0.371157 0.313670 0.276043
H23   H     H_    0.994875 0.297665 0.313084 0.227244
C49   C     C_3   0.865574 0.728722 0.325534 -0.787389
H24   H     H_    0.910320 0.816886 0.341940 0.206017
H25   H     H_    0.935889 0.699799 0.329258 0.265029
H26   H     H_    0.827363 0.732631 0.252532 0.196252
C50   C     C_3   0.691315 0.382228 0.641491 -0.757247
H27   H     H_    0.734348 0.466347 0.664920 0.227692
H28   H     H_    0.632835 0.326946 0.696772 0.192951
H29   H     H_    0.753030 0.342566 0.641540 0.241554
I3    I     I_    0.304000 0.396409 0.163993 -0.363669

loop_
_geom_bond_atom_site_label_1
_geom_bond_atom_site_label_2
_ccdc_geom_bond_type
C16   C28   A    
C21   C26   A    
C9    H16   S    
C19   C20   A    
C32   H10   S    
Cu2   O2    S    
C1    O1    A    
C7    C8    A    
C47   H18   S    
C2    C46   A    
C36   C37   A    
C19   C21   A    
C44   C48   S    
C30   C31   A    
C49   H25   S    
C20   C25   A    
C33   C36   A    
C18   C19   A    
C31   H11   S    
C18   H5    S    
C15   C27   A    
C38   H7    S    
Cu1   Cu2   S    
C8    C9    A    
C1    C28   S    
C14   C27   A    
C30   C49   S    
C39   C50   S    
C30   N2    A    
C34   O8    A    
C15   C23   S    
C40   N1    A    
C21   C22   A    
C25   I2    S    
Cu2   O8    S    
C23   O6    A    
C23   O5    A    
C47   H19   S    
Cu1   N1    S    
C24   H2    S    
C38   C39   A    
C41   H6    S    
C13   H14   S    
C36   C40   A    
C24   C25   A    
C8    H15   S    
C49   H24   S    
C16   C17   A    
C15   C26   A    
C20   C28   A    
C45   C46   A    
C3    C45   A    
C1    O2    A    
C14   I1    S    
C35   C39   A    
C43   C44   A    
Cu1   O3    S    
C37   C38   A    
C27   H17   S    
C50   H28   S    
C31   C32   A    
C35   N2    A    
C4    H12   S    
C17   C47   S    
C17   C18   A    
C41   N1    A    
C34   O7    A    
C12   O4    A    
C48   H22   S    
C22   C24   A    
C10   H13   S    
C42   C43   A    
Cu2   O4    S    
C3    C4    A    
Cu1   O1    S    
C44   C45   A    
C50   H29   S    
C47   H20   S    
C12   O3    A    
C40   H9    S    
C6    C46   A    
C29   C41   A    
Cu2   O6    S    
C34   C43   S    
C16   H4    S    
Cu1   O7    S    
C4    C5    A    
C49   H26   S    
C11   C12   S    
C6    C7    A    
C29   H8    S    
C48   H23   S    
C32   C33   A    
C14   C22   A    
C5    C10   A    
C26   H3    S    
C11   C13   A    
C50   H27   S    
C5    C6    A    
C2    C42   A    
C33   C35   A    
C3    I3    S    
Cu2   N2    S    
Cu1   O5    S    
C10   C11   A    
C42   H1    S    
C7    C13   A    
C48   H21   S    
C29   C37   A    
C2    C9    A    
