data_mof_unit_14170.cif
_audit_creation_date              2013-03-05T16:43:42-0500
_audit_creation_method            fapswitch 2.2
_symmetry_space_group_name_H-M    P1
_symmetry_Int_Tables_number       1
_space_group_crystal_system       triclinic
_cell_length_a                    15.71327
_cell_length_b                    10.719426
_cell_length_c                    9.937245
_cell_angle_alpha                 89.599756
_cell_angle_beta                  89.568448
_cell_angle_gamma                 90.654896
_cell_volume                      1673.60340288

loop_
_atom_site_label
_atom_site_type_symbol
_atom_site_description
_atom_site_fract_x
_atom_site_fract_y
_atom_site_fract_z
_atom_type_partial_charge
O1    O     O_R   0.500010 0.316790 0.614690 -0.628251
O2    O     O_R   0.500000 0.316760 0.385350 -0.639548
C1    C     C_R   0.501149 0.260327 0.500032 0.865052
O3    O     O_R   0.376780 0.500010 0.614650 -0.537559
O4    O     O_R   0.376770 0.499970 0.385310 -0.622405
C2    C     C_R   0.338195 0.500421 0.500397 0.902766
Zn1   Zn    Zn3+2 0.500010 0.500020 0.653130 1.026034
Zn2   Zn    Zn3+2 0.499990 0.499980 0.346870 1.044917
O5    O     O_R   0.500000 0.683240 0.614650 -0.609205
O6    O     O_R   0.499990 0.683210 0.385310 -0.589360
O7    O     O_R   0.623230 0.500030 0.614690 -0.641807
O8    O     O_R   0.623220 0.499990 0.385350 -0.553832
C3    C     C_R   0.500462 0.739688 0.499561 0.896185
C4    C     C_R   0.661852 0.500132 0.499546 0.896655
C5    C     C_3   0.969471 0.427100 0.601030 -0.307937
C6    C     C_3   0.027536 0.383208 0.484586 -0.053801
H1    H     H_    0.943399 0.368186 0.684308 0.163163
C7    C     C_1   0.249443 0.501272 0.501182 -0.043150
C8    C     C_1   0.750690 0.499900 0.498332 -0.114039
C9    C     C_3   0.026083 0.544861 0.615951 0.019782
C10   C     C_3   0.083379 0.500113 0.501140 0.144811
C11   C     C_3   0.971881 0.617232 0.513594 -0.214416
C12   C     C_3   0.916766 0.499015 0.496908 0.160916
C13   C     C_3   0.030250 0.571752 0.397184 -0.249854
C14   C     C_3   0.973579 0.454080 0.381721 -0.020785
C15   C     C_1   0.174222 0.501348 0.501410 0.107466
C16   C     C_1   0.825952 0.499545 0.497372 0.028704
H2    H     H_    0.056428 0.630393 0.313781 0.176142
H3    H     H_    0.947424 0.713252 0.526170 0.158722
C17   C     C_R   0.535761 0.063641 0.610958 0.068002
C18   C     C_R   0.509563 0.128700 0.497243 -0.049472
C19   C     C_R   0.494722 0.065054 0.376621 -0.190348
H4    H     H_    0.478406 0.113576 0.284494 0.173445
C20   C     C_R   0.493436 0.936522 0.376875 -0.111596
H5    H     H_    0.475579 0.888907 0.285511 0.219293
C21   C     C_R   0.507723 0.871650 0.497251 -0.060434
C22   C     C_R   0.533975 0.935948 0.611431 -0.011652
C23   C     C_3   0.504462 0.930412 0.755496 0.138761
C24   C     C_3   0.506833 0.072102 0.754055 -0.509044
H6    H     H_    0.551813 0.888208 0.824236 0.139174
H7    H     H_    0.443458 0.115629 0.763229 0.228748
H8    H     H_    0.556853 0.112249 0.819939 0.189925
C25   C     C_R   0.463088 0.404243 0.071798 0.085211
N1    N     N_R   0.499430 0.499140 0.142800 -0.137366
C26   C     C_R   0.542022 0.590719 0.069212 0.379873
C27   C     C_R   0.541703 0.589799 0.925894 -0.082082
H9    H     H_    0.574631 0.662792 0.869927 0.150885
N2    N     N_R   0.499430 0.499180 0.857150 -0.105597
C28   C     C_R   0.463937 0.403367 0.930512 0.065079
C29   C     C_3   0.374956 0.350278 0.925555 0.060700
C30   C     C_3   0.373777 0.352694 0.079960 -0.372583
H10   H     H_    0.372306 0.253968 0.885945 0.112282
H11   H     H_    0.372415 0.257569 0.125319 0.125054
C31   C     C_2   0.056405 0.251350 0.468505 0.408446
H12   H     H_    0.009511 0.177143 0.457771 0.074781
O9    O     O_2   0.132007 0.226675 0.467263 -0.544208
N3    N     N_R   0.585178 0.691316 0.134456 0.207518
O10   O     O_R   0.653849 0.668986 0.201995 -0.364977
O11   O     O_R   0.571674 0.804985 0.093919 -0.432535
N4    N     N_R   0.312284 0.431702 0.861951 0.252872
O12   O     O_R   0.245755 0.381802 0.805704 -0.365265
O13   O     O_R   0.319253 0.552752 0.866805 -0.235074
C32   C     C_2   0.307081 0.436309 0.140594 0.625324
H13   H     H_    0.249881 0.394512 0.184012 0.027644
O14   O     O_2   0.314916 0.549859 0.138524 -0.492721
C33   C     C_2   0.945987 0.403331 0.248681 0.389565
H14   H     H_    0.993590 0.375140 0.175742 0.072126
O15   O     O_2   0.870620 0.393455 0.221628 -0.537983
C34   C     C_2   0.053085 0.596978 0.748568 0.456617
H15   H     H_    0.005179 0.622358 0.822257 0.052288
O16   O     O_2   0.128298 0.611451 0.774420 -0.464938
N5    N     N_R   0.418108 0.879568 0.773189 0.249079
O17   O     O_R   0.356515 0.913684 0.694577 -0.350010
O18   O     O_R   0.401586 0.804126 0.873263 -0.300173

loop_
_geom_bond_atom_site_label_1
_geom_bond_atom_site_label_2
_geom_bond_distance
_ccdc_geom_bond_type
C33   O15   1.219960 D    
C10   C15   1.427372 S    
C32   O14   1.222018 D    
C6    C10   1.532107 S    
C11   H3    1.110331 S    
C7    C15   1.181961 T    
C24   H7    1.107948 S    
C26   C27   1.424338 A    
Zn1   O7    1.970683 S    
C26   N3    1.429227 S    
C21   C22   1.394306 A    
C17   C18   1.391166 A    
O7    C4    1.291140 A    
N3    O11   1.300882 A    
C5    C6    1.547348 S    
N4    O13   1.302212 A    
C20   H5    1.081941 S    
C34   O16   1.219734 D    
O5    C3    1.290066 A    
C27   H9    1.081463 S    
C29   H10   1.107899 S    
C12   C16   1.427034 S    
C8    C16   1.182627 T    
C5    C12   1.538525 S    
C33   H14   1.084539 S    
O3    Zn1   1.976564 S    
C24   H8    1.111559 S    
C31   O9    1.219986 D    
C5    C9    1.544579 S    
C2    C7    1.394674 S    
C23   N5    1.465376 S    
C13   H2    1.110373 S    
C30   C32   1.511370 S    
C13   C14   1.544913 S    
C3    C21   1.417854 S    
N5    O18   1.300154 A    
C25   C28   1.404057 A    
C17   C22   1.368737 A    
N4    O12   1.300598 A    
O1    C1    1.293990 A    
C23   C24   1.518831 S    
C25   N1    1.364373 A    
C22   C23   1.502084 S    
C18   C19   1.403065 A    
Zn2   O8    1.976565 S    
C29   C30   1.534739 S    
C1    C18   1.419094 S    
O3    C2    1.291128 A    
N2    C28   1.366629 A    
C9    C11   1.542374 S    
C11   C13   1.555360 S    
C9    C34   1.497371 S    
N1    C26   1.383446 A    
C6    C14   1.535509 S    
C5    H1    1.110487 S    
C31   H12   1.084452 S    
O1    Zn1   2.003538 S    
C4    C8    1.395928 S    
O2    Zn2   1.998269 S    
C14   C33   1.498332 S    
Zn2   N1    2.028061 S    
O8    C4    1.290979 A    
N5    O17   1.302371 A    
O6    C3    1.290432 A    
O4    Zn2   1.970684 S    
C29   N4    1.467103 S    
Zn1   N2    2.027305 S    
O2    C1    1.286835 A    
C19   H4    1.083662 S    
C23   H6    1.111709 S    
C25   C30   1.503770 S    
N3    O10   1.298714 A    
O4    C2    1.290377 A    
C17   C24   1.493284 S    
C20   C21   1.400307 A    
C12   C14   1.530129 S    
C34   H15   1.084460 S    
C6    C31   1.498626 S    
C32   H13   1.084893 S    
C27   N2    1.361188 A    
Zn1   O5    1.998271 S    
C9    C10   1.531137 S    
Zn2   O6    2.003538 S    
C28   C29   1.504808 S    
C10   C13   1.539610 S    
C11   C12   1.537327 S    
C30   H11   1.111895 S    
C19   C20   1.377689 A    
