data_mof_unit_58191.cif
_audit_creation_date              2012-12-10T20:28:00-0500
_audit_creation_method            fapswitch 2.2
_symmetry_space_group_name_H-M    P1
_symmetry_Int_Tables_number       1
_space_group_crystal_system       triclinic
_cell_length_a                    12.737678
_cell_length_b                    10.650229
_cell_length_c                    9.997625
_cell_angle_alpha                 89.6471
_cell_angle_beta                  97.385942
_cell_angle_gamma                 92.304488
_cell_volume                      1343.92789993

loop_
_atom_site_label
_atom_site_type_symbol
_atom_type_description
_atom_site_fract_x
_atom_site_fract_y
_atom_site_fract_z
_atom_type_partial_charge
C1    C     C_R   0.507713 0.260968 0.501310 0.869454
C2    C     C_R   0.554669 0.936498 0.393949 -0.228534
C3    C     C_R   0.520972 0.872232 0.504320 -0.199900
C4    C     C_R   0.298839 0.496919 0.473099 0.875847
C5    C     C_R   0.514384 0.936222 0.623369 0.137244
C6    C     C_3   0.430365 0.927538 0.714780 -0.460070
C7    C     C_3   0.434138 0.069843 0.714798 -0.467144
C8    C     C_R   0.437113 0.415999 0.062094 0.105472
C9    C     C_R   0.569509 0.576417 0.082545 0.211209
C10   C     C_R   0.569966 0.575648 0.939049 0.200882
C11   C     C_R   0.432309 0.420947 0.919866 0.104235
C12   C     C_R   0.024863 0.554918 0.514232 0.062245
C13   C     C_3   0.311682 0.418055 0.907555 0.311494
C14   C     C_3   0.321052 0.398364 0.061355 -0.065061
C15   C     C_R   0.502401 0.739882 0.500152 0.878313
C16   C     C_R   0.701256 0.504167 0.526889 0.879428
C17   C     C_R   0.814071 0.518106 0.544050 -0.045014
C18   C     C_R   0.186971 0.482018 0.456534 -0.073833
C19   C     C_R   0.032435 0.341778 0.424279 0.223210
C20   C     C_R   0.139218 0.367181 0.413932 -0.236720
C21   C     C_R   0.130370 0.576871 0.501376 -0.273240
C22   C     C_3   0.825712 0.282513 0.542408 -0.915344
C23   C     C_R   0.975338 0.433865 0.485336 0.132572
C24   C     C_3   0.647354 0.666177 0.164525 -0.811163
C25   C     C_3   0.647338 0.664815 0.880403 -0.816119
C26   C     C_3   0.261608 0.545586 0.871043 -0.863065
C27   C     C_3   0.257087 0.309179 0.820988 -0.804702
C28   C     C_3   0.291968 0.267593 0.114356 -0.845169
C29   C     C_3   0.803353 0.754943 0.589232 -0.928323
C30   C     C_3   0.982947 0.222958 0.357551 -0.911132
C31   C     C_R   0.871619 0.413086 0.517968 0.079221
C32   C     C_R   0.862310 0.639097 0.563706 0.138990
C33   C     C_R   0.969511 0.654098 0.556592 -0.209271
C34   C     C_R   0.518459 0.064285 0.624021 0.107178
C35   C     C_R   0.531372 0.130828 0.506421 -0.243926
C36   C     C_R   0.563297 0.066642 0.395051 0.422950
H1    H     H_    0.459572 0.886408 0.814464 0.209092
H2    H     H_    0.794366 0.235900 0.446340 0.244441
H3    H     H_    0.886644 0.225716 0.601311 0.248282
H4    H     H_    0.759704 0.284527 0.604700 0.235278
H5    H     H_    0.640210 0.670301 0.271026 0.286012
H6    H     H_    0.729673 0.639800 0.156159 0.223350
H7    H     H_    0.635978 0.763828 0.128208 0.207492
H8    H     H_    0.642428 0.661707 0.772069 0.293002
H9    H     H_    0.632019 0.763447 0.904217 0.210093
H10   H     H_    0.729898 0.642972 0.920629 0.222768
H11   H     H_    0.182821 0.547387 0.907359 0.228044
H12   H     H_    0.360255 0.110075 0.663660 0.196812
H13   H     H_    0.312044 0.624808 0.918937 0.211662
H14   H     H_    0.248033 0.562232 0.761720 0.277076
H15   H     H_    0.295711 0.219301 0.846166 0.214093
H16   H     H_    0.172529 0.298515 0.837059 0.236046
H17   H     H_    0.260273 0.327282 0.712505 0.250516
H18   H     H_    0.335727 0.192525 0.071614 0.251038
H19   H     H_    0.312884 0.265367 0.225435 0.256626
H20   H     H_    0.205402 0.247613 0.090584 0.235612
H21   H     H_    0.815828 0.827211 0.511640 0.246386
H22   H     H_    0.717166 0.736835 0.584943 0.228196
H23   H     H_    0.464818 0.111179 0.814748 0.215659
H24   H     H_    0.833719 0.793623 0.690337 0.248492
H25   H     H_    0.035896 0.181030 0.291320 0.232817
H26   H     H_    0.968310 0.150407 0.433524 0.244623
H27   H     H_    0.909082 0.244330 0.291274 0.253610
H28   H     H_    0.634554 0.204650 0.312739 0.346557
H29   H     H_    0.287355 0.474338 0.116492 0.190908
H30   H     H_    0.008485 0.745933 0.575985 0.155645
H31   H     H_    0.186452 0.295885 0.376850 0.137356
H32   H     H_    0.170051 0.666546 0.530899 0.131627
H33   H     H_    0.570559 0.886889 0.305092 0.187119
H34   H     H_    0.354116 0.885256 0.664923 0.195736
N1    N     N_R   0.499290 0.499140 0.142710 -0.136635
N2    N     N_R   0.499290 0.499180 0.857070 -0.128082
O1    O     O_R   0.500010 0.316790 0.614690 -0.603201
O2    O     O_R   0.500000 0.316760 0.385350 -0.596182
O3    O     O_R   0.346360 0.499990 0.595720 -0.618543
O4    O     O_R   0.346350 0.499960 0.366370 -0.620463
O5    O     O_R   0.500000 0.683240 0.614650 -0.623893
O6    O     O_R   0.499990 0.683210 0.385310 -0.631522
O7    O     O_R   0.653650 0.500040 0.633630 -0.628132
O8    O     O_R   0.653640 0.500010 0.404280 -0.622652
O9    O     O_3   0.595401 0.125545 0.283151 -0.759857
Zn1   Zn    Zn3+2 0.500010 0.500020 0.653130 0.935890
Zn2   Zn    Zn3+2 0.499990 0.499980 0.346870 0.938992

loop_
_geom_bond_atom_site_label_1
_geom_bond_atom_site_label_2
_ccdc_geom_bond_type
C18   C21   A    
C24   H6    S    
C20   H31   S    
C35   C36   A    
O2    Zn2   S    
C28   H20   S    
C12   C23   A    
C1    O2    A    
C29   C32   S    
C26   H14   S    
C5    C6    S    
C15   O6    A    
C22   H2    S    
C25   H8    S    
C34   C35   A    
C4    O3    A    
O6    Zn2   S    
C19   C20   A    
C16   C17   S    
C2    H33   S    
C9    C10   A    
C4    C18   S    
C13   C14   S    
C24   H5    S    
O8    Zn2   S    
O4    Zn2   S    
C7    H23   S    
C28   H19   S    
C27   H15   S    
C33   H30   S    
N1    Zn2   S    
C22   C31   S    
C26   H13   S    
C17   C32   A    
C28   H18   S    
C11   N2    A    
C12   C21   A    
C16   O8    A    
C23   C31   A    
C19   C23   A    
C29   H24   S    
C36   O9    S    
C22   H4    S    
C5    C34   A    
C6    H1    S    
O3    Zn1   S    
C26   H11   S    
C10   C25   S    
C29   H21   S    
C30   H26   S    
C21   H32   S    
C17   C31   A    
C7    C34   S    
C13   C26   S    
C25   H9    S    
O1    Zn1   S    
C3    C15   S    
C27   H16   S    
C1    C35   S    
C2    C36   A    
C6    H34   S    
C8    N1    A    
C8    C14   S    
C9    N1    A    
C3    C5    A    
O7    Zn1   S    
C27   H17   S    
C9    C24   S    
C6    C7    S    
C16   O7    A    
C1    O1    A    
C7    H12   S    
C2    C3    A    
C32   C33   A    
C11   C13   S    
C15   O5    A    
O5    Zn1   S    
C8    C11   A    
C22   H3    S    
C14   H29   S    
C18   C20   A    
H28   O9    S    
C4    O4    A    
C29   H22   S    
C30   H25   S    
C24   H7    S    
C13   C27   S    
C14   C28   S    
C12   C33   A    
C30   H27   S    
C19   C30   S    
C25   H10   S    
N2    Zn1   S    
C10   N2    A    
