data_mof_unit_25166.cif
_audit_creation_date              2012-10-26T18:50:03-0400
_audit_creation_method            fapswitch 2.2
_symmetry_space_group_name_H-M    P1
_symmetry_Int_Tables_number       1
_space_group_crystal_system       triclinic
_cell_length_a                    10.767401
_cell_length_b                    12.987007
_cell_length_c                    11.679494
_cell_angle_alpha                 99.666064
_cell_angle_beta                  95.00706
_cell_angle_gamma                 91.825845
_cell_volume                      1602.08651366

loop_
_atom_site_label
_atom_site_type_symbol
_atom_type_description
_atom_site_fract_x
_atom_site_fract_y
_atom_site_fract_z
_atom_type_partial_charge
C1    C     C_R   0.502691 0.299528 0.478834 0.585770
C2    C     C_R   0.430888 0.863958 0.454437 0.089045
C3    C     C_R   0.545404 0.028411 0.542752 0.051464
C4    C     C_R   0.454574 0.971593 0.457259 0.051478
C5    C     C_R   0.428656 0.373067 0.020634 0.030429
C6    C     C_R   0.571345 0.626933 0.979364 0.030432
C7    C     C_R   0.428689 0.389869 0.142621 0.060869
C8    C     C_R   0.571310 0.610130 0.857379 0.060867
C9    C     C_R   0.523017 0.559015 0.158101 0.069944
C10   C     C_R   0.476985 0.440984 0.841898 0.069942
C11   C     C_R   0.523757 0.547425 0.034961 -0.003501
C12   C     C_R   0.497310 0.700473 0.521167 0.585757
C13   C     C_R   0.476244 0.452574 0.965039 -0.003504
C14   C     C_R   0.261215 0.486825 0.496556 0.567841
C15   C     C_R   0.738784 0.513193 0.503448 0.567838
C16   C     C_R   0.118285 0.399329 0.671775 0.119097
C17   C     C_R   0.881733 0.600725 0.328241 0.119090
C18   C     C_R   0.075590 0.409311 0.782432 -0.071274
C19   C     C_R   0.924434 0.590743 0.217585 -0.071258
C20   C     C_R   0.977816 0.473640 0.809930 -0.118694
C21   C     C_R   0.022189 0.526397 0.190082 -0.118698
C22   C     C_R   0.913892 0.518627 0.723176 -0.064155
C23   C     C_R   0.502480 0.813489 0.533101 0.031383
C24   C     C_R   0.086110 0.481411 0.276838 -0.064151
C25   C     C_R   0.950841 0.503117 0.608350 0.005296
C26   C     C_R   0.049167 0.496932 0.391669 0.005294
C27   C     C_R   0.066316 0.458454 0.589739 0.019719
C28   C     C_R   0.933695 0.541599 0.410279 0.019716
C29   C     C_R   0.876770 0.529506 0.511683 -0.020435
C30   C     C_R   0.123234 0.470537 0.488328 -0.020424
C31   C     C_R   0.497509 0.186514 0.466907 0.031387
C32   C     C_R   0.390791 0.023557 0.375668 -0.083838
C33   C     C_R   0.609173 0.976449 0.624343 -0.083850
C34   C     C_R   0.411853 0.129803 0.380868 -0.125391
C35   C     C_R   0.588112 0.870201 0.619144 -0.125404
C36   C     C_R   0.569102 0.136045 0.545572 0.089034
Cu1   Cu    Cu3+1 0.509250 0.507730 0.615930 0.993721
Cu2   Cu    Cu3+1 0.490750 0.492270 0.384070 0.993728
H1    H     H_    0.115704 0.364979 0.845932 0.157075
H2    H     H_    0.391990 0.328428 0.183841 0.145219
H3    H     H_    0.053202 0.516069 0.103377 0.119249
H4    H     H_    0.946792 0.483953 0.896629 0.119254
H5    H     H_    0.838314 0.567793 0.748182 0.145375
H6    H     H_    0.161671 0.432229 0.251829 0.145380
H7    H     H_    0.884325 0.635072 0.154079 0.157081
H8    H     H_    0.642534 0.831337 0.680338 0.140069
H9    H     H_    0.357415 0.168668 0.319674 0.140062
H10   H     H_    0.323139 0.983756 0.307658 0.172230
H11   H     H_    0.676812 0.016252 0.692353 0.172236
H12   H     H_    0.439147 0.370089 0.786918 0.188238
H13   H     H_    0.560855 0.629910 0.213081 0.188243
H14   H     H_    0.608010 0.671572 0.816158 0.145214
I1    I     I_    0.361071 0.223516 0.930351 -0.350377
I2    I     I_    0.638929 0.776483 0.069645 -0.350380
I3    I     I_    0.222078 0.266780 0.618784 -0.324315
I4    I     I_    0.777887 0.733241 0.381205 -0.324325
I5    I     I_    0.280831 0.778372 0.339734 -0.301019
I6    I     I_    0.719176 0.221626 0.660265 -0.300992
N1    N     N_R   0.523180 0.519350 0.790130 -0.253728
N2    N     N_R   0.476820 0.480650 0.209870 -0.253727
O1    O     O_R   0.506570 0.354460 0.582000 -0.471879
O2    O     O_R   0.493430 0.645540 0.418000 -0.471875
O3    O     O_R   0.490940 0.341410 0.386200 -0.521330
O4    O     O_R   0.509060 0.658590 0.613800 -0.521343
O5    O     O_R   0.327470 0.506520 0.597900 -0.477240
O6    O     O_R   0.672530 0.493480 0.402100 -0.477229
O7    O     O_R   0.311840 0.493460 0.402100 -0.504866
O8    O     O_R   0.688160 0.506540 0.597900 -0.504862

loop_
_geom_bond_atom_site_label_1
_geom_bond_atom_site_label_2
_ccdc_geom_bond_type
Cu1   O1    S    
C7    H2    S    
C19   H7    S    
C15   C29   S    
Cu1   Cu2   S    
Cu2   O2    S    
C25   C27   A    
C9    C11   A    
C8    H14   S    
C36   I6    S    
C5    C13   A    
C22   H5    S    
C9    H13   S    
C20   C22   A    
C18   H1    S    
C9    N2    A    
C16   C27   A    
C10   N1    A    
C2    I5    S    
C4    C32   A    
C15   O6    A    
C27   C30   A    
C20   H4    S    
C32   H10   S    
C12   C23   S    
Cu1   N1    S    
C3    C36   A    
C6    I2    S    
Cu2   N2    S    
C2    C4    A    
C1    O3    A    
C5    I1    S    
C28   C29   A    
C33   C35   A    
C14   O5    A    
C24   C26   A    
C26   C30   A    
C17   I4    S    
C6    C11   A    
C8    N1    A    
C25   C29   A    
C24   H6    S    
C23   C35   A    
C21   H3    S    
C31   C34   A    
C11   C13   A    
C15   O8    A    
C14   O7    A    
C33   H11   S    
C3    C4    A    
C10   H12   S    
Cu1   O8    S    
C7    N2    A    
C1    C31   S    
Cu1   O4    S    
C12   O2    A    
Cu2   O7    S    
C18   C20   A    
C16   C18   A    
Cu2   O3    S    
C21   C24   A    
C2    C23   A    
C5    C7    A    
C12   O4    A    
C3    C33   A    
C31   C36   A    
C6    C8    A    
C34   H9    S    
C16   I3    S    
C17   C19   A    
C32   C34   A    
C14   C30   S    
C17   C28   A    
C26   C28   A    
C10   C13   A    
Cu2   O6    S    
Cu1   O5    S    
C1    O1    A    
C19   C21   A    
C22   C25   A    
C35   H8    S    
