data_mof_unit_51409.cif
_audit_creation_date              2012-12-11T17:06:30-0500
_audit_creation_method            fapswitch 2.2
_symmetry_space_group_name_H-M    P1
_symmetry_Int_Tables_number       1
_space_group_crystal_system       triclinic
_cell_length_a                    6.965565
_cell_length_b                    14.578383
_cell_length_c                    15.916145
_cell_angle_alpha                 90.444656
_cell_angle_beta                  89.872176
_cell_angle_gamma                 89.86834
_cell_volume                      1616.17456846

loop_
_atom_site_label
_atom_site_type_symbol
_atom_type_description
_atom_site_fract_x
_atom_site_fract_y
_atom_site_fract_z
_atom_type_partial_charge
O1    O     O_R   0.494400 0.415450 0.412630 -0.538164
O2    O     O_R   0.823940 0.405730 0.586760 -0.544059
O3    O     O_R   0.994240 0.584550 0.587370 -0.539352
C1    C     C_R   0.655217 0.384206 0.615737 0.694292
O4    O     O_R   0.824110 0.404430 0.413240 -0.542912
O5    O     O_R   0.994420 0.583240 0.412620 -0.541071
C2    C     C_R   0.655558 0.382145 0.384301 0.694434
O6    O     O_R   0.494230 0.416760 0.587380 -0.538721
O7    O     O_3   0.660800 0.558670 0.500000 -0.366037
V1    V     V_3+5 0.935650 0.489120 0.500000 1.393952
O8    O     O_R   0.324140 0.594270 0.413240 -0.537540
C3    C     C_R   0.155105 0.616270 0.384444 0.697110
O9    O     O_R   0.323960 0.595570 0.586760 -0.538240
C4    C     C_R   0.154849 0.616369 0.616377 0.693722
V2    V     V_3+5 0.435660 0.510880 0.500000 1.413441
O10   O     O_3   0.160640 0.441330 0.500000 -0.373305
C5    C     C_3   0.028817 0.673655 0.769059 -0.129073
C6    C     C_3   0.202493 0.711702 0.819178 -0.171425
H1    H     H_    0.259823 0.682343 0.878198 0.107409
H2    H     H_    0.942868 0.612499 0.786099 0.098517
C7    C     C_3   0.123326 0.809980 0.809140 -0.069197
C8    C     C_3   0.949227 0.772511 0.759682 -0.127855
C9    C     C_3   0.063220 0.783037 0.676306 -0.166203
C10   C     C_3   0.236219 0.819811 0.726464 0.034523
C11   C     C_3   0.316908 0.721953 0.735990 -0.155796
C12   C     C_3   0.143075 0.685315 0.686724 -0.015348
H3    H     H_    0.797245 0.793253 0.769375 0.127308
H4    H     H_    0.006234 0.812429 0.617216 0.129244
H5    H     H_    0.468890 0.701232 0.726162 0.116291
C13   C     C_R   0.275143 0.750498 0.187052 0.097771
C14   C     C_R   0.118468 0.810158 0.178892 -0.108096
C15   C     C_R   0.965714 0.799780 0.236171 -0.174220
H6    H     H_    0.842257 0.844503 0.232629 0.132833
C16   C     C_R   0.977183 0.736365 0.302472 -0.172917
H7    H     H_    0.861154 0.733335 0.347572 0.135001
C17   C     C_R   0.142390 0.681906 0.313852 -0.106518
C18   C     C_R   0.286907 0.688066 0.252855 0.094203
C19   C     C_3   0.496262 0.704578 0.263843 -0.411858
C20   C     C_3   0.483529 0.772195 0.191905 -0.396104
H8    H     H_    0.583567 0.642748 0.248450 0.168789
H9    H     H_    0.528590 0.737750 0.325292 0.179518
H10   H     H_    0.562852 0.749300 0.134775 0.171285
H11   H     H_    0.509237 0.844495 0.211485 0.169994
C21   C     C_R   0.489082 0.255269 0.689605 0.109950
C22   C     C_R   0.646825 0.313801 0.681990 -0.110435
C23   C     C_R   0.800158 0.301343 0.738296 -0.180326
H12   H     H_    0.923730 0.345739 0.735254 0.130463
C24   C     C_R   0.789153 0.235918 0.802853 -0.185531
H13   H     H_    0.905687 0.230823 0.847295 0.129740
C25   C     C_R   0.623565 0.181956 0.813445 -0.125304
C26   C     C_R   0.477204 0.191676 0.754121 0.116081
C27   C     C_3   0.268830 0.209367 0.767132 -0.400010
C28   C     C_3   0.281426 0.278540 0.696465 -0.409756
H14   H     H_    0.239162 0.241330 0.829464 0.161496
H15   H     H_    0.179844 0.148518 0.751116 0.194956
H16   H     H_    0.258112 0.350588 0.717638 0.163044
H17   H     H_    0.200000 0.257624 0.639487 0.181583
C29   C     C_R   0.491305 0.251396 0.309324 0.110022
C30   C     C_R   0.647754 0.311032 0.317286 -0.111749
C31   C     C_R   0.800065 0.299707 0.259771 -0.179467
H18   H     H_    0.923323 0.344359 0.263191 0.130597
C32   C     C_R   0.788240 0.235396 0.193368 -0.181023
H19   H     H_    0.903966 0.231555 0.148095 0.128420
C33   C     C_R   0.623097 0.181006 0.182150 -0.107509
C34   C     C_R   0.479203 0.188052 0.243433 0.105475
C35   C     C_3   0.269587 0.204504 0.232953 -0.418272
C36   C     C_3   0.282668 0.273126 0.305030 -0.396706
H20   H     H_    0.182926 0.142933 0.248393 0.176478
H21   H     H_    0.236273 0.236830 0.171662 0.167805
H22   H     H_    0.204230 0.251059 0.362290 0.178306
H23   H     H_    0.256108 0.345160 0.285691 0.164439
O11   O     O_R   0.771650 0.079500 0.908680 -0.541725
O12   O     O_R   0.441690 0.091800 0.082800 -0.543417
O13   O     O_R   0.271460 0.912980 0.083410 -0.539393
C37   C     C_R   0.610516 0.114264 0.111603 0.680242
O14   O     O_R   0.441930 0.090510 0.909280 -0.526327
O15   O     O_R   0.271690 0.911670 0.908660 -0.516690
C38   C     C_R   0.611107 0.113839 0.881754 0.727616
O16   O     O_R   0.771410 0.080810 0.083440 -0.542748
O17   O     O_3   0.605100 0.937580 0.996050 -0.367877
V3    V     V_3+5 0.330220 0.007110 0.996030 1.430284
O18   O     O_R   0.941980 0.900620 0.909250 -0.544090
C39   C     C_R   0.111198 0.879395 0.879711 0.727760
O19   O     O_R   0.941740 0.901920 0.082770 -0.545055
C40   C     C_R   0.110478 0.880152 0.111772 0.685472
V4    V     V_3+5 0.830220 0.985300 0.996000 1.406987
O20   O     O_3   0.105210 0.054870 0.996020 -0.375696
C41   C     C_2   0.361136 0.896111 0.696405 0.706618
O21   O     O_2   0.431384 0.891586 0.626038 -0.563479
O22   O     O_R   0.401630 0.970407 0.748866 -0.667243
H24   H     H_    0.498356 0.013176 0.722439 0.280368

loop_
_geom_bond_atom_site_label_1
_geom_bond_atom_site_label_2
_ccdc_geom_bond_type
C35   H20   S    
C14   C40   S    
C6    C7    S    
C1    O6    A    
C22   C23   A    
C27   C28   S    
C32   H19   S    
C5    C12   S    
C17   C18   A    
O19   V4    S    
C16   H7    S    
O5    C3    A    
C19   C20   S    
C35   H21   S    
O15   C39   A    
V2    O10   S    
C5    H2    S    
C31   C32   A    
C6    H1    S    
C9    C12   S    
O12   V3    S    
O17   V4    S    
O8    V2    S    
C21   C28   S    
C7    C39   S    
C32   C33   A    
C9    C10   S    
O1    V2    S    
C3    C17   S    
O7    V1    S    
C36   H23   S    
C27   H15   S    
C24   C25   A    
C35   C36   S    
C30   C31   A    
O9    C4    A    
O12   C37   A    
C6    C11   S    
C25   C38   S    
C2    C30   S    
C27   H14   S    
C25   C26   A    
C20   H10   S    
C1    C22   S    
C11   H5    S    
C23   C24   A    
C26   C27   S    
O19   C40   A    
C10   C11   S    
C19   H9    S    
O4    C2    A    
C28   H17   S    
V4    O20   S    
C20   H11   S    
C29   C30   A    
O18   V4    S    
C13   C18   A    
C31   H18   S    
C15   C16   A    
O2    C1    A    
C18   C19   S    
C29   C34   A    
C14   C15   A    
O15   V3    S    
C5    C6    S    
C9    H4    S    
C4    C12   S    
C10   C41   S    
V3    O20   S    
O3    C4    A    
C21   C26   A    
C24   H13   S    
C41   O22   S    
O18   C39   A    
O6    V2    S    
C8    H3    S    
O9    V2    S    
O13   V3    S    
O2    V1    S    
C21   C22   A    
C28   H16   S    
C23   H12   S    
O1    C2    A    
O14   C38   A    
O17   V3    S    
O14   V3    S    
O5    V1    S    
O11   V4    S    
O8    C3    A    
C5    C8    S    
C36   H22   S    
C15   H6    S    
C11   C12   S    
O4    V1    S    
O3    V1    S    
V1    O10   S    
C33   C34   A    
C19   H8    S    
O22   H24   S    
C13   C14   A    
C33   C37   S    
C13   C20   S    
C16   C17   A    
O13   C40   A    
O7    V2    S    
C29   C36   S    
C41   O21   D    
C34   C35   S    
C7    C10   S    
O11   C38   A    
C8    C9    S    
C7    C8    S    
C37   O16   A    
O16   V4    S    
