data_mof_unit_9003.cif
_audit_creation_date              2012-12-10T18:54:29-0500
_audit_creation_method            fapswitch 2.2
_symmetry_space_group_name_H-M    P1
_symmetry_Int_Tables_number       1
_space_group_crystal_system       triclinic
_cell_length_a                    10.646006
_cell_length_b                    10.078125
_cell_length_c                    23.28215
_cell_angle_alpha                 89.857642
_cell_angle_beta                  91.619976
_cell_angle_gamma                 89.215734
_cell_volume                      2496.74068178

loop_
_atom_site_label
_atom_site_type_symbol
_atom_type_description
_atom_site_fract_x
_atom_site_fract_y
_atom_site_fract_z
_atom_type_partial_charge
C1    C     C_R   0.260712 0.500560 0.499691 0.846143
C2    C     C_R   0.739193 0.499126 0.499724 0.843723
C3    C     C_R   0.482796 0.414808 0.233197 -0.097571
C4    C     C_R   0.539175 0.616580 0.761778 -0.125747
C5    C     C_R   0.469248 0.406246 0.292199 -0.237248
C6    C     C_R   0.543931 0.611758 0.702448 -0.213342
C7    C     C_R   0.520284 0.504273 0.327964 -0.027880
C8    C     C_R   0.494359 0.502690 0.672675 -0.025458
C9    C     C_R   0.587584 0.609181 0.304296 -0.226689
C10   C     C_R   0.437429 0.399921 0.702774 -0.232994
C11   C     C_R   0.600701 0.617790 0.245278 -0.102993
C12   C     C_R   0.432768 0.405014 0.762365 -0.093299
C13   C     C_R   0.546801 0.521579 0.209761 0.332045
C14   C     C_R   0.484385 0.513051 0.791659 0.334498
C15   C     C_R   0.067986 0.401284 0.529881 -0.186297
C16   C     C_R   0.931588 0.593932 0.466750 -0.178748
C17   C     C_R   0.939137 0.399438 0.529307 -0.193765
C18   C     C_R   0.060410 0.595493 0.467162 -0.211786
C19   C     C_R   0.871831 0.497226 0.498553 0.003853
C20   C     C_R   0.127853 0.500357 0.499351 -0.007429
C21   C     C_R   0.557220 0.067920 0.543827 0.166125
C22   C     C_R   0.420679 0.930896 0.464000 0.132591
C23   C     C_R   0.438096 0.070685 0.457443 0.126915
C24   C     C_R   0.576538 0.927817 0.537121 0.143161
C25   C     C_R   0.503507 0.500500 0.389740 0.839587
C26   C     C_R   0.498687 0.500162 0.610324 0.853980
C27   C     C_R   0.602145 0.476168 0.879104 0.496375
C28   C     C_R   0.432945 0.582284 0.123472 0.489063
C29   C     C_R   0.392031 0.560781 0.882299 0.509667
C30   C     C_R   0.647180 0.510807 0.118793 0.512392
C31   C     C_R   0.401605 0.571862 0.942049 -0.056905
C32   C     C_R   0.640671 0.514431 0.058924 -0.033913
C33   C     C_R   0.516545 0.539516 0.970404 -0.054402
C34   C     C_R   0.525588 0.547897 0.030716 -0.038819
C35   C     C_R   0.621675 0.497008 0.938480 -0.028600
C36   C     C_R   0.419684 0.587529 0.062852 -0.075806
C37   C     C_R   0.299074 0.616870 0.973200 -0.153717
C38   C     C_R   0.746890 0.484055 0.027208 -0.207070
C39   C     C_R   0.305533 0.627570 0.033350 0.138591
C40   C     C_R   0.740608 0.477860 0.967217 0.159279
H1    H     H_    0.213228 0.642641 0.949771 0.201165
H2    H     H_    0.836268 0.465650 0.049456 0.188742
H3    H     H_    0.439316 0.341638 0.205356 0.133659
H4    H     H_    0.580159 0.699374 0.784812 0.128216
H5    H     H_    0.414564 0.326694 0.309214 0.150909
H6    H     H_    0.587971 0.692229 0.679975 0.141980
H7    H     H_    0.628724 0.685284 0.331392 0.152877
H8    H     H_    0.395243 0.317138 0.680407 0.142566
H9    H     H_    0.648880 0.701148 0.226984 0.138051
H10   H     H_    0.390942 0.324726 0.785812 0.136110
H11   H     H_    0.120742 0.326808 0.554495 0.145654
H12   H     H_    0.878756 0.666450 0.441141 0.142949
H13   H     H_    0.892735 0.323671 0.553494 0.139508
H14   H     H_    0.106428 0.668445 0.441471 0.145252
N1    N     N_R   0.491433 0.513760 0.852686 -0.353007
N2    N     N_R   0.543299 0.540254 0.149137 -0.350130
N3    N     N_R   0.500000 0.857200 0.500000 -0.129310
N4    N     N_R   0.500000 0.142800 0.500000 -0.124234
O1    O     O_R   0.316770 0.614620 0.500000 -0.620153
O2    O     O_R   0.683230 0.385380 0.500000 -0.616759
O3    O     O_R   0.683230 0.614620 0.500000 -0.625913
O4    O     O_R   0.316770 0.385380 0.500000 -0.615358
O5    O     O_R   0.499970 0.614690 0.416160 -0.605929
O6    O     O_R   0.500030 0.385310 0.583840 -0.619943
O7    O     O_R   0.500030 0.614690 0.583840 -0.636173
O8    O     O_R   0.499970 0.385310 0.416160 -0.614207
O9    O     O_2   0.690509 0.416287 0.847538 -0.576130
O10   O     O_2   0.337142 0.616104 0.157361 -0.591392
O11   O     O_2   0.284600 0.596517 0.853781 -0.576423
O12   O     O_2   0.755384 0.475170 0.146695 -0.565165
Zn1   Zn    Zn3+2 0.500000 0.653120 0.500000 0.932571
Zn2   Zn    Zn3+2 0.500000 0.346880 0.500000 0.940175
C41   C     C_3   0.192211 0.681242 0.065585 -0.309029
C42   C     C_3   0.078908 0.730142 0.029354 -0.954232
H15   H     H_    0.106209 0.809390 0.999094 0.272195
H16   H     H_    0.036820 0.645641 0.005856 0.268536
H17   H     H_    0.006604 0.771708 0.057974 0.274235
H18   H     H_    0.157367 0.601629 0.093876 0.254900
H19   H     H_    0.223101 0.766946 0.092137 0.246883
C43   C     C_3   0.864274 0.458420 0.936785 -0.350284
C44   C     C_3   0.899448 0.582345 0.902836 -0.794390
H20   H     H_    0.837216 0.597853 0.864435 0.285577
H21   H     H_    0.892511 0.672169 0.930104 0.243240
H22   H     H_    0.997499 0.571767 0.888258 0.265943
H23   H     H_    0.942419 0.438432 0.968447 0.175574
H24   H     H_    0.862775 0.369081 0.909158 0.254708
C45   C     C_3   0.562440 0.118015 0.605057 -0.345282
C46   C     C_3   0.684700 0.187378 0.621806 -0.800105
H25   H     H_    0.765293 0.116619 0.622199 0.234264
H26   H     H_    0.704178 0.268485 0.591774 0.280006
H27   H     H_    0.677077 0.229723 0.665569 0.249915
H28   H     H_    0.477253 0.176965 0.613130 0.214304
H29   H     H_    0.549601 0.035642 0.636003 0.158231
C47   C     C_3   0.299311 0.874237 0.439227 -0.359837
C48   C     C_3   0.311683 0.802150 0.381764 -0.770863
H30   H     H_    0.406686 0.813739 0.364053 0.259396
H31   H     H_    0.290115 0.695532 0.386564 0.254511
H32   H     H_    0.242502 0.843742 0.349693 0.222674
H33   H     H_    0.252387 0.816525 0.471991 0.218963
H34   H     H_    0.228536 0.954876 0.432446 0.181139
C49   C     C_3   0.393652 0.131435 0.400606 -0.335762
C50   C     C_3   0.268905 0.209221 0.403095 -0.774197
H35   H     H_    0.221246 0.192045 0.444224 0.254344
H36   H     H_    0.282708 0.316796 0.396812 0.260342
H37   H     H_    0.204118 0.176652 0.367791 0.216886
H38   H     H_    0.470887 0.183994 0.380746 0.213485
H39   H     H_    0.379630 0.052622 0.368068 0.181271
C51   C     C_3   0.684704 0.860706 0.570192 -0.354865
C52   C     C_3   0.807531 0.881874 0.539375 -0.851493
H40   H     H_    0.884353 0.823002 0.560866 0.251720
H41   H     H_    0.797972 0.850406 0.493860 0.266519
H42   H     H_    0.833063 0.988302 0.540304 0.248847
H43   H     H_    0.696440 0.897215 0.614704 0.176851
H44   H     H_    0.669759 0.754809 0.576211 0.257211

loop_
_geom_bond_atom_site_label_1
_geom_bond_atom_site_label_2
_ccdc_geom_bond_type
C49   H39   S    
C23   N4    A    
C38   C40   A    
C45   C46   S    
C21   C45   S    
C49   C50   S    
C8    C26   S    
C41   C42   S    
C48   H30   S    
C1    O4    A    
C22   N3    A    
C44   H20   S    
C28   N2    A    
C48   H32   S    
C3    H3    S    
C42   H16   S    
C28   O10   S    
C38   H2    S    
C52   H41   S    
C33   C35   A    
C2    O2    A    
O2    Zn2   S    
C51   C52   S    
C50   H37   S    
C7    C9    A    
C25   O5    A    
C51   H44   S    
C26   O6    A    
C43   H24   S    
C44   H21   S    
O8    Zn2   S    
C24   N3    A    
C42   H17   S    
C41   H18   S    
C40   C43   S    
C24   C51   S    
C32   C38   A    
C18   C20   A    
C3    C13   A    
C2    O3    A    
C13   N2    S    
O3    Zn1   S    
C39   C41   S    
C14   N1    S    
C45   H28   S    
C4    C14   A    
C22   C47   S    
C47   C48   S    
C30   O12   S    
C29   O11   S    
C15   C20   A    
C42   H15   S    
C4    C6    A    
C52   H42   S    
C5    C7    A    
C6    C8    A    
C29   N1    A    
C27   C35   A    
O7    Zn1   S    
C30   N2    A    
C31   C37   A    
C32   C34   A    
C51   H43   S    
C43   H23   S    
C11   H9    S    
C46   H27   S    
C47   H34   S    
C29   C31   A    
C31   C33   A    
C33   C34   A    
C41   H19   S    
O4    Zn2   S    
N3    Zn1   S    
C50   H36   S    
C9    C11   A    
C10   C12   A    
C16   C18   A    
C46   H26   S    
C9    H7    S    
C15   H11   S    
C10   H8    S    
C17   H13   S    
C44   H22   S    
C49   H38   S    
C15   C17   A    
C1    C20   S    
C6    H6    S    
C2    C19   S    
C26   O7    A    
C36   C39   A    
C25   O8    A    
C16   H12   S    
O5    Zn1   S    
C43   C44   S    
C3    C5    A    
C12   H10   S    
C48   H31   S    
C4    H4    S    
C27   N1    A    
C7    C25   S    
C1    O1    A    
C35   C40   A    
C12   C14   A    
C21   N4    A    
C37   C39   A    
C52   H40   S    
C30   C32   A    
C11   C13   A    
N4    Zn2   S    
C23   C49   S    
C5    H5    S    
C47   H33   S    
C16   C19   A    
C45   H29   S    
C17   C19   A    
C34   C36   A    
O6    Zn2   S    
C37   H1    S    
C50   H35   S    
C27   O9    S    
C18   H14   S    
C46   H25   S    
C28   C36   A    
C8    C10   A    
C21   C24   A    
C22   C23   A    
O1    Zn1   S    
