data_mof_unit_6746.cif
_audit_creation_date              2012-12-10T17:44:31-0500
_audit_creation_method            fapswitch 2.2
_symmetry_space_group_name_H-M    P1
_symmetry_Int_Tables_number       1
_space_group_crystal_system       triclinic
_cell_length_a                    9.931725
_cell_length_b                    10.620342
_cell_length_c                    15.574491
_cell_angle_alpha                 89.370446
_cell_angle_beta                  67.691604
_cell_angle_gamma                 89.7258
_cell_volume                      1519.72433171

loop_
_atom_site_label
_atom_site_type_symbol
_atom_type_description
_atom_site_fract_x
_atom_site_fract_y
_atom_site_fract_z
_atom_type_partial_charge
C1    C     C_R   0.498792 0.739208 0.500429 0.875691
C2    C     C_R   0.407204 0.470766 0.915531 0.075601
C3    C     C_R   0.261619 0.504181 0.970005 0.159797
C4    C     C_R   0.508222 0.445489 0.957900 0.072184
C5    C     C_R   0.467944 0.472819 0.053023 0.059710
C6    C     C_R   0.320549 0.502718 0.106496 -0.203721
C7    C     C_R   0.218888 0.516069 0.065565 -0.218200
C8    C     C_R   0.647541 0.392911 0.908512 -0.233828
C9    C     C_R   0.747880 0.375789 0.949926 -0.239985
C10   C     C_R   0.714241 0.413068 0.040984 0.181017
C11   C     C_R   0.575647 0.465609 0.092038 0.093439
C12   C     C_R   0.408667 0.499679 0.675749 0.886044
C13   C     C_R   0.816557 0.396751 0.082452 -0.227431
C14   C     C_R   0.781655 0.431054 0.174547 -0.183105
C15   C     C_R   0.549226 0.509957 0.180793 -0.253412
C16   C     C_R   0.482430 0.855599 0.669081 -0.207222
C17   C     C_R   0.485309 0.912907 0.747924 -0.212897
C18   C     C_R   0.505593 0.041853 0.747908 -0.224335
C19   C     C_R   0.522847 0.115378 0.668826 0.499549
C20   C     C_R   0.504353 0.059635 0.590921 -0.010265
C21   C     C_R   0.492595 0.927783 0.590055 0.034898
C22   C     C_R   0.489627 0.870815 0.509807 -0.019581
C23   C     C_R   0.496194 0.260791 0.508069 0.945712
C24   C     C_R   0.479597 0.939145 0.436173 -0.128312
C25   C     C_R   0.480372 0.067515 0.438777 -0.204323
C26   C     C_R   0.495611 0.127563 0.513664 -0.092639
C27   C     C_R   0.863661 0.728644 0.525373 0.446954
C28   C     C_R   0.880562 0.814494 0.588377 -0.279139
C29   C     C_R   0.982548 0.789880 0.628319 -0.268236
C30   C     C_R   0.072365 0.684017 0.600410 -0.160180
C31   C     C_R   0.045800 0.594913 0.542734 0.150086
C32   C     C_R   0.914668 0.605257 0.526880 0.060626
C33   C     C_R   0.948267 0.400857 0.467571 -0.136201
C34   C     C_R   0.591200 0.499770 0.324421 0.884663
C35   C     C_R   0.093780 0.403482 0.463676 -0.101037
C36   C     C_R   0.352114 0.497008 0.777035 -0.045172
C37   C     C_R   0.646228 0.485747 0.224132 -0.050093
C38   C     C_R   0.161713 0.528138 0.927640 -0.205750
C39   C     C_R   0.206383 0.522898 0.831334 -0.221785
C40   C     C_R   0.450300 0.471710 0.819424 -0.210236
H1    H     H_    0.107334 0.539355 0.108609 0.169905
H2    H     H_    0.921288 0.353657 0.044696 0.150165
H3    H     H_    0.473767 0.892747 0.375975 0.151756
H4    H     H_    0.468656 0.754712 0.671453 0.135106
H5    H     H_    0.474839 0.856719 0.808555 0.173529
H6    H     H_    0.512447 0.085057 0.808786 0.161413
H7    H     H_    0.473019 0.120597 0.380769 0.147964
H8    H     H_    0.911131 0.320270 0.440842 0.157188
H9    H     H_    0.833428 0.907809 0.594866 0.179840
H10   H     H_    0.451347 0.561717 0.218852 0.168449
H11   H     H_    0.001844 0.858563 0.673199 0.175226
H12   H     H_    0.157695 0.671437 0.626308 0.191423
H13   H     H_    0.165798 0.325425 0.433154 0.151307
H14   H     H_    0.857679 0.410958 0.207654 0.165884
H15   H     H_    0.852708 0.334080 0.910178 0.150502
H16   H     H_    0.050322 0.554051 0.968695 0.154845
H17   H     H_    0.128883 0.543416 0.799432 0.156053
H18   H     H_    0.562970 0.459420 0.775896 0.166810
H19   H     H_    0.279235 0.512377 0.180904 0.168941
H20   H     H_    0.680407 0.359300 0.838563 0.142659
N1    N     N_R   0.856800 0.501200 0.500850 -0.117434
N2    N     N_R   0.142390 0.501280 0.500880 -0.106049
O1    O     O_R   0.385310 0.683220 0.500000 -0.640246
O2    O     O_R   0.614640 0.683250 0.500010 -0.579305
O3    O     O_R   0.319840 0.499980 0.632240 -0.647141
O4    O     O_R   0.549160 0.500000 0.632250 -0.611323
O5    O     O_R   0.385360 0.316750 0.499990 -0.637834
O6    O     O_R   0.614690 0.316780 0.500000 -0.584108
O7    O     O_R   0.450840 0.500000 0.367750 -0.614329
O8    O     O_R   0.680160 0.500020 0.367760 -0.574608
Zn1   Zn    Zn3+2 0.346880 0.499980 0.499990 0.943956
Zn2   Zn    Zn3+2 0.653120 0.500020 0.500010 1.004107
O9    O     O_3   0.562136 0.239723 0.668187 -0.618680
C41   C     C_3   0.710015 0.243717 0.657561 -0.281094
H21   H     H_    0.745124 0.343202 0.652500 0.193486
H22   H     H_    0.781157 0.195725 0.592918 0.165759
H23   H     H_    0.726843 0.201661 0.718397 0.131585
S1    S     S_3+6 0.900491 0.795325 0.413822 0.036060
O10   O     O_2   0.870537 0.702895 0.350958 -0.251250
O11   O     O_2   0.811792 0.912458 0.420624 -0.331293
O12   O     O_3   0.077954 0.833729 0.366702 -0.537953
H24   H     H_    0.090268 0.901053 0.406636 0.349837

loop_
_geom_bond_atom_site_label_1
_geom_bond_atom_site_label_2
_ccdc_geom_bond_type
C16   C21   A    
C35   H13   S    
C34   C37   S    
O9    C41   S    
C19   C20   A    
C4    C8    A    
C27   S1    S    
O12   H24   S    
C41   H22   S    
C28   C29   A    
C17   H5    S    
C32   N1    A    
C5    C11   A    
C3    C7    A    
C38   C39   A    
S1    O11   D    
C23   C26   S    
C39   H17   S    
C1    O1    A    
C18   C19   A    
C15   H10   S    
C23   O5    A    
O7    Zn1   S    
C15   C37   A    
C30   H12   S    
C11   C15   A    
O4    Zn2   S    
C3    C38   A    
C8    C9    A    
C41   H23   S    
C9    H15   S    
C12   C36   S    
C9    C10   A    
C16   H4    S    
O2    Zn2   S    
C1    C22   S    
C13   C14   A    
C31   N2    A    
C18   H6    S    
C13   H2    S    
C40   H18   S    
C41   H21   S    
C36   C40   A    
C24   C25   A    
S1    O10   D    
C16   C17   A    
C25   C26   A    
O3    Zn1   S    
C12   O4    A    
C23   O6    A    
C2    C4    A    
C29   C30   A    
C28   H9    S    
C31   C32   A    
C19   O9    S    
C30   C31   A    
O6    Zn2   S    
C17   C18   A    
C34   O7    A    
N1    Zn2   S    
C14   H14   S    
O1    Zn1   S    
C22   C24   A    
C1    O2    A    
C29   H11   S    
C24   H3    S    
C34   O8    A    
C25   H7    S    
C27   C32   A    
C6    H19   S    
C36   C39   A    
C4    C5    A    
C10   C13   A    
C6    C7    A    
C12   O3    A    
C2    C3    A    
C8    H20   S    
C14   C37   A    
S1    O12   S    
C5    C6    A    
C20   C26   A    
C33   C35   A    
N2    Zn1   S    
C35   N2    A    
O5    Zn1   S    
C7    H1    S    
C10   C11   A    
C2    C40   A    
C38   H16   S    
C20   C21   A    
C33   N1    A    
C27   C28   A    
C33   H8    S    
O8    Zn2   S    
C21   C22   A    
