data_mof_unit_36191.cif
_audit_creation_date              2013-03-05T16:00:38-0500
_audit_creation_method            fapswitch 2.2
_symmetry_space_group_name_H-M    P1
_symmetry_Int_Tables_number       1
_space_group_crystal_system       triclinic
_cell_length_a                    10.806489
_cell_length_b                    14.759507
_cell_length_c                    14.840048
_cell_angle_alpha                 63.743776
_cell_angle_beta                  104.912166
_cell_angle_gamma                 102.220176
_cell_volume                      2038.15021897

loop_
_atom_site_label
_atom_site_type_symbol
_atom_site_description
_atom_site_fract_x
_atom_site_fract_y
_atom_site_fract_z
_atom_type_partial_charge
O1    O     O_R   0.455060 0.022100 0.338110 -0.556970
O2    O     O_R   0.512640 0.160150 0.379180 -0.552791
C1    C     C_R   0.475937 0.120719 0.311756 0.872128
O3    O     O_R   0.288900 0.930980 0.479450 -0.583522
O4    O     O_R   0.346480 0.069030 0.520520 -0.582605
C2    C     C_R   0.260223 0.001838 0.497933 0.856209
Cu1   Cu    Cu3+1 0.465900 0.918260 0.475680 1.102283
Cu2   Cu    Cu3+1 0.534100 0.081740 0.524320 1.015031
O5    O     O_R   0.487360 0.839850 0.620820 -0.495467
O6    O     O_R   0.544940 0.977900 0.661890 -0.597295
O7    O     O_R   0.653520 0.930970 0.479480 -0.516866
O8    O     O_R   0.711100 0.069020 0.520550 -0.591741
C3    C     C_R   0.517936 0.879398 0.688326 0.872325
C4    C     C_R   0.738688 0.002021 0.495339 0.820022
C5    C     C_3   0.036382 0.932184 0.446635 -0.350563
H1    H     H_    0.062181 0.853437 0.493141 0.257116
H2    H     H_    0.056928 0.952473 0.369872 0.207098
C6    C     C_3   0.892731 0.937672 0.436456 0.220927
H3    H     H_    0.852649 0.979044 0.353697 0.156736
C7    C     C_3   0.097649 0.970382 0.605889 0.149514
C8    C     C_3   0.080011 0.112924 0.430422 0.139594
C9    C     C_3   0.121817 0.003689 0.495240 -0.188126
C10   C     C_3   0.876166 0.001970 0.492849 -0.121681
C11   C     C_3   0.951939 0.962362 0.604253 -0.398617
C12   C     C_3   0.936753 0.112566 0.433838 -0.436329
H4    H     H_    0.878834 0.146398 0.355589 0.252902
H5    H     H_    0.146780 0.031930 0.631278 0.138367
C13   C     C_R   0.435781 0.192292 0.204537 -0.229337
C14   C     C_R   0.525907 0.811366 0.798922 -0.103710
C15   C     C_R   0.249391 0.247169 0.069555 -0.150576
C16   C     C_R   0.317505 0.168695 0.146853 0.338641
C17   C     C_R   0.494281 0.294123 0.171885 0.223399
C18   C     C_R   0.419818 0.373818 0.100156 0.024430
C19   C     C_R   0.297462 0.348747 0.047743 0.047028
C20   C     C_R   0.464666 0.478300 0.076022 0.043942
C21   C     C_R   0.405394 0.552667 0.984677 0.068532
C22   C     C_R   0.279232 0.526810 0.940042 -0.068141
C23   C     C_R   0.225594 0.425816 0.971794 -0.111495
C24   C     C_R   0.559683 0.511675 0.142967 -0.181605
C25   C     C_R   0.606229 0.614822 0.113866 0.319685
C26   C     C_R   0.570513 0.683883 0.010868 -0.008427
C27   C     C_R   0.473722 0.650883 0.943018 -0.052327
C28   C     C_R   0.633958 0.782849 0.973075 -0.086930
C29   C     C_R   0.609421 0.846059 0.869494 -0.223916
C30   C     C_R   0.456931 0.712445 0.835421 0.342027
H6    H     H_    0.222387 0.584462 0.879333 0.202403
H7    H     H_    0.591654 0.458906 0.220688 0.202054
N1    N     N_R   0.585360 0.204570 0.560800 -0.200442
N2    N     N_R   0.414550 0.795430 0.439160 -0.239014
C31   C     C_R   0.743425 0.300065 0.637813 -0.250712
C32   C     C_R   0.697349 0.210234 0.625881 0.103550
C33   C     C_R   0.511236 0.283050 0.509827 0.114082
C34   C     C_R   0.546866 0.373723 0.525210 -0.000916
C35   C     C_R   0.670773 0.382743 0.585267 0.135520
C36   C     C_R   0.469971 0.457676 0.479171 -0.039102
C37   C     C_R   0.525693 0.550128 0.489494 0.056979
C38   C     C_R   0.655960 0.558867 0.536107 -0.023561
C39   C     C_R   0.724815 0.475809 0.587778 -0.132524
C40   C     C_R   0.340135 0.454542 0.424972 0.311560
C41   C     C_R   0.282462 0.545195 0.366884 -0.176694
C42   C     C_R   0.335432 0.633598 0.381384 0.031099
C43   C     C_R   0.450298 0.632642 0.452230 -0.067243
C44   C     C_R   0.267897 0.719117 0.334440 -0.211778
C45   C     C_R   0.311770 0.800683 0.362326 0.102985
C46   C     C_R   0.479546 0.710100 0.489602 0.510440
H8    H     H_    0.186959 0.543274 0.320788 0.203958
H9    H     H_    0.836860 0.305933 0.685344 0.157054
H10   H     H_    0.754231 0.146805 0.663920 0.125607
H11   H     H_    0.705160 0.629962 0.535885 0.236994
H12   H     H_    0.933392 0.161465 0.472512 0.219068
H13   H     H_    0.938577 0.008302 0.643011 0.152948
H14   H     H_    0.130072 0.407689 0.933578 0.162505
N3    N     N_R   0.384503 0.669480 0.764505 0.123040
O9    O     O_R   0.398101 0.577827 0.780446 -0.291537
O10   O     O_R   0.294488 0.716132 0.690825 -0.291409
H15   H     H_    0.663265 0.920915 0.843694 0.174354
N4    N     N_R   0.692719 0.646819 0.188559 0.116466
O11   O     O_R   0.672737 0.725292 0.198977 -0.321452
O12   O     O_R   0.775906 0.587616 0.258104 -0.316256
H16   H     H_    0.158029 0.228586 0.026381 0.186496
N5    N     N_R   0.266727 0.065637 0.164180 0.117054
O13   O     O_R   0.337492 0.007215 0.159482 -0.336706
O14   O     O_R   0.143684 0.037766 0.161073 -0.334154
N6    N     N_R   0.632862 0.314004 0.194284 0.120476
O15   O     O_R   0.695301 0.368507 0.119698 -0.291762
O16   O     O_R   0.698213 0.274637 0.286810 -0.354525
H17   H     H_    0.707900 0.811048 0.022077 0.205686
H18   H     H_    0.822470 0.485283 0.627934 0.172540
N7    N     N_R   0.553588 0.686988 0.591442 0.121925
O17   O     O_R   0.540182 0.595168 0.661745 -0.304325
O18   O     O_R   0.650767 0.748568 0.610272 -0.303742
H19   H     H_    0.259074 0.866273 0.326471 0.191643
H20   H     H_    0.428840 0.275130 0.453779 0.171992
N8    N     N_R   0.257429 0.361084 0.441603 0.089556
O19   O     O_R   0.160853 0.355836 0.369944 -0.322607
O20   O     O_R   0.256507 0.293348 0.534901 -0.387114
H21   H     H_    0.180120 0.721946 0.278334 0.185363
N9    N     N_R   0.825432 0.834612 0.470338 0.147421
O21   O     O_R   0.868929 0.764044 0.558036 -0.313895
O22   O     O_R   0.738561 0.808774 0.404255 -0.346463
N10   N     N_R   0.151548 0.876184 0.680809 0.144303
O23   O     O_R   0.090690 0.788033 0.687639 -0.275182
O24   O     O_R   0.248498 0.879931 0.752730 -0.368375
H22   H     H_    0.911396 0.883497 0.648259 0.256633
H23   H     H_    0.139837 0.162586 0.467321 0.198906
N11   N     N_R   0.102705 0.155049 0.325074 0.155873
O25   O     O_R   0.206018 0.216868 0.301079 -0.357834
O26   O     O_R   0.019884 0.133788 0.254208 -0.328105

loop_
_geom_bond_atom_site_label_1
_geom_bond_atom_site_label_2
_geom_bond_distance
_ccdc_geom_bond_type
C5    C6    1.536537 S    
C36   C37   1.427475 A    
N10   O23   1.300364 A    
C36   C40   1.429095 A    
N3    O10   1.298430 A    
N3    O9    1.300228 A    
C21   C27   1.420457 A    
C20   C21   1.409580 A    
N5    O13   1.301143 A    
Cu1   Cu2   2.720397 S    
C34   C35   1.421358 A    
Cu1   O7    1.984611 S    
C31   C35   1.400774 A    
N2    C46   1.381883 A    
O4    C2    1.306404 A    
C3    C14   1.488331 S    
C21   C22   1.407752 A    
C5    C9    1.550736 S    
N6    O16   1.300174 A    
C20   C24   1.406346 A    
O7    C4    1.304025 A    
N11   O25   1.300644 A    
C5    H1    1.110562 S    
C2    C9    1.491640 S    
C37   C38   1.406322 A    
C30   N3    1.441776 S    
C6    H3    1.115120 S    
C26   C27   1.421738 A    
C29   H15   1.083542 S    
O5    C3    1.311052 A    
N1    C32   1.353298 A    
C7    C11   1.548530 S    
C10   C11   1.547982 S    
C40   N8    1.432771 S    
N7    O18   1.294848 A    
C31   H9    1.083981 S    
C8    N11   1.470913 S    
C15   H16   1.084334 S    
N4    O12   1.301507 A    
C41   H8    1.084110 S    
C40   C41   1.406341 A    
N10   O24   1.300789 A    
N2    C45   1.358743 A    
O1    Cu1   1.927460 S    
C8    C9    1.562449 S    
C26   C28   1.402625 A    
C42   C43   1.403202 A    
O3    Cu1   1.978225 S    
N5    O14   1.301162 A    
C18   C19   1.417189 A    
C34   C36   1.444759 A    
C17   N6    1.443394 S    
C23   H14   1.083886 S    
C15   C19   1.396356 A    
C6    C10   1.576291 S    
C13   C17   1.415785 A    
N6    O15   1.301668 A    
Cu1   N2    2.043755 S    
O3    C2    1.303764 A    
C24   C25   1.401116 A    
C7    N10   1.466370 S    
C12   H4    1.111185 S    
N4    O11   1.301341 A    
C14   C30   1.424102 A    
C41   C42   1.394731 A    
C11   H22   1.110020 S    
C27   C30   1.430076 A    
C4    C10   1.495762 S    
C46   N7    1.441420 S    
C28   C29   1.389107 A    
Cu2   N1    2.043392 S    
C22   C23   1.390441 A    
Cu2   O8    1.978226 S    
C42   C44   1.400515 A    
C31   C32   1.385657 A    
C33   H20   1.076611 S    
N8    O20   1.301833 A    
C25   C26   1.417278 A    
C7    C9    1.567905 S    
N9    O22   1.301521 A    
C14   C29   1.402097 A    
C38   H11   1.070258 S    
C37   C43   1.430086 A    
C45   H19   1.079930 S    
C33   C34   1.413628 A    
C24   H7    1.081792 S    
C35   C39   1.386990 A    
C5    H2    1.112145 S    
C8    C12   1.560756 S    
C1    C13   1.479007 S    
C43   C46   1.425563 A    
C19   C23   1.398765 A    
C13   C16   1.414208 A    
O2    Cu2   1.919222 S    
O8    C4    1.310066 A    
O6    C3    1.314300 A    
C39   H18   1.084403 S    
O4    Cu2   1.984611 S    
C7    H5    1.115691 S    
C16   N5    1.433229 S    
C28   H17   1.080950 S    
C17   C18   1.419934 A    
O2    C1    1.307832 A    
N7    O17   1.299918 A    
C44   H21   1.083647 S    
C38   C39   1.380302 A    
C15   C16   1.396420 A    
N11   O26   1.301600 A    
C18   C20   1.423204 A    
C32   H10   1.081849 S    
C10   C12   1.561414 S    
N8    O19   1.301341 A    
C44   C45   1.394105 A    
Cu1   O5    1.919222 S    
N1    C33   1.364271 A    
Cu2   O6    1.927460 S    
N9    O21   1.300999 A    
C25   N4    1.438183 S    
C12   H12   1.113508 S    
C6    N9    1.462437 S    
O1    C1    1.313493 A    
C22   H6    1.082238 S    
C8    H23   1.107888 S    
C11   H13   1.113872 S    
