data_mof_unit_16545.cif
_audit_creation_date              2012-12-11T14:25:32-0500
_audit_creation_method            fapswitch 2.2
_symmetry_space_group_name_H-M    P1
_symmetry_Int_Tables_number       1
_space_group_crystal_system       triclinic
_cell_length_a                    6.935045
_cell_length_b                    14.774523
_cell_length_c                    16.179691
_cell_angle_alpha                 90.646089
_cell_angle_beta                  90.407653
_cell_angle_gamma                 89.993496
_cell_volume                      1657.65584799

loop_
_atom_site_label
_atom_site_type_symbol
_atom_type_description
_atom_site_fract_x
_atom_site_fract_y
_atom_site_fract_z
_atom_type_partial_charge
O1    O     O_R   0.494490 0.416160 0.413410 -0.547846
O2    O     O_R   0.823830 0.407240 0.585990 -0.566432
O3    O     O_R   0.994160 0.583840 0.586590 -0.518122
C1    C     C_R   0.654541 0.384226 0.612740 0.637040
O4    O     O_R   0.824200 0.405280 0.414020 -0.561933
O5    O     O_R   0.994530 0.581860 0.413390 -0.518620
C2    C     C_R   0.654236 0.385380 0.383775 0.640151
O6    O     O_R   0.494110 0.418140 0.586610 -0.513675
O7    O     O_3   0.660810 0.557940 0.500000 -0.338830
V1    V     V_3+5 0.935650 0.489250 0.500000 1.475170
O8    O     O_R   0.324250 0.592760 0.414010 -0.560590
C3    C     C_R   0.154891 0.612799 0.384477 0.738573
O9    O     O_R   0.323880 0.594720 0.585980 -0.513654
C4    C     C_R   0.154928 0.617707 0.614136 0.815125
V2    V     V_3+5 0.435660 0.510750 0.500000 1.516367
O10   O     O_3   0.160630 0.442060 0.500000 -0.384033
C5    C     C_3   0.930796 0.702065 0.712437 0.333570
H1    H     H_    0.874889 0.636373 0.735350 0.143337
C6    C     C_3   0.916833 0.774114 0.782292 0.289041
H2    H     H_    0.826600 0.831890 0.762189 0.200078
H3    H     H_    0.122087 0.801123 0.603690 0.059660
C7    C     C_3   0.221357 0.782335 0.654794 0.232475
C8    C     C_3   0.264376 0.657021 0.759457 -0.427745
C9    C     C_3   0.143923 0.688561 0.683509 -0.270227
H4    H     H_    0.419618 0.653272 0.742754 0.272480
H5    H     H_    0.220360 0.587324 0.776691 0.095733
C10   C     C_3   0.121405 0.808028 0.808457 -0.328846
C11   C     C_3   0.221026 0.851885 0.731035 0.868924
C12   C     C_3   0.236814 0.721559 0.835151 0.331701
H6    H     H_    0.145613 0.684396 0.880410 0.091300
C13   C     C_2   0.988787 0.715110 0.284097 0.538578
C14   C     C_2   0.146663 0.668939 0.309004 -0.343363
H7    H     H_    0.271875 0.667796 0.269186 0.085374
C15   C     C_2   0.991476 0.766583 0.204953 -0.297054
C16   C     C_2   0.124594 0.830670 0.190168 0.272443
H8    H     H_    0.878942 0.752989 0.159499 0.075838
C17   C     C_2   0.776442 0.204226 0.777715 -0.092518
C18   C     C_2   0.615021 0.181551 0.818577 -0.244673
H9    H     H_    0.910447 0.169358 0.791720 0.153272
H10   H     H_    0.482073 0.218559 0.809532 0.203331
C19   C     C_2   0.787667 0.278861 0.716753 -0.244865
C20   C     C_2   0.636304 0.310645 0.673061 0.449715
H11   H     H_    0.929996 0.306896 0.706063 0.126961
C21   C     C_2   0.780224 0.200023 0.220881 0.511748
C22   C     C_2   0.616246 0.170254 0.183068 -0.342056
H12   H     H_    0.477695 0.186551 0.209736 0.138335
C23   C     C_2   0.775167 0.261381 0.295272 -0.308984
C24   C     C_2   0.638802 0.324914 0.309482 0.262549
H13   H     H_    0.893311 0.255314 0.339243 0.098356
O11   O     O_R   0.770850 0.076180 0.907410 -0.541215
O12   O     O_R   0.440600 0.088970 0.079950 -0.553771
O13   O     O_R   0.270430 0.912340 0.080550 -0.559917
C25   C     C_R   0.609867 0.109001 0.109968 0.715512
O14   O     O_R   0.441120 0.087010 0.907980 -0.534516
O15   O     O_R   0.270950 0.910370 0.907350 -0.489206
C26   C     C_R   0.609648 0.109482 0.880758 0.755972
O16   O     O_R   0.770320 0.078150 0.080620 -0.513535
O17   O     O_3   0.604200 0.936340 0.994000 -0.366919
V3    V     V_3+5 0.329300 0.004970 0.993950 1.518667
O18   O     O_R   0.941240 0.899420 0.907920 -0.522437
C27   C     C_R   0.109981 0.876597 0.879727 0.854591
O19   O     O_R   0.940720 0.901380 0.079890 -0.557608
C28   C     C_R   0.110515 0.885143 0.112358 0.603731
V4    V     V_3+5 0.829310 0.983370 0.993880 1.522351
O20   O     O_3   0.104280 0.052120 0.993920 -0.371609
F1    F     F_    0.813709 0.727605 0.646965 -0.667032
O21   O     O_3   0.420195 0.745340 0.868739 -0.468306
C29   C     C_3   0.444197 0.710379 0.949031 -0.006933
H14   H     H_    0.441131 0.635107 0.947557 0.084402
H15   H     H_    0.332340 0.737376 0.991684 0.039053
H16   H     H_    0.586545 0.732067 0.973826 0.180556
O22   O     O_3   0.411413 0.771365 0.623840 -0.484882
C30   C     C_3   0.451693 0.836910 0.563539 -0.022829
H17   H     H_    0.439996 0.906641 0.589508 0.136445
H18   H     H_    0.356099 0.828331 0.508498 0.074519
H19   H     H_    0.602211 0.827499 0.542402 0.185418
F2    F     F_    0.412714 0.866690 0.752639 -0.591442
O23   O     O_3   0.837118 0.727342 0.338112 -0.544848
C31   C     C_3   0.672506 0.683522 0.306193 -0.197681
H20   H     H_    0.632087 0.707151 0.243556 0.095152
H21   H     H_    0.551492 0.700641 0.347577 0.186569
H22   H     H_    0.691829 0.608766 0.305751 0.131477
O24   O     O_3   0.248515 0.853505 0.255927 -0.556666
C32   C     C_3   0.431394 0.883625 0.230838 -0.224028
H23   H     H_    0.425328 0.955794 0.212666 0.126231
H24   H     H_    0.492925 0.839914 0.181158 0.128305
H25   H     H_    0.531262 0.879825 0.284538 0.167022
F3    F     F_    0.458925 0.272188 0.679342 -0.692339
O25   O     O_3   0.958653 0.174554 0.190339 -0.547133
C33   C     C_3   0.033304 0.104001 0.239134 -0.213416
H26   H     H_    0.076481 0.129104 0.301545 0.111427
H27   H     H_    0.164666 0.077124 0.208919 0.158293
H28   H     H_    0.929634 0.046733 0.244138 0.121413
O26   O     O_3   0.506116 0.344425 0.247122 -0.558446
C34   C     C_3   0.314577 0.337893 0.275693 -0.203121
H29   H     H_    0.262730 0.405087 0.297441 0.144466
H30   H     H_    0.295931 0.285968 0.324497 0.113756
H31   H     H_    0.220825 0.317542 0.222870 0.186692
F4    F     F_    0.823611 0.736352 0.849071 -0.676241
O27   O     O_3   0.143833 0.940677 0.717839 -0.567752
C35   C     C_3   0.018492 0.951670 0.649659 -0.362764
H32   H     H_    0.902152 0.900460 0.646906 0.166570
H33   H     H_    0.100910 0.953120 0.591151 0.151975
H34   H     H_    0.946882 0.018489 0.656106 0.202874

loop_
_geom_bond_atom_site_label_1
_geom_bond_atom_site_label_2
_ccdc_geom_bond_type
C35   H32   S    
O15   V3    S    
C10   C12   S    
O11   V4    S    
C19   C20   D    
C34   H29   S    
C32   H25   S    
C1    O6    A    
C34   H31   S    
C23   H13   S    
C22   H12   S    
C5    F1    S    
C12   H6    S    
C24   O26   S    
C33   H28   S    
C8    C12   S    
C17   C18   D    
C32   H24   S    
O5    C3    A    
V2    O10   S    
C15   C16   D    
C30   H17   S    
C8    H5    S    
C4    C9    S    
O19   V4    S    
C10   C27   S    
C12   O21   S    
O8    V2    S    
C23   C24   D    
C29   H14   S    
C8    C9    S    
O1    V2    S    
C6    C10   S    
O7    V1    S    
C21   C23   S    
C11   O27   S    
C22   C25   S    
C35   H33   S    
C7    C11   S    
O9    C4    A    
C3    C14   S    
C19   H11   S    
C7    O22   S    
O12   V3    S    
O14   V3    S    
O17   V4    S    
O14   C26   A    
C5    C9    S    
O21   C29   S    
C32   H23   S    
O4    C2    A    
C6    F4    S    
O23   C31   S    
O17   V3    S    
O11   C26   A    
O18   C27   A    
O12   C25   A    
O2    C1    A    
O19   C28   A    
O13   V3    S    
C33   H27   S    
O24   C32   S    
C5    H1    S    
C13   C15   S    
C11   F2    S    
O3    C4    A    
C35   H34   S    
O9    V2    S    
C30   H19   S    
C7    C9    S    
C20   F3    S    
C30   H18   S    
O2    V1    S    
C21   C22   D    
O16   V4    S    
C31   H21   S    
C16   O24   S    
O1    C2    A    
C13   C14   D    
O22   C30   S    
O13   C28   A    
C25   O16   A    
O5    V1    S    
C31   H22   S    
O8    C3    A    
C34   H30   S    
O6    V2    S    
O18   V4    S    
C14   H7    S    
C6    H2    S    
O7    V2    S    
O4    V1    S    
C17   H9    S    
O3    V1    S    
V1    O10   S    
C2    C24   S    
C18   H10   S    
C33   H26   S    
C1    C20   S    
C29   H16   S    
O15   C27   A    
V4    O20   S    
O27   C35   S    
C5    C6    S    
C15   H8    S    
C8    H4    S    
C17   C19   S    
O26   C34   S    
C31   H20   S    
C18   C26   S    
C29   H15   S    
C10   C11   S    
C16   C28   S    
O25   C33   S    
H3    C7    S    
C13   O23   S    
V3    O20   S    
C21   O25   S    
