data_mof_unit_18819.cif
_audit_creation_date              2012-10-26T19:45:29-0400
_audit_creation_method            fapswitch 2.2
_symmetry_space_group_name_H-M    P1
_symmetry_Int_Tables_number       1
_space_group_crystal_system       triclinic
_cell_length_a                    10.989128
_cell_length_b                    9.740924
_cell_length_c                    10.901013
_cell_angle_alpha                 88.923334
_cell_angle_beta                  95.163922
_cell_angle_gamma                 88.873652
_cell_volume                      1161.68253139

loop_
_atom_site_label
_atom_site_type_symbol
_atom_type_description
_atom_site_fract_x
_atom_site_fract_y
_atom_site_fract_z
_atom_type_partial_charge
C1    C     C_R   0.263225 0.500759 0.498548 0.538903
C2    C     C_R   0.428724 0.929879 0.412630 0.119905
C3    C     C_R   0.572982 0.923466 0.585317 0.127556
C4    C     C_R   0.570566 0.070194 0.586849 0.113411
C5    C     C_R   0.500530 0.500489 0.260690 0.529715
C6    C     C_R   0.738146 0.498886 0.503568 0.520007
C7    C     C_R   0.507463 0.499091 0.740500 0.531733
C8    C     C_3   0.465031 0.639102 0.064467 -0.253801
C9    C     C_3   0.424193 0.389574 0.065144 -0.255669
C10   C     C_3   0.452155 0.631555 0.923237 -0.242192
C11   C     C_3   0.440844 0.377446 0.927180 -0.241412
C12   C     C_3   0.654082 0.488341 0.945698 0.070915
C13   C     C_3   0.648204 0.465660 0.092756 0.070815
C14   C     C_3   0.511437 0.498972 0.124086 0.071144
C15   C     C_3   0.516457 0.498507 0.880687 0.063491
C16   C     C_3   0.659763 0.850125 0.679442 -0.359263
C17   C     C_3   0.634601 0.138981 0.694468 -0.365953
C18   C     C_3   0.739689 0.557447 0.169356 -0.379803
C19   C     C_3   0.687761 0.315770 0.137756 -0.380736
C20   C     C_3   0.725424 0.619807 0.915510 -0.387957
C21   C     C_3   0.729301 0.372672 0.889736 -0.395045
C22   C     C_3   0.150780 0.307171 0.661737 -0.376858
C23   C     C_R   0.074983 0.397921 0.567915 -0.008933
C24   C     C_3   0.104022 0.680344 0.327630 -0.401960
C25   C     C_3   0.895687 0.248337 0.589222 -0.390964
C26   C     C_3   0.869086 0.751368 0.422842 -0.373005
C27   C     C_3   0.332278 0.151908 0.324785 -0.341981
C28   C     C_3   0.361064 0.861572 0.305073 -0.358582
C29   C     C_R   0.055731 0.597985 0.430118 -0.005192
C30   C     C_R   0.947579 0.383552 0.550878 -0.012034
C31   C     C_R   0.932371 0.612454 0.451471 -0.015346
C32   C     C_R   0.873605 0.497944 0.502574 0.003977
C33   C     C_R   0.129776 0.500102 0.499564 0.022492
C34   C     C_R   0.425518 0.077587 0.414858 0.132767
Cu1   Cu    Cu3+1 0.500020 0.640660 0.500000 0.884147
Cu2   Cu    Cu3+1 0.500020 0.359340 0.500000 0.873255
H1    H     H_    0.527190 0.723096 0.093433 0.121322
H2    H     H_    0.327642 0.419563 0.076949 0.099698
H3    H     H_    0.353309 0.631196 0.889809 0.119959
H4    H     H_    0.348845 0.377396 0.876488 0.106914
H5    H     H_    0.487923 0.726663 0.883443 0.132719
H6    H     H_    0.484703 0.277093 0.910476 0.119071
H7    H     H_    0.720308 0.668563 0.153869 0.111852
H8    H     H_    0.736328 0.535676 0.268282 0.153059
H9    H     H_    0.835401 0.534425 0.149957 0.116375
H10   H     H_    0.784988 0.293645 0.123906 0.110176
H11   H     H_    0.682592 0.300443 0.238004 0.171384
H12   H     H_    0.439031 0.287172 0.110420 0.128140
H13   H     H_    0.632720 0.235499 0.090167 0.111369
H14   H     H_    0.684128 0.715781 0.947069 0.112672
H15   H     H_    0.821626 0.614075 0.956325 0.119036
H16   H     H_    0.734136 0.627091 0.816300 0.116101
H17   H     H_    0.736814 0.394658 0.790873 0.121194
H18   H     H_    0.824594 0.367598 0.933616 0.119365
H19   H     H_    0.689588 0.270854 0.900538 0.114713
H20   H     H_    0.231434 0.362133 0.701694 0.145981
H21   H     H_    0.098441 0.280504 0.741078 0.107211
H22   H     H_    0.181035 0.211813 0.618033 0.151191
H23   H     H_    0.665990 0.742552 0.663803 0.208092
H24   H     H_    0.178045 0.623015 0.286579 0.111843
H25   H     H_    0.031658 0.698959 0.250818 0.117194
H26   H     H_    0.134836 0.780136 0.364391 0.138375
H27   H     H_    0.828063 0.209473 0.517500 0.164356
H28   H     H_    0.965439 0.164182 0.599514 0.115827
H29   H     H_    0.859834 0.260381 0.679670 0.112506
H30   H     H_    0.930527 0.831280 0.392064 0.108741
H31   H     H_    0.792263 0.744889 0.350723 0.150957
H32   H     H_    0.836267 0.792119 0.508073 0.148926
H33   H     H_    0.329664 0.263024 0.326773 0.202084
H34   H     H_    0.754456 0.885227 0.673929 0.074583
H35   H     H_    0.348082 0.125063 0.229001 0.077694
H36   H     H_    0.239021 0.121340 0.344332 0.091543
H37   H     H_    0.337837 0.757375 0.328141 0.201814
H38   H     H_    0.271639 0.910837 0.275211 0.068354
H39   H     H_    0.417747 0.863805 0.226085 0.110434
H40   H     H_    0.631001 0.866912 0.773035 0.095496
H41   H     H_    0.661011 0.240106 0.666535 0.203948
H42   H     H_    0.572192 0.142483 0.768598 0.119649
H43   H     H_    0.721947 0.089931 0.731529 0.070862
H44   H     H_    0.373951 0.666716 0.095205 0.104212
N1    N     N_R   0.500030 0.852070 0.500030 -0.230774
N2    N     N_R   0.500030 0.147930 0.500030 -0.233113
O1    O     O_R   0.319660 0.618740 0.499990 -0.504836
O2    O     O_R   0.319660 0.381260 0.499990 -0.518564
O3    O     O_R   0.499990 0.618790 0.317690 -0.524299
O4    O     O_R   0.499990 0.381210 0.317690 -0.529165
O5    O     O_R   0.680370 0.618830 0.500010 -0.528067
O6    O     O_R   0.680370 0.381170 0.500010 -0.525677
O7    O     O_R   0.500030 0.618780 0.682310 -0.517930
O8    O     O_R   0.500030 0.381220 0.682310 -0.522113

loop_
_geom_bond_atom_site_label_1
_geom_bond_atom_site_label_2
_ccdc_geom_bond_type
C6    C32   S    
C24   H25   S    
Cu1   Cu2   S    
C28   H38   S    
C22   H21   S    
Cu1   N1    S    
C19   H10   S    
C1    C33   S    
Cu2   O6    S    
C1    O2    A    
C13   C18   S    
C26   H31   S    
C20   H15   S    
C10   C15   S    
C21   H18   S    
C19   H11   S    
C7    O7    A    
C29   C33   A    
C17   H43   S    
C6    O6    A    
C11   H6    S    
C25   H27   S    
C24   C29   S    
C9    H2    S    
C20   H14   S    
C11   C15   S    
Cu2   N2    S    
C23   C33   A    
C3    N1    A    
C8    C14   S    
C27   H33   S    
C5    O3    A    
C2    C34   A    
C7    C15   S    
C26   C31   S    
C13   C14   S    
C10   H5    S    
Cu1   O5    S    
C28   H37   S    
C27   C34   S    
C13   C19   S    
C26   H30   S    
C23   C30   A    
C16   H34   S    
C21   H19   S    
Cu1   O1    S    
C22   H20   S    
Cu2   O4    S    
C7    O8    A    
C12   C21   S    
C6    O5    A    
C10   H3    S    
C25   H28   S    
C9    C14   S    
C18   H8    S    
C21   H17   S    
C19   H13   S    
C31   C32   A    
C12   C15   S    
C24   H24   S    
C12   C20   S    
C17   H41   S    
C25   H29   S    
C9    C11   S    
C5    C14   S    
C5    O4    A    
Cu1   O7    S    
C8    C10   S    
C8    H1    S    
C4    C17   S    
C3    C4    A    
C18   H9    S    
C27   H35   S    
Cu2   O8    S    
C25   C30   S    
C24   H26   S    
C16   H40   S    
C22   H22   S    
C1    O1    A    
C26   H32   S    
C20   H16   S    
C18   H7    S    
C30   C32   A    
Cu1   O3    S    
Cu2   O2    S    
C17   H42   S    
C11   H4    S    
C3    C16   S    
C4    N2    A    
C12   C13   S    
C9    H12   S    
C29   C31   A    
C8    H44   S    
C22   C23   S    
C2    N1    A    
C2    C28   S    
C34   N2    A    
C28   H39   S    
C16   H23   S    
C27   H36   S    
