data_mof_unit_60370.cif
_audit_creation_date              2013-03-05T16:57:49-0500
_audit_creation_method            fapswitch 2.2
_symmetry_space_group_name_H-M    P1
_symmetry_Int_Tables_number       1
_space_group_crystal_system       triclinic
_cell_length_a                    16.819859
_cell_length_b                    16.512272
_cell_length_c                    17.444629
_cell_angle_alpha                 91.256993
_cell_angle_beta                  89.20084
_cell_angle_gamma                 83.81028
_cell_volume                      4814.91578701

loop_
_atom_site_label
_atom_site_type_symbol
_atom_site_description
_atom_site_fract_x
_atom_site_fract_y
_atom_site_fract_z
_atom_type_partial_charge
O1    O     O_R   0.566570 0.500000 0.389130 -0.554349
O2    O     O_R   0.433430 0.500000 0.610870 -0.552684
O3    O     O_R   0.433480 0.499990 0.389100 -0.597713
O4    O     O_R   0.566520 0.500010 0.610900 -0.604422
C1    C     C_R   0.500863 0.500444 0.352625 1.011331
C2    C     C_R   0.499604 0.497253 0.646785 0.921929
O5    O     O_R   0.574410 0.384200 0.500000 -0.598798
O6    O     O_R   0.425590 0.615800 0.500000 -0.592600
O7    O     O_R   0.441320 0.384200 0.499980 -0.556225
O8    O     O_R   0.558680 0.615800 0.500020 -0.553483
C3    C     C_R   0.512184 0.345975 0.501167 0.956272
C4    C     C_R   0.487937 0.654026 0.501630 0.954950
Zn1   Zn    Zn3+2 0.588860 0.500000 0.500020 1.096015
Zn2   Zn    Zn3+2 0.411140 0.500000 0.499980 1.102886
C5    C     C_R   0.522755 0.260879 0.521554 -0.133792
C6    C     C_R   0.477887 0.739805 0.523185 -0.145544
C7    C     C_R   0.485242 0.201051 0.481537 0.314931
C8    C     C_R   0.510815 0.798566 0.479050 0.304429
C9    C     C_R   0.489746 0.122828 0.511113 -0.163216
C10   C     C_R   0.508227 0.877952 0.509016 -0.158316
C11   C     C_R   0.531929 0.104032 0.578610 0.051533
C12   C     C_R   0.472955 0.898688 0.581356 0.045850
C13   C     C_R   0.571844 0.162829 0.615807 0.011589
C14   C     C_R   0.438240 0.840588 0.623387 -0.001895
C15   C     C_R   0.566946 0.241052 0.587579 -0.175966
C16   C     C_R   0.441421 0.761278 0.594694 -0.161219
C17   C     C_2   0.537546 0.020541 0.606861 0.141719
C18   C     C_2   0.469971 0.982996 0.610675 0.140414
H1    H     H_    0.418023 0.715753 0.629749 0.203327
H2    H     H_    0.595687 0.287081 0.618760 0.165659
H3    H     H_    0.605355 0.148523 0.667254 0.181354
H4    H     H_    0.410590 0.856205 0.678972 0.189262
H5    H     H_    0.532468 0.924255 0.475444 0.179407
H6    H     H_    0.461991 0.075724 0.480556 0.178060
C19   C     C_R   0.565525 0.498104 0.849426 0.408710
C20   C     C_R   0.444359 0.441337 0.154380 0.417670
C21   C     C_R   0.558250 0.515590 0.772512 -0.227435
C22   C     C_R   0.439649 0.462326 0.231735 -0.188105
H7    H     H_    0.597934 0.555296 0.746882 0.242523
H8    H     H_    0.385305 0.454123 0.263072 0.247314
C23   C     C_R   0.500179 0.482807 0.728671 -0.266201
C24   C     C_R   0.504611 0.491490 0.268829 -0.261261
C25   C     C_R   0.449120 0.430125 0.761914 0.216321
C26   C     C_R   0.575116 0.502535 0.226384 0.235973
C27   C     C_R   0.456637 0.411532 0.839820 0.194210
C28   C     C_R   0.580031 0.480795 0.148088 0.193439
C29   C     C_R   0.514682 0.446558 0.883058 -0.165344
C30   C     C_R   0.514537 0.449997 0.112917 -0.161467
C31   C     C_1   0.515312 0.439349 0.963828 0.204877
C32   C     C_1   0.514999 0.440250 0.032001 0.204053
C33   C     C_R   0.838951 0.445368 0.451228 0.313239
C34   C     C_R   0.161059 0.553199 0.550437 0.313567
C35   C     C_R   0.754389 0.446391 0.452801 0.404922
C36   C     C_R   0.245702 0.551725 0.549060 0.422506
N1    N     N_R   0.707230 0.500020 0.500030 -0.189291
N2    N     N_R   0.292770 0.499980 0.499970 -0.185275
C37   C     C_R   0.743128 0.552626 0.547057 0.472400
C38   C     C_R   0.256330 0.448965 0.451715 0.462404
C39   C     C_R   0.826870 0.553009 0.547014 -0.279662
C40   C     C_R   0.172550 0.448960 0.451600 -0.281302
H9    H     H_    0.853523 0.595159 0.584763 0.240650
H10   H     H_    0.145673 0.407995 0.412794 0.241114
C41   C     C_R   0.875926 0.499421 0.498980 -0.111520
C42   C     C_R   0.123746 0.501151 0.500963 -0.109069
C43   C     C_1   0.963443 0.500163 0.499692 0.174214
C44   C     C_1   0.036206 0.500593 0.500231 0.175226
N3    N     N_R   0.445986 0.217587 0.409977 0.239393
O9    O     O_R   0.474397 0.266357 0.361464 -0.324507
O10   O     O_R   0.388399 0.175876 0.388569 -0.265206
N4    N     N_R   0.544578 0.779291 0.403808 0.230075
O11   O     O_R   0.599233 0.821075 0.376098 -0.269497
O12   O     O_R   0.513872 0.727231 0.359052 -0.343209
Cl1   Cl    Cl    0.898210 0.376256 0.389680 -0.392338
Cl2   Cl    Cl    0.102084 0.620200 0.614120 -0.404880
Cl3   Cl    Cl    0.710091 0.376651 0.393845 -0.398535
Cl4   Cl    Cl    0.290042 0.617627 0.611766 -0.458710
Cl5   Cl    Cl    0.686573 0.621165 0.610068 -0.496890
Cl6   Cl    Cl    0.312013 0.381209 0.387919 -0.446172
N5    N     N_R   0.392897 0.028674 0.625418 0.218305
O13   O     O_R   0.327834 0.000034 0.602697 -0.294202
O14   O     O_R   0.386942 0.095506 0.667073 -0.274489
N6    N     N_R   0.615538 0.975037 0.611999 0.217980
O15   O     O_R   0.678002 0.002503 0.581306 -0.299428
O16   O     O_R   0.625446 0.909569 0.652550 -0.295484
Cl7   Cl    Cl    0.637907 0.543807 0.902548 -0.407949
Cl8   Cl    Cl    0.360556 0.405459 0.110676 -0.396437
N7    N     N_R   0.394281 0.390526 0.715775 0.238649
O17   O     O_R   0.324754 0.428564 0.700336 -0.269374
O18   O     O_R   0.408676 0.313031 0.699533 -0.324388
N8    N     N_R   0.641624 0.535465 0.261857 0.251737
O19   O     O_R   0.713494 0.498037 0.253802 -0.246598
O20   O     O_R   0.631811 0.607100 0.295266 -0.267269
N9    N     N_R   0.404983 0.358297 0.874877 0.254226
O21   O     O_R   0.328948 0.365159 0.860217 -0.219285
O22   O     O_R   0.433786 0.302457 0.921488 -0.284400
N10   N     N_R   0.650097 0.493334 0.103594 0.258775
O23   O     O_R   0.677615 0.564036 0.104728 -0.222467
O24   O     O_R   0.685894 0.434389 0.060927 -0.267521

loop_
_geom_bond_atom_site_label_1
_geom_bond_atom_site_label_2
_geom_bond_distance
_ccdc_geom_bond_type
C8    N4    1.438230 S    
Zn2   N2    1.991007 S    
N7    O17   1.300926 A    
C41   C43   1.473622 S    
N9    O21   1.301144 A    
C1    C24   1.465804 S    
C19   C29   1.401738 A    
C29   C31   1.416712 S    
O2    C2    1.281891 A    
O5    C3    1.279329 A    
O1    C1    1.282622 A    
C9    C11   1.406409 A    
C14   C16   1.387021 A    
C22   C24   1.401451 A    
C34   Cl2   1.766582 S    
C5    C15   1.405078 A    
C38   C40   1.409207 A    
C40   H10   1.083787 S    
O4    Zn1   1.965260 S    
C18   N5    1.444620 S    
C3    C5    1.449921 S    
C4    C6    1.448930 S    
C26   C28   1.403629 A    
C2    C23   1.453407 S    
N10   O24   1.301231 A    
N4    O11   1.301464 A    
C27   C29   1.407033 A    
C11   C17   1.468127 S    
C27   N9    1.440490 S    
N9    O22   1.301370 A    
C12   C18   1.468028 S    
C23   C25   1.414177 A    
C35   Cl3   1.758832 S    
C24   C26   1.419815 A    
C34   C36   1.421115 A    
C28   C30   1.405180 A    
C35   N1    1.374928 A    
C6    C16   1.403707 A    
C36   N2    1.375957 A    
C39   H9    1.083712 S    
C7    N3    1.438037 S    
N3    O9    1.301803 A    
C37   Cl5   1.754433 S    
C33   C41   1.406729 A    
O4    C2    1.285841 A    
C34   C42   1.405788 A    
N5    O14   1.301863 A    
C20   Cl8   1.763321 S    
C9    H6    1.083566 S    
C33   C35   1.420466 A    
C42   C44   1.473676 S    
O7    Zn2   1.924730 S    
C14   H4    1.083341 S    
O7    C3    1.287838 A    
N8    O20   1.300395 A    
O6    C4    1.281299 A    
N10   O23   1.301280 A    
C30   C32   1.416997 S    
C25   C27   1.404268 A    
O3    Zn2   1.965262 S    
O8    C4    1.285052 A    
C36   Cl4   1.755710 S    
C10   H5    1.083524 S    
C10   C12   1.406428 A    
C31   C32   1.188952 T    
N6    O16   1.301841 A    
N1    C37   1.373968 A    
C12   C14   1.392349 A    
O1    Zn1   1.975560 S    
C26   N8    1.437260 S    
N3    O10   1.301804 A    
C15   H2    1.084273 S    
C5    C7    1.406345 A    
O6    Zn2   1.953322 S    
C19   C21   1.382952 A    
C17   N6    1.444700 S    
C33   Cl1   1.766260 S    
O3    C1    1.292817 A    
O8    Zn1   1.924727 S    
C39   C41   1.398800 A    
C40   C42   1.397573 A    
C25   N7    1.433123 S    
C11   C13   1.392641 A    
C21   H7    1.083604 S    
C22   H8    1.081063 S    
C19   Cl7   1.763346 S    
N8    O19   1.301273 A    
C20   C22   1.384899 A    
C7    C9    1.396236 A    
N2    C38   1.374217 A    
C20   C30   1.397874 A    
C8    C10   1.396585 A    
C13   C15   1.386976 A    
C21   C23   1.395932 A    
O2    Zn2   1.975558 S    
C37   C39   1.409215 A    
C38   Cl6   1.748646 S    
N5    O13   1.301474 A    
O5    Zn1   1.953323 S    
C28   N10   1.438176 S    
C16   H1    1.082206 S    
C6    C8    1.406318 A    
C43   C44   1.224808 T    
C17   C18   1.353621 D    
N7    O18   1.300655 A    
N4    O12   1.301076 A    
N6    O15   1.301509 A    
C13   H3    1.083365 S    
Zn1   N1    1.991003 S    
