data_mof_unit_57699.cif
_audit_creation_date              2012-12-10T17:48:56-0500
_audit_creation_method            fapswitch 2.2
_symmetry_space_group_name_H-M    P1
_symmetry_Int_Tables_number       1
_space_group_crystal_system       triclinic
_cell_length_a                    10.726159
_cell_length_b                    14.710119
_cell_length_c                    14.655059
_cell_angle_alpha                 65.066163
_cell_angle_beta                  103.802863
_cell_angle_gamma                 102.970836
_cell_volume                      2016.00276093

loop_
_atom_site_label
_atom_site_type_symbol
_atom_type_description
_atom_site_fract_x
_atom_site_fract_y
_atom_site_fract_z
_atom_type_partial_charge
C1    C     C_R   0.479231 0.119626 0.311906 0.821405
C2    C     C_R   0.512775 0.361430 0.080539 0.092643
C3    C     C_R   0.508211 0.323908 0.005156 0.144777
C4    C     C_R   0.260199 0.000285 0.500143 0.753059
C5    C     C_R   0.536363 0.467510 0.055901 0.071847
C6    C     C_R   0.539856 0.535691 0.952899 0.078150
C7    C     C_R   0.537360 0.495199 0.879979 -0.223493
C8    C     C_R   0.523035 0.391336 0.906195 -0.218921
C9    C     C_R   0.559125 0.507306 0.131609 -0.221901
C10   C     C_R   0.571267 0.610051 0.106583 -0.222771
C11   C     C_R   0.561045 0.678701 0.004693 0.080116
C12   C     C_3   0.878173 0.000353 0.499802 0.044701
C13   C     C_R   0.545767 0.641702 0.926846 0.083967
C14   C     C_R   0.562127 0.783098 0.979623 -0.031179
C15   C     C_R   0.543826 0.850860 0.876224 -0.032930
C16   C     C_R   0.518972 0.880524 0.688546 0.786912
C17   C     C_R   0.531121 0.711052 0.825110 -0.264589
C18   C     C_R   0.719071 0.285941 0.667600 -0.292283
C19   C     C_R   0.683849 0.203675 0.638753 0.097020
C20   C     C_R   0.518470 0.285261 0.508713 -0.001722
C21   C     C_R   0.549746 0.371964 0.534089 -0.020749
C22   C     C_R   0.652423 0.370108 0.615846 0.152803
C23   C     C_3   0.921434 0.898474 0.580087 -0.398454
C24   C     C_R   0.482855 0.459109 0.482694 0.078455
C25   C     C_R   0.520391 0.542675 0.514611 0.078474
C26   C     C_R   0.623143 0.536123 0.596890 -0.244372
C27   C     C_R   0.687523 0.451715 0.646073 -0.201690
C28   C     C_R   0.740047 0.999741 0.500289 0.792394
C29   C     C_R   0.379416 0.465364 0.400924 -0.242494
C30   C     C_R   0.312752 0.548572 0.353602 -0.196648
C31   C     C_R   0.347106 0.629714 0.384493 0.174307
C32   C     C_R   0.452602 0.629334 0.463935 -0.019451
C33   C     C_R   0.276327 0.711644 0.336179 -0.318043
C34   C     C_3   0.965391 0.086819 0.529918 -0.372968
C35   C     C_R   0.311288 0.793757 0.365268 0.050701
C36   C     C_R   0.484740 0.716491 0.488544 -0.003107
C37   C     C_3   0.043395 0.013983 0.393852 -0.476517
C38   C     C_3   0.898258 0.013049 0.392660 -0.132844
C39   C     C_3   0.065822 0.897160 0.580384 -0.100859
C40   C     C_3   0.107357 0.089660 0.525825 -0.342395
C41   C     C_3   0.122597 0.000040 0.501300 0.099749
C42   C     C_2   0.145166 0.869492 0.686416 0.309980
C43   C     C_2   0.531450 0.958135 0.850222 0.383320
C44   C     C_R   0.573187 0.820262 0.061444 0.145595
C45   C     C_R   0.478264 0.187319 0.204109 -0.054276
C46   C     C_R   0.693718 0.832755 0.121769 -0.113925
C47   C     C_R   0.702980 0.864845 0.200686 -0.114390
C48   C     C_R   0.592369 0.885298 0.219195 -0.060091
C49   C     C_R   0.472533 0.874155 0.158422 -0.143532
C50   C     C_R   0.462577 0.841170 0.080161 -0.129124
C51   C     C_2   0.849939 0.106883 0.307782 0.342004
C52   C     C_R   0.530650 0.814082 0.798579 -0.158505
C53   C     C_R   0.489095 0.219074 0.029918 -0.160324
C54   C     C_R   0.475509 0.151146 0.129205 -0.113086
C55   C     C_R   0.491119 0.291365 0.178113 -0.257142
Cu1   Cu    Cu3+1 0.465900 0.918260 0.475680 0.920509
Cu2   Cu    Cu3+1 0.534100 0.081740 0.524320 0.934981
H1    H     H_    0.052476 0.951769 0.372535 0.166857
H2    H     H_    0.084586 0.085747 0.336051 0.155870
H3    H     H_    0.549690 0.541528 0.802146 0.141596
H4    H     H_    0.571044 0.461071 0.212096 0.145750
H5    H     H_    0.765564 0.450149 0.709076 0.146386
H6    H     H_    0.565459 0.724106 0.545874 0.120472
H7    H     H_    0.257319 0.857353 0.327501 0.121895
H8    H     H_    0.233018 0.549316 0.291921 0.142462
H9    H     H_    0.797674 0.283585 0.730379 0.150313
H10   H     H_    0.734711 0.138452 0.679055 0.140971
H11   H     H_    0.440831 0.279307 0.448751 0.119850
H12   H     H_    0.956352 0.074468 0.608595 0.198216
H13   H     H_    0.655848 0.594929 0.626117 0.126899
H14   H     H_    0.346537 0.406554 0.371724 0.128576
H15   H     H_    0.194882 0.712524 0.275714 0.136721
H16   H     H_    0.842267 0.946071 0.377168 0.152902
H17   H     H_    0.068688 0.836063 0.555235 0.101427
H18   H     H_    0.860819 0.834226 0.561930 0.140193
H19   H     H_    0.168037 0.087360 0.599567 0.215684
H20   H     H_    0.141044 0.162911 0.465944 0.150210
H21   H     H_    0.934456 0.161728 0.478489 0.158707
H22   H     H_    0.209726 0.813006 0.713025 0.066942
H23   H     H_    0.904520 0.887002 0.656523 0.194404
H24   H     H_    0.453718 0.993347 0.791661 0.103463
H25   H     H_    0.779787 0.816718 0.108160 0.126965
H26   H     H_    0.795874 0.873681 0.247432 0.122904
H27   H     H_    0.599491 0.910044 0.280326 0.172404
H28   H     H_    0.387136 0.891130 0.171731 0.124433
H29   H     H_    0.369013 0.831835 0.034207 0.131108
H30   H     H_    0.893393 0.181471 0.306309 0.079685
H31   H     H_    0.521962 0.363654 0.848107 0.157373
H32   H     H_    0.516071 0.685957 0.763789 0.159440
H33   H     H_    0.585665 0.634410 0.168915 0.159415
H34   H     H_    0.486605 0.189706 0.972875 0.155223
H35   H     H_    0.465235 0.070856 0.147730 0.156676
H36   H     H_    0.482353 0.315811 0.235658 0.143304
N1    N     N_R   0.585360 0.204570 0.560800 -0.184922
N2    N     N_R   0.414550 0.795430 0.439160 -0.178939
O1    O     O_R   0.455060 0.022100 0.338110 -0.590629
O2    O     O_2   0.608450 0.008197 0.893206 -0.542731
O3    O     O_2   0.762754 0.099717 0.239342 -0.556820
O4    O     O_R   0.512640 0.160150 0.379180 -0.588388
O5    O     O_R   0.288900 0.930980 0.479450 -0.595809
O6    O     O_R   0.346480 0.069030 0.520520 -0.590208
O7    O     O_R   0.487360 0.839850 0.620820 -0.582704
O8    O     O_R   0.544940 0.977900 0.661890 -0.590239
O9    O     O_R   0.653520 0.930970 0.479480 -0.593463
O10   O     O_R   0.711100 0.069020 0.520550 -0.588885
O11   O     O_2   0.140887 0.911485 0.741661 -0.565056

loop_
_geom_bond_atom_site_label_1
_geom_bond_atom_site_label_2
_ccdc_geom_bond_type
Cu1   N2    S    
Cu2   O10   S    
C11   C13   A    
C55   H36   S    
C1    O4    A    
C7    C8    A    
C39   C41   S    
C53   C54   A    
C54   H35   S    
C12   C23   S    
C26   C27   A    
C37   C38   S    
C12   C28   S    
C34   C40   S    
C32   C36   A    
C2    C55   A    
C30   C31   A    
C11   C14   A    
C4    C41   S    
Cu2   O4    S    
Cu1   Cu2   S    
C18   C19   A    
C39   H17   S    
C24   C29   A    
C33   H15   S    
C46   H25   S    
C47   C48   A    
C53   H34   S    
C31   C33   A    
C19   H10   S    
C35   H7    S    
C47   H26   S    
C23   H23   S    
C36   H6    S    
C9    C10   A    
C37   H1    S    
C51   O3    D    
C42   H22   S    
C21   C22   A    
C12   C38   S    
C17   C52   A    
C44   C46   A    
C39   C42   S    
Cu2   O8    S    
C49   H28   S    
C17   H32   S    
C24   C25   A    
Cu1   O9    S    
C16   C52   S    
C3    C8    A    
C51   H30   S    
C38   C51   S    
C25   C26   A    
C48   H27   S    
C8    H31   S    
C5    C9    A    
C29   C30   A    
C27   H5    S    
C28   O9    A    
C16   O8    A    
C31   C32   A    
C28   O10   A    
C4    O6    A    
C15   C52   A    
C42   O11   D    
C34   H12   S    
C10   H33   S    
C37   H2    S    
C19   N1    A    
C16   O7    A    
C40   C41   S    
C45   C54   A    
C22   C27   A    
C4    O5    A    
C26   H13   S    
C9    H4    S    
C2    C5    A    
Cu1   O5    S    
C12   C34   S    
C7    H3    S    
C14   C44   S    
C44   C50   A    
Cu1   O1    S    
C20   N1    A    
C46   C47   A    
C48   C49   A    
C43   H24   S    
C18   C22   A    
C20   H11   S    
C43   O2    D    
C23   H18   S    
C6    C7    A    
C35   N2    A    
C18   H9    S    
Cu2   O6    S    
C13   C17   A    
Cu2   N1    S    
C2    C3    A    
C15   C43   S    
C34   H21   S    
C6    C13   A    
C3    C53   A    
C36   N2    A    
C1    C45   S    
C5    C6    A    
C25   C32   A    
C1    O1    A    
C23   C39   S    
C33   C35   A    
C40   H20   S    
C37   C41   S    
C30   H8    S    
C10   C11   A    
C50   H29   S    
Cu1   O7    S    
C40   H19   S    
C20   C21   A    
C45   C55   A    
C49   C50   A    
C21   C24   A    
C14   C15   A    
C29   H14   S    
C38   H16   S    
