data_mof_unit_56560.cif
_audit_creation_date              2013-03-05T15:49:19-0500
_audit_creation_method            fapswitch 2.2
_symmetry_space_group_name_H-M    P1
_symmetry_Int_Tables_number       1
_space_group_crystal_system       triclinic
_cell_length_a                    20.72027
_cell_length_b                    22.800222
_cell_length_c                    6.947173
_cell_angle_alpha                 90.591115
_cell_angle_beta                  86.61575
_cell_angle_gamma                 90.1179
_cell_volume                      3276.12903554

loop_
_atom_site_label
_atom_site_type_symbol
_atom_site_description
_atom_site_fract_x
_atom_site_fract_y
_atom_site_fract_z
_atom_type_partial_charge
O1    O     O_R   0.387100 0.552640 0.378490 -0.555014
O2    O     O_R   0.612900 0.052640 0.621510 -0.590917
O3    O     O_R   0.249610 0.559600 0.072250 -0.596852
O4    O     O_R   0.750390 0.059600 0.927750 -0.578515
O5    O     O_R   0.249120 0.447360 0.902040 -0.594317
O6    O     O_R   0.750880 0.947360 0.097960 -0.596501
C1    C     C_R   0.228032 0.574156 0.245353 1.025563
C2    C     C_R   0.774446 0.072367 0.756771 1.102816
O7    O     O_R   0.386610 0.559560 0.048860 -0.550806
O8    O     O_R   0.613390 0.059560 0.951140 -0.550021
O9    O     O_R   0.387100 0.447320 0.878470 -0.568113
O10   O     O_R   0.612900 0.947320 0.121530 -0.569456
C3    C     C_R   0.406001 0.576683 0.215797 1.033203
C4    C     C_R   0.592077 0.075055 0.786586 1.103070
O11   O     O_R   0.249120 0.552680 0.402050 -0.569546
O12   O     O_R   0.750880 0.052680 0.597950 -0.577995
O13   O     O_3   0.318110 0.463180 0.223790 -0.291366
O14   O     O_3   0.681890 0.963180 0.776210 -0.292507
V1    V     V_3+5 0.318110 0.506830 0.948930 1.291983
V2    V     V_3+5 0.681890 0.006830 0.051070 1.286603
O15   O     O_R   0.386610 0.440400 0.548840 -0.604200
O16   O     O_R   0.613390 0.940400 0.451160 -0.601512
C5    C     C_R   0.406786 0.424735 0.713163 0.964788
C6    C     C_R   0.592054 0.925660 0.285608 0.955614
O17   O     O_R   0.249610 0.440440 0.572240 -0.608798
O18   O     O_R   0.750390 0.940440 0.427760 -0.607347
C7    C     C_R   0.226289 0.427085 0.744658 0.971108
C8    C     C_R   0.774416 0.928006 0.254393 0.972073
V3    V     V_3+5 0.318110 0.493170 0.448930 1.264760
V4    V     V_3+5 0.681890 0.993170 0.551070 1.246907
O19   O     O_3   0.318110 0.536820 0.723940 -0.213173
O20   O     O_3   0.681890 0.036820 0.276060 -0.243003
C9    C     C_R   0.173670 0.382544 0.761546 -0.237722
C10   C     C_R   0.830006 0.886612 0.234247 -0.241969
C11   C     C_R   0.167005 0.342937 0.607270 -0.158823
C12   C     C_R   0.835803 0.843008 0.373870 -0.154040
C13   C     C_R   0.120209 0.298925 0.617243 -0.075192
C14   C     C_R   0.886647 0.802696 0.359677 -0.059480
C15   C     C_R   0.079053 0.292637 0.782441 -0.000615
C16   C     C_R   0.933700 0.805114 0.206002 0.002478
C17   C     C_R   0.085186 0.331447 0.940102 0.343185
C18   C     C_R   0.929099 0.849134 0.066413 0.323150
C19   C     C_R   0.131166 0.377344 0.928786 0.079002
C20   C     C_R   0.877917 0.889911 0.079994 0.089366
C21   C     C_R   0.887689 0.201900 0.849881 0.178365
C22   C     C_R   0.129623 0.713956 0.196719 0.206048
C23   C     C_R   0.840591 0.158000 0.886244 0.207434
C24   C     C_R   0.180649 0.672830 0.171246 0.161807
C25   C     C_R   0.871401 0.113269 0.575148 -0.129518
C26   C     C_R   0.121179 0.605860 0.386864 -0.134183
C27   C     C_R   0.921975 0.153527 0.548898 -0.085362
C28   C     C_R   0.070242 0.645635 0.407838 -0.127434
C29   C     C_R   0.930851 0.197687 0.685854 0.039188
C30   C     C_R   0.072929 0.699058 0.310223 0.032161
C31   C     C_2   0.029298 0.245657 0.791273 -0.119568
C32   C     C_2   0.987843 0.762087 0.186404 -0.123315
C33   C     C_2   0.985827 0.238890 0.656542 -0.134368
C34   C     C_2   0.016318 0.738777 0.336880 -0.126888
C35   C     C_R   0.829437 0.114948 0.741662 -0.218011
C36   C     C_R   0.175859 0.618216 0.265834 -0.214176
H1    H     H_    0.198996 0.345241 0.478515 0.168067
H2    H     H_    0.800095 0.839385 0.493505 0.157141
H3    H     H_    0.865690 0.079883 0.465374 0.155310
H4    H     H_    0.117355 0.564611 0.462822 0.155946
H5    H     H_    0.989098 0.265038 0.527227 0.228795
H6    H     H_    0.996558 0.746680 0.482646 0.190353
H7    H     H_    0.024210 0.218991 0.919728 0.191075
H8    H     H_    0.007633 0.751431 0.042078 0.171792
H9    H     H_    0.117448 0.268468 0.497668 0.191714
H10   H     H_    0.888251 0.768930 0.467603 0.150494
H11   H     H_    0.954245 0.150284 0.420726 0.156916
H12   H     H_    0.027971 0.634318 0.499305 0.151092
C37   C     C_R   0.571236 0.361535 0.611769 -0.014314
C38   C     C_R   0.426576 0.862714 0.382000 0.006744
H13   H     H_    0.528802 0.446435 0.595991 0.178860
H14   H     H_    0.468348 0.948510 0.389404 0.172659
H15   H     H_    0.617806 0.378687 0.560764 0.188002
H16   H     H_    0.380196 0.879567 0.436764 0.190018
C39   C     C_R   0.460027 0.382289 0.705449 -0.134971
C40   C     C_R   0.537975 0.883634 0.288039 -0.133840
C41   C     C_R   0.475067 0.097165 0.837141 0.207573
C42   C     C_R   0.520660 0.599622 0.128851 0.239181
C43   C     C_R   0.421522 0.135123 0.844669 0.310400
C44   C     C_R   0.571578 0.639215 0.087900 0.301412
C45   C     C_R   0.430323 0.194663 0.804546 -0.290001
C46   C     C_R   0.562693 0.698795 0.130273 -0.286291
C47   C     C_R   0.491858 0.218943 0.758135 0.046046
C48   C     C_R   0.505140 0.720667 0.223072 0.056671
C49   C     C_R   0.546607 0.180408 0.747770 -0.105074
C50   C     C_R   0.454059 0.680033 0.272335 -0.087278
C51   C     C_R   0.500216 0.280657 0.721159 0.121891
C52   C     C_R   0.497265 0.781997 0.267802 0.120050
C53   C     C_R   0.562131 0.301720 0.655036 -0.099702
C54   C     C_R   0.436611 0.802221 0.347974 -0.087357
C55   C     C_R   0.614997 0.263594 0.639100 0.225778
C56   C     C_R   0.387925 0.761907 0.404570 0.232301
C57   C     C_R   0.607896 0.204846 0.693405 0.231101
C58   C     C_R   0.398345 0.701332 0.379703 0.171740
C59   C     C_R   0.449484 0.322747 0.748702 -0.201596
C60   C     C_R   0.548063 0.824099 0.241196 -0.193387
C61   C     C_R   0.520602 0.400941 0.634179 -0.045801
C62   C     C_R   0.476805 0.902659 0.354051 -0.050598
C63   C     C_R   0.537926 0.118844 0.790652 -0.351709
C64   C     C_R   0.460976 0.619437 0.213752 -0.317061
H17   H     H_    0.401439 0.311072 0.802897 0.103555
H18   H     H_    0.596727 0.811936 0.194298 0.104620
H19   H     H_    0.387377 0.221185 0.810080 0.172188
H20   H     H_    0.601813 0.727444 0.084536 0.172429
N1    N     N_R   0.678033 0.285213 0.578212 0.263683
O21   O     O_R   0.691311 0.297906 0.398042 -0.310184
O22   O     O_R   0.723022 0.289438 0.700620 -0.281808
N2    N     N_R   0.330543 0.781880 0.510952 0.265686
O23   O     O_R   0.275876 0.783639 0.428324 -0.307086
O24   O     O_R   0.333834 0.802012 0.686029 -0.323998
N3    N     N_R   0.465025 0.035441 0.865262 0.243571
O25   O     O_R   0.429231 0.005890 0.750823 -0.346032
O26   O     O_R   0.487718 0.009609 0.012944 -0.393255
N4    N     N_R   0.530190 0.538281 0.090704 0.246952
O27   O     O_R   0.563223 0.507078 0.205732 -0.349937
O28   O     O_R   0.511398 0.514979 0.931806 -0.376822
N5    N     N_R   0.357412 0.113832 0.896912 0.263921
O29   O     O_R   0.348402 0.073330 0.026421 -0.281222
O30   O     O_R   0.307156 0.138999 0.830069 -0.352005
N6    N     N_R   0.632467 0.619877 0.997942 0.260535
O31   O     O_R   0.635140 0.575852 0.877084 -0.285992
O32   O     O_R   0.685184 0.649236 0.024762 -0.362664
N7    N     N_R   0.665263 0.172109 0.708601 0.209695
O33   O     O_R   0.703750 0.163974 0.556454 -0.360802
O34   O     O_R   0.687376 0.167532 0.878388 -0.396044
N8    N     N_R   0.360083 0.662808 0.500945 0.238314
O35   O     O_R   0.297454 0.663215 0.497137 -0.374702
O36   O     O_R   0.386308 0.640370 0.648983 -0.348596
I1    I     I_    0.793066 0.157589 0.168051 -0.104208
I2    I     I_    0.267044 0.694604 0.002349 -0.100490
N9    N     N_R   0.044856 0.324027 0.112756 0.239600
O37   O     O_R   0.047631 0.275641 0.209001 -0.470056
O38   O     O_R   0.004372 0.364810 0.172082 -0.316128
N10   N     N_R   0.978061 0.853934 0.913286 0.245335
O39   O     O_R   0.973921 0.822803 0.756748 -0.423420
O40   O     O_R   0.023240 0.893371 0.922686 -0.293769
I3    I     I_    0.886693 0.279751 0.025436 -0.072938
I4    I     I_    0.142009 0.800644 0.084507 -0.045814
I5    I     I_    0.132391 0.437758 0.167727 -0.302682
I6    I     I_    0.879123 0.957114 0.867487 -0.299621

loop_
_geom_bond_atom_site_label_1
_geom_bond_atom_site_label_2
_geom_bond_distance
_ccdc_geom_bond_type
C21   I3    2.142676 S    
C14   H10   1.082101 S    
C25   H3    1.083207 S    
C13   H9    1.081271 S    
C18   N10   1.430867 S    
C26   H4    1.083629 S    
C38   C54   1.410725 A    
C19   I5    2.147365 S    
C37   C53   1.409463 A    
C57   N7    1.414656 S    
V1    O19   1.712516 S    
N2    O24   1.301094 A    
N9    O37   1.299030 A    
C22   I4    2.141558 S    
C7    C9    1.488834 S    
C56   N2    1.434833 S    
O9    V1    2.008916 S    
C27   H11   1.083505 S    
O10   V2    2.011761 S    
C23   I1    2.139002 S    
C24   I2    2.141996 S    
C11   C13   1.393344 A    
C44   C46   1.397238 A    
O3    C1    1.298126 A    
N1    O22   1.301135 A    
C2    C35   1.495097 S    
C30   C34   1.485124 S    
C46   C48   1.411176 A    
O12   V4    2.007089 S    
N3    O25   1.301017 A    
O13   V3    1.700545 S    
O7    V1    2.008476 S    
C2    O12   1.307589 A    
O7    C3    1.305331 A    
N4    O27   1.300586 A    
C9    C11   1.407223 A    
O5    C7    1.297172 A    
C6    C40   1.472316 S    
C15   C31   1.484352 S    
C48   C52   1.436845 A    
C28   C30   1.399619 A    
C25   C27   1.396719 A    
C56   C58   1.405649 A    
C26   C28   1.393069 A    
O3    V1    2.009553 S    
C44   N6    1.442285 S    
O14   V4    1.713471 S    
V4    O20   2.163304 S    
C10   C12   1.406345 A    
O4    C2    1.296426 A    
C38   C62   1.387887 A    
C24   C36   1.414524 A    
C21   C23   1.410718 A    
C8    C10   1.489907 S    
C53   C55   1.398371 A    
C49   C63   1.446603 A    
H14   C62   1.083631 S    
C17   C19   1.413391 A    
C41   N3    1.435851 S    
C18   C20   1.410123 A    
C12   H2    1.083309 S    
O1    V3    2.011116 S    
N2    O23   1.300630 A    
C41   C43   1.406702 A    
C34   H6    1.083133 S    
O11   V3    2.015592 S    
C45   C47   1.410069 A    
O17   V3    2.016053 S    
C59   H17   1.077221 S    
C22   C24   1.416666 A    
C23   C35   1.425476 A    
C47   C51   1.441213 A    
C9    C19   1.421675 A    
C10   C20   1.419614 A    
C15   C17   1.412376 A    
C55   N1    1.436766 S    
O8    V2    2.020512 S    
C29   C33   1.481130 S    
C1    O11   1.297603 A    
C16   C32   1.491056 S    
C32   H8    1.085980 S    
O15   V3    2.021005 S    
C40   C62   1.390849 A    
C27   C29   1.397496 A    
C41   C63   1.412801 A    
N8    O36   1.301027 A    
N7    O34   1.295647 A    
C28   H12   1.083629 S    
C51   C53   1.421235 A    
C20   I6    2.137769 S    
C22   C30   1.418334 A    
C52   C54   1.420120 A    
C11   H1    1.083082 S    
C43   N5    1.440833 S    
C3    C64   1.497269 S    
C54   C56   1.404971 A    
C50   C64   1.441289 A    
N5    O29   1.301430 A    
N10   O40   1.300631 A    
C43   C45   1.398084 A    
C48   C50   1.433680 A    
O18   V4    2.008983 S    
C42   C44   1.405300 A    
C31   C33   1.344334 D    
O8    C4    1.302026 A    
O16   C6    1.297149 A    
O1    C3    1.300389 A    
C42   N4    1.432691 S    
C58   N8    1.429358 S    
C1    C36   1.476961 S    
C17   N9    1.432086 S    
C52   C60   1.428312 A    
N6    O32   1.301692 A    
V2    O20   1.699591 S    
C39   C59   1.407285 A    
N9    O38   1.301011 A    
N3    O26   1.300441 A    
C42   C64   1.411393 A    
C37   C61   1.383432 A    
O16   V4    2.008965 S    
O18   C8    1.304434 A    
C46   H20   1.075346 S    
C33   H5    1.082025 S    
C16   C18   1.410039 A    
C31   H7    1.084882 S    
C55   C57   1.400418 A    
O5    V1    2.006489 S    
O17   C7    1.303678 A    
O6    V2    2.014989 S    
O10   C6    1.297067 A    
C60   H18   1.077175 S    
C25   C35   1.405764 A    
O2    V4    2.008274 S    
C26   C36   1.400387 A    
O15   C5    1.292639 A    
N8    O35   1.299586 A    
V3    O19   2.145091 S    
C51   C59   1.427992 A    
N1    O21   1.301007 A    
C12   C14   1.397948 A    
C14   C16   1.404083 A    
C4    C63   1.502287 S    
O9    C5    1.297603 A    
O13   V1    2.162379 S    
C32   C34   1.344979 D    
O14   V2    2.144169 S    
O2    C4    1.301117 A    
N4    O28   1.300103 A    
N5    O30   1.301642 A    
N10   O39   1.299488 A    
C21   C29   1.409027 A    
O4    V2    2.016627 S    
O6    C8    1.298823 A    
C13   C15   1.397219 A    
C38   H16   1.082258 S    
C49   C57   1.417964 A    
H13   C61   1.083880 S    
C47   C49   1.434294 A    
C37   H15   1.081926 S    
C39   C61   1.389290 A    
C5    C39   1.467234 S    
C45   H19   1.075495 S    
C50   C58   1.420566 A    
C40   C60   1.405764 A    
N7    O33   1.297930 A    
N6    O31   1.301138 A    
