data_mof_unit_32243.cif
_audit_creation_date              2012-12-10T19:11:33-0500
_audit_creation_method            fapswitch 2.2
_symmetry_space_group_name_H-M    P1
_symmetry_Int_Tables_number       1
_space_group_crystal_system       triclinic
_cell_length_a                    10.644138
_cell_length_b                    9.713583
_cell_length_c                    10.499564
_cell_angle_alpha                 89.601354
_cell_angle_beta                  89.957311
_cell_angle_gamma                 89.931303
_cell_volume                      1085.55110812

loop_
_atom_site_label
_atom_site_type_symbol
_atom_type_description
_atom_site_fract_x
_atom_site_fract_y
_atom_site_fract_z
_atom_type_partial_charge
C1    C     C_R   0.257599 0.500370 0.500580 0.991471
C2    C     C_3   0.928247 0.424740 0.381493 -0.406302
C3    C     C_3   0.379131 0.081151 0.545841 0.572387
C4    C     C_3   0.379142 0.918569 0.545789 0.572704
C5    C     C_3   0.518322 0.082110 0.367141 -0.418869
C6    C     C_3   0.518359 0.919642 0.367163 -0.426362
C7    C     C_3   0.601923 0.080401 0.578012 -0.264062
C8    C     C_3   0.601928 0.918198 0.577988 -0.266678
C9    C     C_R   0.500142 0.500560 0.257188 0.895222
C10   C     C_R   0.742473 0.500235 0.499815 0.908824
C11   C     C_R   0.500141 0.499437 0.742699 0.965050
C12   C     C_3   0.500137 0.501738 0.122385 -0.087276
C13   C     C_3   0.502651 0.632051 0.039345 -0.221400
C14   C     C_3   0.395490 0.436953 0.043097 -0.239442
C15   C     C_3   0.399811 0.565907 0.957904 0.765113
C16   C     C_3   0.500746 0.498147 0.877517 -0.119065
C17   C     C_3   0.605109 0.562781 0.957179 -0.268850
C18   C     C_3   0.498257 0.368203 0.960948 -0.175856
C19   C     C_3   0.602779 0.432910 0.043147 -0.151680
C20   C     C_3   0.070435 0.653106 0.498022 1.097117
C21   C     C_3   0.071207 0.426189 0.622821 1.131215
C22   C     C_3   0.927578 0.651893 0.497535 -0.471036
C23   C     C_3   0.926708 0.429356 0.623050 -0.510204
C24   C     C_3   0.072422 0.425920 0.381244 -0.540956
C25   C     C_3   0.121010 0.501659 0.501222 -0.240972
C26   C     C_3   0.878618 0.501334 0.500358 -0.097445
F1    F     F_    0.296186 0.633889 0.908873 -0.550091
F2    F     F_    0.355305 0.130161 0.667215 -0.557466
F3    F     F_    0.355115 0.867725 0.667077 -0.527250
F4    F     F_    0.112369 0.721235 0.389271 -0.684768
F5    F     F_    0.111009 0.290080 0.624913 -0.618787
F6    F     F_    0.111642 0.725571 0.603575 -0.573342
F7    F     F_    0.116173 0.489135 0.731815 -0.585697
H1    H     H_    0.892570 0.475153 0.293033 0.194850
H2    H     H_    0.592479 0.878941 0.677236 0.207182
H3    H     H_    0.608429 0.120785 0.326818 0.209438
H4    H     H_    0.608480 0.881327 0.326929 0.209417
H5    H     H_    0.503237 0.739448 0.074894 0.169560
H6    H     H_    0.309831 0.387319 0.082561 0.168513
H7    H     H_    0.690267 0.613120 0.917362 0.174533
H8    H     H_    0.496889 0.260967 0.925004 0.203196
H9    H     H_    0.685844 0.378713 0.083326 0.152194
H10   H     H_    0.891767 0.709078 0.581794 0.194909
H11   H     H_    0.891755 0.485136 0.708398 0.180868
H12   H     H_    0.894568 0.316237 0.381618 0.210660
H13   H     H_    0.892243 0.706412 0.410916 0.201760
H14   H     H_    0.889517 0.322393 0.629302 0.205446
H15   H     H_    0.107184 0.477767 0.293157 0.232228
H16   H     H_    0.107719 0.318027 0.379204 0.236879
H17   H     H_    0.300796 0.117931 0.484265 0.058807
H18   H     H_    0.300968 0.883190 0.484040 0.108285
H19   H     H_    0.442768 0.120430 0.302832 0.180674
H20   H     H_    0.442888 0.882309 0.302872 0.188961
H21   H     H_    0.694510 0.118191 0.543348 0.171064
H22   H     H_    0.694489 0.880814 0.543264 0.168873
H23   H     H_    0.592404 0.118212 0.677275 0.201359
N1    N     N_3   0.499750 0.138610 0.497240 -0.119544
N2    N     N_3   0.499750 0.861390 0.497240 -0.124436
O1    O     O_R   0.314910 0.616040 0.499970 -0.542840
O2    O     O_R   0.314910 0.383960 0.499970 -0.589112
O3    O     O_R   0.500080 0.616020 0.313900 -0.637058
O4    O     O_R   0.500080 0.383980 0.313900 -0.643502
O5    O     O_R   0.685320 0.616040 0.499930 -0.648787
O6    O     O_R   0.685320 0.383960 0.499930 -0.643255
O7    O     O_R   0.500150 0.616060 0.686000 -0.569068
O8    O     O_R   0.500150 0.383940 0.686000 -0.588342
Zn1   Zn    Zn3+2 0.500150 0.654960 0.499940 1.005773
Zn2   Zn    Zn3+2 0.500150 0.345040 0.499940 0.975268

loop_
_geom_bond_atom_site_label_1
_geom_bond_atom_site_label_2
_ccdc_geom_bond_type
O8    Zn2   S    
C11   O8    A    
C5    H19   S    
C8    H22   S    
C5    N1    S    
C11   C16   S    
C14   C18   S    
C15   F1    S    
C4    F3    S    
C19   H9    S    
O4    Zn2   S    
C8    H2    S    
O1    Zn1   S    
C10   C26   S    
C13   C15   S    
C6    H4    S    
C7    C8    S    
C2    C26   S    
C20   F4    S    
C12   C13   S    
C21   C25   S    
C1    C25   S    
C21   F5    S    
C2    H1    S    
C13   H5    S    
O3    Zn1   S    
C7    H23   S    
C13   C17   S    
C20   F6    S    
C9    O3    A    
C3    N1    S    
C12   C19   S    
C3    F2    S    
C22   H13   S    
C3    H17   S    
C20   C22   S    
C1    O1    A    
C21   C23   S    
C2    C24   S    
C5    C6    S    
C9    C12   S    
O5    Zn1   S    
C6    H20   S    
C1    O2    A    
C21   F7    S    
C15   C16   S    
C23   H11   S    
C4    H18   S    
C22   C26   S    
C9    O4    A    
C24   H15   S    
C5    H3    S    
O6    Zn2   S    
N2    Zn1   S    
C23   H14   S    
C24   C25   S    
O2    Zn2   S    
C16   C18   S    
C18   C19   S    
C20   C25   S    
C18   H8    S    
C4    N2    S    
C24   H16   S    
C23   C26   S    
C6    N2    S    
C14   C15   S    
C17   C19   S    
C2    H12   S    
N1    Zn2   S    
C7    H21   S    
C8    N2    S    
C14   H6    S    
C11   O7    A    
C7    N1    S    
C22   H10   S    
C10   O6    A    
C3    C4    S    
C10   O5    A    
C12   C14   S    
C16   C17   S    
O7    Zn1   S    
C17   H7    S    
