data_mof_unit_63908.cif
_audit_creation_date              2012-12-10T21:05:39-0500
_audit_creation_method            fapswitch 2.2
_symmetry_space_group_name_H-M    P1
_symmetry_Int_Tables_number       1
_space_group_crystal_system       triclinic
_cell_length_a                    15.884618
_cell_length_b                    15.073251
_cell_length_c                    17.587118
_cell_angle_alpha                 89.998711
_cell_angle_beta                  89.998887
_cell_angle_gamma                 90.124329
_cell_volume                      4210.92359149

loop_
_atom_site_label
_atom_site_type_symbol
_atom_type_description
_atom_site_fract_x
_atom_site_fract_y
_atom_site_fract_z
_atom_type_partial_charge
C1    C     C_R   0.339023 0.499913 0.500139 0.949006
C2    C     C_R   0.660977 0.500086 0.499860 0.949007
C3    C     C_1   0.823630 0.500455 0.497833 -0.083239
C4    C     C_1   0.176371 0.499515 0.502213 -0.083250
C5    C     C_1   0.250983 0.499697 0.501200 -0.094042
C6    C     C_1   0.749017 0.500291 0.498820 -0.094037
C7    C     C_R   0.443164 0.952997 0.454453 -0.110321
C8    C     C_R   0.556836 0.047003 0.545547 -0.110325
C9    C     C_R   0.556827 0.953253 0.545551 -0.123440
C10   C     C_R   0.443173 0.046747 0.454448 -0.123435
C11   C     C_R   0.499990 0.905038 0.500005 0.046614
C12   C     C_R   0.500010 0.094962 0.499995 0.046613
C13   C     C_1   0.499991 0.807167 0.500003 0.122920
C14   C     C_1   0.500009 0.192833 0.499997 0.122928
C15   C     C_R   0.500006 0.500002 0.353569 1.033323
C16   C     C_R   0.499994 0.499999 0.646430 1.033342
C17   C     C_R   0.435130 0.543587 0.846892 0.356684
C18   C     C_R   0.564970 0.456514 0.153115 0.356687
C19   C     C_R   0.435172 0.543614 0.153107 0.355843
C20   C     C_R   0.564964 0.456546 0.846883 0.355844
C21   C     C_R   0.434963 0.543536 0.767653 0.283364
C22   C     C_R   0.565079 0.456493 0.232357 0.283349
C23   C     C_R   0.435009 0.543571 0.232345 0.282479
C24   C     C_R   0.565060 0.456498 0.767645 0.282456
C25   C     C_R   0.500000 0.500003 0.728429 -0.358979
C26   C     C_R   0.500027 0.500013 0.271570 -0.358986
C27   C     C_R   0.500067 0.500093 0.885830 -0.254919
C28   C     C_R   0.500086 0.500084 0.114168 -0.254918
C29   C     C_1   0.500091 0.500112 0.966236 0.226531
C30   C     C_1   0.500100 0.500105 0.033761 0.226535
C31   C     C_R   0.955957 0.581227 0.509183 -0.031498
C32   C     C_R   0.044044 0.418730 0.490907 -0.031498
C33   C     C_R   0.044486 0.580902 0.510734 -0.033203
C34   C     C_R   0.955515 0.419056 0.489355 -0.033199
C35   C     C_R   0.912963 0.500544 0.497022 -0.035841
C36   C     C_R   0.087039 0.499415 0.503055 -0.035849
H1    H     H_    0.398632 0.081640 0.418746 0.161465
H2    H     H_    0.601368 0.918360 0.581254 0.161462
H3    H     H_    0.601382 0.082097 0.581249 0.168950
H4    H     H_    0.398618 0.917903 0.418751 0.168953
N1    N     N_1   0.500000 0.270550 0.500000 -0.069792
N2    N     N_1   0.500000 0.729450 0.500000 -0.069796
O1    O     O_R   0.378020 0.573650 0.500020 -0.583336
O2    O     O_R   0.621980 0.426350 0.499980 -0.583328
O3    O     O_R   0.621980 0.573650 0.499980 -0.630817
O4    O     O_R   0.378020 0.426350 0.500020 -0.630816
O5    O     O_R   0.500000 0.573690 0.389120 -0.589817
O6    O     O_R   0.500000 0.426310 0.610880 -0.589791
O7    O     O_R   0.500000 0.573690 0.610880 -0.588947
O8    O     O_R   0.500000 0.426310 0.389120 -0.588913
Zn1   Zn    Zn3+2 0.500000 0.598370 0.500000 1.064229
Zn2   Zn    Zn3+2 0.500000 0.401630 0.500000 1.064252
Cl1   Cl    Cl    0.353656 0.597768 0.897217 -0.378985
Cl2   Cl    Cl    0.646447 0.402321 0.102804 -0.378997
Cl3   Cl    Cl    0.353712 0.597822 0.102785 -0.378075
Cl4   Cl    Cl    0.646482 0.402421 0.897196 -0.378082
Cl5   Cl    Cl    0.351440 0.595132 0.717862 -0.491025
Cl6   Cl    Cl    0.648556 0.404828 0.282158 -0.491006
Cl7   Cl    Cl    0.351520 0.595233 0.282128 -0.478649
Cl8   Cl    Cl    0.648512 0.404791 0.717843 -0.478673
C37   C     C_2   0.093985 0.664924 0.516458 0.559126
H5    H     H_    0.153219 0.666089 0.547196 0.084668
O9    O     O_2   0.071192 0.732291 0.483936 -0.492251
C38   C     C_2   0.906015 0.335034 0.483644 0.559156
H6    H     H_    0.846786 0.333859 0.452900 0.084646
O10   O     O_2   0.928802 0.267678 0.516186 -0.492234
C39   C     C_2   0.906918 0.663838 0.523839 0.540798
H7    H     H_    0.847623 0.674985 0.494756 0.063284
O11   O     O_2   0.930162 0.717989 0.571059 -0.492130
C40   C     C_2   0.093083 0.336117 0.476263 0.540771
H8    H     H_    0.152385 0.324982 0.505339 0.063304
O12   O     O_2   0.069833 0.281948 0.429060 -0.492151

loop_
_geom_bond_atom_site_label_1
_geom_bond_atom_site_label_2
_ccdc_geom_bond_type
C22   Cl6   S    
C7    C10   A    
C19   C23   A    
C7    H4    S    
C31   C33   A    
C21   Cl5   S    
C29   C30   T    
C8    H3    S    
C15   O5    A    
C8    C12   A    
C27   C29   S    
C11   C13   S    
N1    Zn2   S    
O8    Zn2   S    
C3    C35   S    
N2    Zn1   S    
C20   Cl4   S    
C3    C6    T    
O1    Zn1   S    
C38   H6    S    
O2    Zn2   S    
C34   C38   S    
C33   C36   A    
C38   O10   D    
C4    C36   S    
C16   O7    A    
O4    Zn2   S    
C23   Cl7   S    
C19   C28   A    
C9    C11   A    
C16   O6    A    
C21   C25   A    
C2    C6    S    
C10   C12   A    
C10   H1    S    
C1    C5    S    
C32   C36   A    
C28   C30   S    
C9    H2    S    
C20   C27   A    
C12   C14   S    
C7    C11   A    
O3    Zn1   S    
C14   N1    T    
C2    O3    A    
C37   H5    S    
C31   C35   A    
C1    O4    A    
C15   O8    A    
C40   O12   D    
C31   C39   S    
C39   H7    S    
C17   C27   A    
C17   Cl1   S    
O6    Zn2   S    
C40   H8    S    
C18   C28   A    
C24   C25   A    
C8    C9    A    
C33   C37   S    
C34   C35   A    
C22   C26   A    
C23   C26   A    
C19   Cl3   S    
C16   C25   S    
C37   O9    D    
C18   Cl2   S    
C13   N2    T    
C15   C26   S    
C32   C40   S    
C24   Cl8   S    
O7    Zn1   S    
C32   C34   A    
C18   C22   A    
C1    O1    A    
O5    Zn1   S    
C20   C24   A    
C2    O2    A    
C4    C5    T    
C39   O11   D    
C17   C21   A    
