data_mof_unit_28063.cif
_audit_creation_date              2013-03-05T16:11:20-0500
_audit_creation_method            fapswitch 2.2
_symmetry_space_group_name_H-M    P1
_symmetry_Int_Tables_number       1
_space_group_crystal_system       triclinic
_cell_length_a                    10.505942
_cell_length_b                    9.808553
_cell_length_c                    10.682458
_cell_angle_alpha                 89.40111
_cell_angle_beta                  89.898587
_cell_angle_gamma                 90.045647
_cell_volume                      1100.74465703

loop_
_atom_site_label
_atom_site_type_symbol
_atom_site_description
_atom_site_fract_x
_atom_site_fract_y
_atom_site_fract_z
_atom_type_partial_charge
O1    O     O_R   0.316750 0.614620 0.499990 -0.610485
O2    O     O_R   0.316750 0.385380 0.499990 -0.625361
C1    C     C_R   0.258315 0.499997 0.494468 0.905370
O3    O     O_R   0.499970 0.614670 0.314790 -0.552961
O4    O     O_R   0.499970 0.385330 0.314790 -0.651864
C2    C     C_R   0.498978 0.501102 0.257400 0.887569
Zn1   Zn    Zn3+2 0.499980 0.653120 0.500000 0.977441
Zn2   Zn    Zn3+2 0.499980 0.346880 0.500000 0.924379
O5    O     O_R   0.683220 0.614710 0.500010 -0.613151
O6    O     O_R   0.683220 0.385290 0.500010 -0.630436
O7    O     O_R   0.500010 0.614660 0.685200 -0.650230
O8    O     O_R   0.500010 0.385340 0.685200 -0.624164
C3    C     C_R   0.735489 0.500333 0.469959 0.850625
C4    C     C_R   0.505795 0.499364 0.741896 0.912134
C5    C     C_3   0.576859 0.630532 0.069010 0.147418
C6    C     C_3   0.357349 0.494746 0.068709 0.162368
H1    H     H_    0.674900 0.618674 0.107149 0.113861
H2    H     H_    0.325890 0.388709 0.088734 0.123041
C7    C     C_3   0.583605 0.625553 0.924803 -0.114785
C8    C     C_3   0.362332 0.517753 0.924864 -0.130580
H3    H     H_    0.532629 0.717168 0.888587 0.176566
H4    H     H_    0.337787 0.626956 0.908522 0.173896
H5    H     H_    0.669475 0.374860 0.105376 0.189854
H6    H     H_    0.525447 0.279409 0.114367 0.224823
H7    H     H_    0.655324 0.341190 0.892942 0.188928
H8    H     H_    0.501272 0.276624 0.907916 0.204346
C9    C     C_3   0.568405 0.374318 0.074542 -0.528838
C10   C     C_3   0.497511 0.504800 0.120958 -0.115639
C11   C     C_3   0.504272 0.499632 0.877448 0.033987
C12   C     C_3   0.560893 0.365387 0.932243 -0.372616
C13   C     C_R   0.061894 0.376408 0.450375 -0.183165
C14   C     C_R   0.063827 0.623435 0.441579 -0.115488
H9    H     H_    0.112573 0.280647 0.458693 0.164894
H10   H     H_    0.116339 0.718628 0.439402 0.173175
C15   C     C_R   0.934107 0.375682 0.419150 0.165561
C16   C     C_R   0.934678 0.624966 0.417514 0.138849
C17   C     C_R   0.867272 0.500454 0.427938 -0.171487
C18   C     C_R   0.124750 0.500116 0.467778 -0.116671
C19   C     C_R   0.565087 0.071156 0.589418 -0.094258
C20   C     C_R   0.564520 0.927079 0.589774 -0.078719
H11   H     H_    0.617373 0.125211 0.660616 0.132307
H12   H     H_    0.616049 0.871742 0.661513 0.121253
N1    N     N_R   0.499970 0.857200 0.499970 -0.085666
N2    N     N_R   0.499970 0.142800 0.499970 -0.088012
C21   C     C_R   0.433857 0.929023 0.411312 0.015882
C22   C     C_R   0.433985 0.073066 0.411154 -0.072614
H13   H     H_    0.380832 0.875291 0.340697 0.200291
H14   H     H_    0.381189 0.128611 0.340287 0.136814
N3    N     N_R   0.530495 0.764939 0.109579 0.225109
O9    O     O_R   0.604630 0.841855 0.176127 -0.440528
O10   O     O_R   0.427784 0.818525 0.062119 -0.395376
N4    N     N_R   0.259484 0.582069 0.126883 0.210191
O11   O     O_R   0.140052 0.557692 0.104026 -0.438346
O12   O     O_R   0.285835 0.671242 0.211961 -0.371408
C23   C     C_3   0.720609 0.651345 0.871617 -0.425127
C24   C     C_3   0.821747 0.541660 0.893716 -0.817383
H15   H     H_    0.816800 0.497368 0.989243 0.262506
H16   H     H_    0.814287 0.461068 0.822057 0.238417
H17   H     H_    0.917550 0.588162 0.882091 0.258146
H18   H     H_    0.716264 0.671968 0.769379 0.221163
H19   H     H_    0.756387 0.747354 0.913618 0.223610
C25   C     C_3   0.254335 0.441810 0.852411 -0.383479
C26   C     C_3   0.256643 0.285529 0.852453 -0.815110
H20   H     H_    0.329793 0.246562 0.787357 0.271054
H21   H     H_    0.271401 0.241357 0.947071 0.253171
H22   H     H_    0.163513 0.247804 0.817894 0.239420
H23   H     H_    0.160877 0.473493 0.890597 0.247765
H24   H     H_    0.253172 0.478096 0.753793 0.191166
C27   C     C_3   0.872847 0.242569 0.379134 -0.391372
C28   C     C_3   0.946735 0.172912 0.274052 -0.860424
H25   H     H_    0.962863 0.245375 0.194932 0.276981
H26   H     H_    0.039576 0.133597 0.308095 0.253566
H27   H     H_    0.890963 0.084863 0.239263 0.265843
H28   H     H_    0.866278 0.173188 0.461564 0.207171
H29   H     H_    0.775970 0.259783 0.341037 0.235832
C29   C     C_3   0.875029 0.758004 0.374806 -0.333925
C30   C     C_3   0.868099 0.860844 0.480870 -0.855367
H30   H     H_    0.829975 0.812911 0.567725 0.265293
H31   H     H_    0.964052 0.902962 0.500625 0.240225
H32   H     H_    0.804279 0.945595 0.452601 0.260197
H33   H     H_    0.932827 0.802338 0.297122 0.216361
H34   H     H_    0.779104 0.741608 0.334566 0.246220

loop_
_geom_bond_atom_site_label_1
_geom_bond_atom_site_label_2
_geom_bond_distance
_ccdc_geom_bond_type
C6    C10   1.579062 S    
C23   C24   1.529576 S    
C26   H21   1.106744 S    
H6    C9    1.114302 S    
C19   H11   1.082021 S    
C30   H30   1.109779 S    
C5    C7    1.543281 S    
C11   C12   1.554567 S    
C25   H23   1.108489 S    
C14   C16   1.381486 A    
C16   C17   1.414542 A    
C7    H3    1.112755 S    
O4    C2    1.284889 A    
O7    C4    1.278805 A    
H7    C12   1.103545 S    
C24   H15   1.106023 S    
C5    H1    1.114065 S    
O5    C3    1.292707 A    
C16   C29   1.514436 S    
C20   N1    1.365767 A    
C2    C10   1.457718 S    
C1    C18   1.432390 S    
N4    O12   1.297995 A    
N3    O10   1.301916 A    
C13   H9    1.082975 S    
C28   H25   1.111297 S    
H5    C9    1.112335 S    
C3    C17   1.454693 S    
C6    C8    1.551545 S    
C30   H31   1.110554 S    
C26   H22   1.110887 S    
C23   H18   1.109673 S    
C9    C12   1.525713 S    
O3    Zn1   2.017991 S    
N2    C22   1.365180 A    
C8    C11   1.584779 S    
C21   H13   1.080024 S    
C22   H14   1.082098 S    
Zn2   N2    2.001733 S    
C29   C30   1.526512 S    
O3    C2    1.277144 A    
C29   H34   1.108596 S    
C19   C20   1.413164 A    
C21   C22   1.412836 A    
O1    C1    1.282505 A    
C14   H10   1.084156 S    
Zn1   O7    2.010159 S    
C25   C26   1.533088 S    
Zn2   O8    2.017906 S    
C28   H27   1.110849 S    
C27   H28   1.109256 S    
N1    C21   1.365602 A    
C6    H2    1.109639 S    
O8    C4    1.278881 A    
H8    C12   1.105585 S    
C14   C18   1.394940 A    
C13   C15   1.383935 A    
C4    C11   1.448113 S    
C7    C11   1.577636 S    
N4    O11   1.301157 A    
C30   H32   1.108214 S    
C7    C23   1.565906 S    
Zn1   N1    2.001726 S    
Zn1   O5    1.961922 S    
C15   C17   1.415326 A    
O1    Zn1   1.961399 S    
O2    Zn2   1.961989 S    
C6    N4    1.478918 S    
C8    H4    1.113987 S    
O6    C3    1.291789 A    
C29   H33   1.112081 S    
O4    Zn2   2.010246 S    
C24   H17   1.110922 S    
C19   N2    1.365250 A    
C13   C18   1.395295 A    
C25   H24   1.108546 S    
O2    C1    1.282221 A    
C5    C10   1.583096 S    
C23   H19   1.112775 S    
C20   H12   1.080828 S    
C24   H16   1.108950 S    
C27   H29   1.109197 S    
C5    N3    1.474892 S    
C8    C25   1.566863 S    
C27   C28   1.530773 S    
C26   H20   1.106519 S    
C15   C27   1.520843 S    
Zn2   O6    1.961333 S    
N3    O9    1.301299 A    
C9    C10   1.565904 S    
C28   H26   1.109617 S    
