data_mof_unit_17890.cif
_audit_creation_date              2013-03-05T15:51:40-0500
_audit_creation_method            fapswitch 2.2
_symmetry_space_group_name_H-M    P1
_symmetry_Int_Tables_number       1
_space_group_crystal_system       triclinic
_cell_length_a                    11.538951
_cell_length_b                    11.489054
_cell_length_c                    19.503344
_cell_angle_alpha                 90.506811
_cell_angle_beta                  90.247001
_cell_angle_gamma                 59.980599
_cell_volume                      2238.66124775

loop_
_atom_site_label
_atom_site_type_symbol
_atom_site_description
_atom_site_fract_x
_atom_site_fract_y
_atom_site_fract_z
_atom_type_partial_charge
O1    O     O_R   0.267750 0.231960 0.575440 -0.503579
O2    O     O_R   0.527290 0.186640 0.570530 -0.494103
C1    C     C_R   0.640779 0.117758 0.599089 0.547553
O3    O     O_R   0.728110 0.003450 0.576380 -0.493607
O4    O     O_R   0.682980 0.789190 0.570500 -0.495963
C2    C     C_R   0.612864 0.745364 0.598486 0.539557
O5    O     O_R   0.499300 0.771880 0.575540 -0.500231
O6    O     O_R   0.285350 0.030870 0.569740 -0.487801
C3    C     C_R   0.240476 0.145536 0.598071 0.546054
O7    O     O_R   0.270960 0.227070 0.423890 -0.514030
O8    O     O_R   0.530270 0.182120 0.430040 -0.478008
C4    C     C_R   0.646310 0.115390 0.404041 0.552020
O9    O     O_R   0.731320 0.998570 0.424830 -0.486105
O10   O     O_R   0.685950 0.784660 0.430010 -0.510801
C5    C     C_R   0.618404 0.736876 0.403673 0.536718
O11   O     O_R   0.502510 0.767000 0.423980 -0.482945
O12   O     O_R   0.288320 0.026340 0.429250 -0.486397
C6    C     C_R   0.239948 0.142755 0.402242 0.533882
Cr1   Cr    Cr6+3 0.404720 0.198220 0.499960 1.062817
Cr2   Cr    Cr6+3 0.698290 0.897110 0.500380 1.066314
Cr3   Cr    Cr6+3 0.396970 0.904720 0.499610 1.086193
O13   O     O_3   0.499990 0.000020 0.499980 -0.274920
C7    C     C_1   0.669871 0.647214 0.860282 0.011015
C8    C     C_1   0.655172 0.683378 0.728429 -0.028464
C9    C     C_1   0.663265 0.667077 0.799757 -0.028147
C10   C     C_1   0.641868 0.703219 0.667887 0.008256
C11   C     C_1   0.127167 0.198208 0.859410 0.008642
C12   C     C_1   0.171307 0.170163 0.727667 -0.027344
C13   C     C_1   0.150362 0.181816 0.798976 -0.027856
C14   C     C_1   0.194857 0.161063 0.667265 0.007971
C15   C     C_1   0.678053 0.191059 0.860911 0.010239
C16   C     C_1   0.658620 0.167554 0.728982 -0.028125
C17   C     C_1   0.665286 0.180942 0.800361 -0.027482
C18   C     C_1   0.653364 0.150085 0.668494 0.008161
C19   C     C_R   0.678450 0.640795 0.195941 0.083821
C20   C     C_R   0.656949 0.764253 0.218818 -0.043492
C21   C     C_R   0.642754 0.791408 0.287884 -0.041240
C22   C     C_R   0.689858 0.565478 0.312617 -0.127093
C23   C     C_R   0.704628 0.537690 0.242679 -0.092478
C24   C     C_3   0.547922 0.903557 0.201523 0.081615
C25   C     C_3   0.532812 0.933401 0.278066 -0.219559
C26   C     C_R   0.651445 0.695527 0.334483 0.051864
H1    H     H_    0.702130 0.488853 0.348625 0.125642
H2    H     H_    0.730212 0.438153 0.224720 0.105885
H3    H     H_    0.584392 0.962036 0.172618 0.118482
H4    H     H_    0.563196 0.007377 0.293450 0.089556
H5    H     H_    0.436277 0.952663 0.300207 0.171478
C27   C     C_R   0.056097 0.241627 0.206085 0.012008
C28   C     C_R   0.038204 0.343154 0.251783 -0.033925
C29   C     C_R   0.086593 0.313204 0.317861 0.001828
C30   C     C_R   0.147577 0.082072 0.300839 -0.104837
C31   C     C_R   0.098601 0.112758 0.233528 -0.088369
C32   C     C_3   0.066432 0.455872 0.245938 -0.228505
C33   C     C_3   0.121596 0.422395 0.318455 -0.209143
C34   C     C_R   0.153270 0.180240 0.341758 0.006662
H6    H     H_    0.193409 0.978924 0.317801 0.209259
H7    H     H_    0.105453 0.032191 0.201570 0.188380
H8    H     H_    0.973234 0.555134 0.242228 0.143264
H9    H     H_    0.144001 0.436748 0.207006 0.225235
H10   H     H_    0.231199 0.383276 0.320547 0.203268
H11   H     H_    0.061003 0.503266 0.356183 0.166630
C35   C     C_R   0.686089 0.197429 0.199934 -0.042683
C36   C     C_R   0.794600 0.097368 0.235887 -0.084205
C37   C     C_R   0.789320 0.080942 0.304693 0.008470
C38   C     C_R   0.574168 0.285821 0.310214 0.099010
C39   C     C_R   0.576940 0.298372 0.237820 0.168014
C40   C     C_3   0.877282 0.949803 0.221868 -0.223802
C41   C     C_3   0.872036 0.930290 0.298440 0.111024
C42   C     C_R   0.673673 0.165265 0.341446 -0.045010
H12   H     H_    0.978416 0.920751 0.202121 0.186729
H13   H     H_    0.822650 0.910577 0.191160 0.107748
H14   H     H_    0.819745 0.874858 0.311977 0.123477
O14   O     O_R   0.821590 0.119350 0.952850 -0.503777
O15   O     O_R   0.037230 0.162540 0.957390 -0.480567
C43   C     C_R   0.082361 0.230709 0.928724 0.573558
O16   O     O_R   0.056530 0.344750 0.951370 -0.491340
O17   O     O_R   0.798000 0.560370 0.957490 -0.497435
C44   C     C_R   0.683600 0.605019 0.929664 0.549717
O18   O     O_R   0.596230 0.579400 0.952760 -0.494246
O19   O     O_R   0.639160 0.321170 0.958690 -0.489012
C45   C     C_R   0.708006 0.206330 0.930303 0.548875
O20   O     O_R   0.821370 0.124220 0.104400 -0.533810
O21   O     O_R   0.037020 0.167050 0.097880 -0.473062
C46   C     C_R   0.023785 0.269190 0.133116 0.560067
O22   O     O_R   0.056310 0.349620 0.102920 -0.476007
O23   O     O_R   0.797790 0.564880 0.097980 -0.546284
C47   C     C_R   0.683466 0.611355 0.125219 0.560703
O24   O     O_R   0.596000 0.584270 0.104310 -0.426052
O25   O     O_R   0.638950 0.325690 0.099180 -0.445366
C48   C     C_R   0.709630 0.212429 0.128108 0.558931
Cr4   Cr    Cr6+3 0.926290 0.152010 0.028150 1.062628
Cr5   Cr    Cr6+3 0.921440 0.451830 0.027490 1.051512
Cr6   Cr    Cr6+3 0.626370 0.446880 0.028730 1.122419
O26   O     O_3   0.824700 0.350240 0.028120 -0.310278
N1    N     N_R   0.466852 0.385374 0.351823 -0.195365
O27   O     O_R   0.403695 0.512258 0.336269 -0.000001
O28   O     O_R   0.403696 0.512258 0.336269 -0.000001
N2    N     N_R   0.462149 0.400350 0.202551 0.098861
O29   O     O_R   0.389897 0.366248 0.165357 -0.341298
O30   O     O_R   0.444701 0.520800 0.196989 -0.250640
N3    N     N_R   0.003099 0.875487 0.331191 0.080382
O31   O     O_R   0.099496 0.757539 0.312574 -0.315762
O32   O     O_R   0.016911 0.930889 0.386785 -0.325122
N4    N     N_R   0.429995 0.907475 0.170706 0.084013
O33   O     O_R   0.376244 0.979241 0.116242 -0.310222
O34   O     O_R   0.378070 0.839953 0.196888 -0.300511

loop_
_geom_bond_atom_site_label_1
_geom_bond_atom_site_label_2
_geom_bond_distance
_ccdc_geom_bond_type
C47   O24   1.261026 A    
O17   Cr5   1.919333 S    
Cr6   O26   1.981868 S    
C11   C13   1.201971 T    
N1    O27   1.300445 A    
C4    C42   1.454367 S    
N4    O34   1.302402 A    
C32   H9    1.109993 S    
O4    Cr2   1.920954 S    
C33   H10   1.110981 S    
O17   C44   1.273346 A    
O8    Cr1   1.933141 S    
C29   C33   1.497903 S    
C37   C41   1.505315 S    
C12   C13   1.406344 S    
C8    C10   1.199128 T    
O18   Cr6   2.034709 S    
O4    C2    1.273708 A    
C38   C42   1.423175 A    
C5    O11   1.266509 A    
C30   H6    1.082519 S    
C21   C26   1.398544 A    
C28   C29   1.378559 A    
C43   O16   1.265202 A    
C19   C47   1.411780 S    
C46   O22   1.303880 A    
C19   C20   1.382104 A    
O6    C3    1.271222 A    
C27   C28   1.392775 A    
C25   H4    1.108165 S    
C15   C17   1.201249 T    
C40   H13   1.111493 S    
N3    O32   1.301550 A    
Cr3   O13   1.978408 S    
C21   C25   1.496677 S    
C11   C43   1.427642 S    
O14   C45   1.265736 A    
N4    O33   1.300380 A    
O22   Cr5   2.036517 S    
O12   C6    1.280961 A    
C2    C10   1.422716 S    
C24   H3    1.112628 S    
C36   C40   1.494967 S    
O1    Cr1   2.052383 S    
O15   C43   1.271033 A    
C35   C39   1.417238 A    
C30   C31   1.403392 A    
N3    O31   1.300767 A    
O10   Cr2   1.929775 S    
C20   C24   1.499739 S    
Cr1   O13   1.972073 S    
O1    C3    1.265469 A    
C8    C9    1.401806 S    
O14   Cr4   2.045900 S    
O23   C47   1.266410 A    
C1    C18   1.426427 S    
C32   C33   1.519981 S    
O12   Cr3   1.916654 S    
O20   Cr4   2.046924 S    
C27   C46   1.466246 S    
C16   C18   1.201290 T    
O15   Cr4   1.931599 S    
C19   C23   1.408571 A    
C40   C41   1.518053 S    
C35   C36   1.395515 A    
C24   N4    1.465298 S    
O21   C46   1.296147 A    
C27   C31   1.415740 A    
O7    Cr1   2.042128 S    
C41   H14   1.108239 S    
Cr5   O26   1.978016 S    
O6    Cr3   1.934574 S    
C25   H5    1.109977 S    
C37   C42   1.391226 A    
C41   N3    1.462052 S    
C2    O5    1.268138 A    
C3    C14   1.427585 S    
O16   Cr5   2.053334 S    
C6    C34   1.464644 S    
C24   C25   1.519842 S    
Cr2   O13   1.981603 S    
C38   C39   1.422664 A    
N2    O30   1.300410 A    
C1    O3    1.267177 A    
O24   Cr6   2.048676 S    
C20   C21   1.371832 A    
O9    Cr2   2.038376 S    
O2    Cr1   1.926279 S    
C44   O18   1.268497 A    
C5    C26   1.415591 S    
O19   C45   1.272999 A    
O20   C48   1.262020 A    
C32   H8    1.111742 S    
N1    O28   1.300445 A    
O11   Cr3   2.051477 S    
C22   C26   1.392295 A    
C23   H2    1.083346 S    
C33   H11   1.111707 S    
O21   Cr4   1.927093 S    
C29   C34   1.405815 A    
C15   C45   1.426292 S    
C40   H12   1.110605 S    
C16   C17   1.405245 S    
C39   N2    1.433159 S    
C12   C14   1.201955 T    
O2    C1    1.271220 A    
O19   Cr6   1.930624 S    
C22   H1    1.083332 S    
O23   Cr5   1.934898 S    
Cr4   O26   1.972244 S    
O5    Cr3   2.034284 S    
C22   C23   1.389741 A    
O7    C6    1.258177 A    
C28   C32   1.490364 S    
C35   C48   1.456115 S    
C30   C34   1.403935 A    
C7    C9    1.199131 T    
C7    C44   1.422721 S    
O25   Cr6   1.917688 S    
C31   H7    1.080992 S    
C36   C37   1.362667 A    
O3    Cr2   2.047522 S    
C38   N1    1.440571 S    
C4    O9    1.271551 A    
N2    O29   1.300530 A    
O10   C5    1.261910 A    
O25   C48   1.274315 A    
O8    C4    1.268690 A    
