data_mof_unit_44887.cif
_audit_creation_date              2012-12-10T17:22:33-0500
_audit_creation_method            fapswitch 2.2
_symmetry_space_group_name_H-M    P1
_symmetry_Int_Tables_number       1
_space_group_crystal_system       triclinic
_cell_length_a                    18.564309
_cell_length_b                    18.74235
_cell_length_c                    18.84454
_cell_angle_alpha                 109.115402
_cell_angle_beta                  108.699933
_cell_angle_gamma                 108.223818
_cell_volume                      5189.78940271

loop_
_atom_site_label
_atom_site_type_symbol
_atom_type_description
_atom_site_fract_x
_atom_site_fract_y
_atom_site_fract_z
_atom_type_partial_charge
C1    C     C_R   0.377147 0.380070 0.498764 0.911676
C2    C     C_R   0.292371 0.329317 0.570085 -0.027531
C3    C     C_R   0.182250 0.183346 0.497569 -0.016214
C4    C     C_R   0.626306 0.504790 0.620140 0.942306
C5    C     C_R   0.202859 0.163187 0.430767 -0.018967
C6    C     C_R   0.255468 0.230257 0.424098 0.002954
C7    C     C_R   0.306806 0.313395 0.497308 -0.102690
C8    C     C_R   0.169400 0.077528 0.368590 -0.220229
C9    C     C_R   0.186823 0.059378 0.299851 0.489872
C10   C     C_R   0.229647 0.126327 0.288066 -0.308090
C11   C     C_R   0.253253 0.210087 0.343596 0.342097
C12   C     C_3   0.814938 0.508402 0.813133 -0.106791
C13   C     C_R   0.224612 0.500408 0.393325 -0.056433
C14   C     C_R   0.152180 0.501685 0.399267 -0.106425
C15   C     C_R   0.092504 0.507621 0.337857 -0.091079
C16   C     C_R   0.615931 0.618332 0.494405 0.909476
C17   C     C_R   0.103690 0.509692 0.268910 -0.130023
C18   C     C_R   0.174626 0.503922 0.258802 0.107328
C19   C     C_R   0.238100 0.502865 0.323897 0.135747
C20   C     C_R   0.186112 0.503925 0.187914 -0.068166
C21   C     C_R   0.268149 0.521931 0.191716 -0.033167
C22   C     C_R   0.334340 0.531055 0.261732 -0.020694
C23   C     C_3   0.855144 0.595569 0.811016 0.135249
C24   C     C_R   0.314553 0.508090 0.319523 -0.051304
C25   C     C_R   0.288407 0.534691 0.129281 0.262189
C26   C     C_R   0.370543 0.597464 0.157359 0.221427
C27   C     C_R   0.439056 0.605726 0.225135 0.348173
C28   C     C_R   0.378471 0.500604 0.381064 0.886782
C29   C     C_R   0.419802 0.567892 0.274358 -0.319341
C30   C     C_R   0.586546 0.752612 0.470660 -0.125162
C31   C     C_R   0.573710 0.819348 0.463093 -0.093258
C32   C     C_R   0.639189 0.886749 0.470378 -0.035032
C33   C     C_R   0.717745 0.887215 0.484742 0.004099
C34   C     C_3   0.739500 0.503744 0.830668 -0.312904
C35   C     C_R   0.733095 0.819816 0.492001 0.090921
C36   C     C_R   0.665849 0.751604 0.484668 0.078409
C37   C     C_R   0.813539 0.819150 0.507796 -0.092277
C38   C     C_R   0.823106 0.747431 0.510334 0.091492
C39   C     C_R   0.748539 0.672644 0.480056 0.125194
C40   C     C_3   0.706671 0.425493 0.656227 -0.324477
C41   C     C_R   0.676174 0.680287 0.483756 -0.164054
C42   C     C_R   0.902301 0.743750 0.533878 -0.012337
C43   C     C_R   0.903433 0.665675 0.507782 -0.119348
C44   C     C_R   0.826622 0.590571 0.459423 -0.062398
C45   C     C_R   0.348834 0.402045 0.651040 0.367644
C46   C     C_R   0.749703 0.593549 0.446801 0.043983
C47   C     C_R   0.997894 0.381333 0.876178 0.811264
C48   C     C_R   0.878048 0.502409 0.878451 0.926982
C49   C     C_R   0.997543 0.618007 0.118678 0.856895
C50   C     C_R   0.118230 0.499191 0.117357 0.817861
C51   C     C_R   0.001062 0.879839 0.380808 0.896561
C52   C     C_3   0.779893 0.429031 0.727090 -0.453597
C53   C     C_R   0.118650 0.117226 0.497722 0.822052
C54   C     C_R   0.990796 0.112944 0.618492 0.873132
C55   C     C_R   0.880141 0.883627 0.504368 1.012334
C56   C     C_R   0.320382 0.425618 0.710597 -0.212577
C57   C     C_R   0.002012 0.382083 0.714329 0.339234
C58   C     C_R   0.958073 0.364133 0.629999 -0.358709
C59   C     C_R   0.901569 0.281107 0.565213 0.313891
C60   C     C_R   0.893300 0.213033 0.583981 0.366021
C61   C     C_R   0.951732 0.230245 0.665566 -0.158175
C62   C     C_R   0.989176 0.312602 0.733718 -0.098166
C63   C     C_R   0.976210 0.170020 0.682170 0.031288
C64   C     C_3   0.791205 0.590619 0.727305 0.557296
C65   C     C_R   0.005605 0.179139 0.766033 -0.068276
C66   C     C_R   0.018128 0.252745 0.831950 0.020650
C67   C     C_R   0.252202 0.363486 0.706183 0.384178
C68   C     C_R   0.007016 0.317992 0.814947 0.050115
C69   C     C_R   0.019034 0.115849 0.786455 0.251706
C70   C     C_R   0.069295 0.139046 0.871572 0.300713
C71   C     C_R   0.068153 0.203530 0.934525 0.315569
C72   C     C_R   0.043162 0.260179 0.914422 -0.226226
C73   C     C_R   0.153829 0.736446 0.276747 -0.290147
C74   C     C_R   0.233043 0.802203 0.346338 0.439218
C75   C     C_R   0.235889 0.877079 0.400209 0.326374
C76   C     C_3   0.677564 0.514002 0.763649 -0.358033
C77   C     C_R   0.158809 0.879751 0.387967 -0.294919
C78   C     C_R   0.201950 0.284716 0.632961 -0.281988
C79   C     C_R   0.077989 0.810426 0.322806 0.064174
C80   C     C_R   0.076215 0.741420 0.262195 0.043093
C81   C     C_R   0.999642 0.811072 0.314283 -0.078383
C82   C     C_R   0.919998 0.746534 0.240587 -0.069201
C83   C     C_R   0.917777 0.676847 0.180242 -0.136174
C84   C     C_R   0.997065 0.678239 0.189140 -0.072944
C85   C     C_R   0.840310 0.747058 0.224668 0.352938
C86   C     C_R   0.777980 0.708134 0.140164 -0.252787
C87   C     C_R   0.769566 0.632233 0.083849 0.346657
C88   C     C_3   0.699903 0.509891 0.689429 -0.175746
C89   C     C_R   0.222604 0.266320 0.564923 0.003773
C90   C     C_R   0.834586 0.608869 0.112511 0.302529
H1    H     H_    0.761173 0.553676 0.895336 0.257929
H2    H     H_    0.963883 0.663596 0.522779 0.151376
H3    H     H_    0.674998 0.573832 0.794871 0.297862
H4    H     H_    0.716378 0.411654 0.599099 0.272997
H5    H     H_    0.769489 0.754374 0.667924 0.393320
H6    H     H_    0.941168 0.720950 0.046479 0.391622
H7    H     H_    0.232815 0.112361 0.228959 0.227430
H8    H     H_    0.500497 0.378096 0.609701 0.326856
H9    H     H_    0.269115 0.262786 0.796199 0.361920
H10   H     H_    0.151012 0.236655 0.632775 0.165706
H11   H     H_    0.129715 0.024619 0.372890 0.143402
H12   H     H_    0.364591 0.483045 0.771098 0.225863
H13   H     H_    0.114519 0.889953 0.089616 0.421904
H14   H     H_    0.645125 0.370457 0.635980 0.206549
H15   H     H_    0.119448 0.154826 0.179113 0.393009
H16   H     H_    0.591789 0.678788 0.158285 0.411714
H17   H     H_    0.143394 0.500033 0.452904 0.164532
H18   H     H_    0.057596 0.519362 0.226233 0.163265
H19   H     H_    0.286054 0.368171 0.101422 0.392761
H20   H     H_    0.435590 0.778100 0.208192 0.380470
H21   H     H_    0.826812 0.529719 0.435056 0.154444
H22   H     H_    0.532045 0.700145 0.461047 0.143796
H23   H     H_    0.269361 0.498030 0.444568 0.172672
H24   H     H_    0.512135 0.817665 0.449490 0.205982
H25   H     H_    0.692397 0.532988 0.409037 0.176858
H26   H     H_    0.950623 0.113011 0.980416 0.369044
H27   H     H_    0.045834 0.581264 0.780904 0.388560
H28   H     H_    0.968453 0.415903 0.614426 0.216377
H29   H     H_    0.832189 0.428477 0.711114 0.241689
H30   H     H_    0.898439 0.388920 0.464070 0.350358
H31   H     H_    0.658861 0.094042 0.463501 0.394528
H32   H     H_    0.810213 0.003758 0.669919 0.399675
H33   H     H_    0.250336 0.113965 0.988712 0.396297
H34   H     H_    0.037730 0.511639 0.344106 0.168315
H35   H     H_    0.048598 0.312769 0.965559 0.216891
H36   H     H_    0.536192 0.513004 0.972694 0.426853
H37   H     H_    0.152895 0.680148 0.235076 0.176557
H38   H     H_    0.427112 0.864428 0.495675 0.402392
H39   H     H_    0.315474 0.940889 0.582449 0.358084
H40   H     H_    0.163845 0.938527 0.429253 0.194028
H41   H     H_    0.899841 0.508031 0.608835 0.380337
H42   H     H_    0.886512 0.694059 0.359399 0.361133
H43   H     H_    0.722420 0.719326 0.126023 0.215788
H44   H     H_    0.692190 0.426144 0.117781 0.393827
H45   H     H_    0.472271 0.573790 0.326171 0.172236
H46   H     H_    0.914984 0.602831 0.806624 0.185133
H47   H     H_    0.615382 0.460242 0.738509 0.269593
H48   H     H_    0.706160 0.440906 0.827217 0.249427
H49   H     H_    0.754367 0.369502 0.731947 0.212123
H50   H     H_    0.628853 0.938623 0.464269 0.194978
H51   H     H_    0.766403 0.942565 0.492485 0.225642
H52   H     H_    0.964341 0.799017 0.571007 0.192003
O1    O     O_R   0.408690 0.356690 0.448570 -0.603096
O2    O     O_R   0.052500 0.908420 0.460860 -0.640491
O3    O     O_R   0.039610 0.091640 0.448030 -0.602933
O4    O     O_R   0.408090 0.460090 0.551440 -0.610734
O5    O     O_R   0.143600 0.091610 0.551990 -0.609728
O6    O     O_R   0.947500 0.091600 0.539170 -0.593818
O7    O     O_R   0.051490 0.091570 0.643140 -0.609723
O8    O     O_R   0.856400 0.908420 0.448030 -0.571657
O9    O     O_R   0.960390 0.908390 0.552000 -0.603389
O10   O     O_R   0.592400 0.448300 0.540670 -0.614220
O11   O     O_R   0.591800 0.551700 0.643540 -0.529977
O12   O     O_R   0.049540 0.460090 0.906170 -0.503967
O13   O     O_R   0.591910 0.539910 0.448560 -0.635429
O14   O     O_R   0.591310 0.643310 0.551430 -0.587484
O15   O     O_R   0.408200 0.448300 0.356460 -0.551246
O16   O     O_R   0.407600 0.551700 0.459330 -0.669170
O17   O     O_R   0.946100 0.356720 0.906240 -0.638521
O18   O     O_2   0.721505 0.699615 0.775012 -0.238147
O19   O     O_2   0.871157 0.767250 0.804025 -0.140895
O20   O     O_3   0.755190 0.693913 0.651969 -0.544738
O21   O     O_2   0.973076 0.760574 0.931384 -0.198344
O22   O     O_2   0.827443 0.716930 0.916408 -0.206325
O23   O     O_R   0.853530 0.448360 0.905250 -0.602676
O24   O     O_3   0.921193 0.667012 0.995584 -0.610119
O25   O     O_2   0.510220 0.513370 0.722846 -0.299202
O26   O     O_2   0.475725 0.417785 0.781956 -0.196769
O27   O     O_3   0.472783 0.350674 0.637004 -0.557054
O28   O     O_2   0.296002 0.465225 0.866784 -0.124196
O29   O     O_2   0.161263 0.330745 0.786717 -0.308319
O30   O     O_3   0.304861 0.324182 0.838398 -0.440604
O31   O     O_2   0.203771 0.918156 0.248547 -0.276422
O32   O     O_2   0.057318 0.899814 0.210199 -0.319157
O33   O     O_3   0.132319 0.950054 0.127934 -0.483586
O34   O     O_R   0.956970 0.551730 0.905180 -0.556125
O35   O     O_2   0.239262 0.349786 0.352179 -0.357830
O36   O     O_2   0.285785 0.285105 0.250937 -0.233358
O37   O     O_3   0.125390 0.210375 0.215593 -0.412833
O38   O     O_2   0.582164 0.749980 0.291077 -0.271259
O39   O     O_2   0.599798 0.627848 0.298080 -0.265277
O40   O     O_3   0.550783 0.625859 0.152584 -0.398135
O41   O     O_2   0.182582 0.426597 0.964890 -0.226341
O42   O     O_2   0.329724 0.447829 0.017288 -0.157793
O43   O     O_3   0.231121 0.358455 0.058777 -0.514266
O44   O     O_2   0.411439 0.616793 0.037802 -0.131375
O45   O     O_R   0.945170 0.540000 0.088470 -0.565563
O46   O     O_2   0.298564 0.650859 0.051810 -0.228930
O47   O     O_3   0.456506 0.757762 0.167316 -0.459240
O48   O     O_2   0.168508 0.212113 0.079457 -0.142496
O49   O     O_2   0.077139 0.280779 0.088313 -0.252703
O50   O     O_3   0.005405 0.115216 0.014068 -0.453666
O51   O     O_2   0.159595 0.492220 0.853038 -0.103557
O52   O     O_2   0.128476 0.513280 0.728517 -0.297560
O53   O     O_3   0.055104 0.555807 0.819356 -0.518540
O54   O     O_2   0.822478 0.179462 0.394889 -0.165651
O55   O     O_2   0.767269 0.275803 0.449917 -0.237667
O56   O     O_R   0.048600 0.643370 0.088400 -0.569285
O57   O     O_3   0.911451 0.340473 0.447115 -0.528972
O58   O     O_2   0.784880 0.056285 0.448582 -0.265796
O59   O     O_2   0.778319 0.083558 0.582839 -0.350575
O60   O     O_3   0.713134 0.148269 0.495049 -0.472924
O61   O     O_2   0.963746 0.947072 0.698005 -0.221919
O62   O     O_2   0.902394 0.991823 0.789445 -0.260972
O63   O     O_3   0.852634 0.000414 0.649512 -0.623434
O64   O     O_2   0.079230 0.024039 0.924758 -0.149384
O65   O     O_2   0.128515 0.028206 0.819266 -0.247799
O66   O     O_3   0.225839 0.150111 0.973729 -0.479491
O67   O     O_R   0.037740 0.448360 0.089460 -0.614518
O68   O     O_2   0.650652 0.601740 0.937127 -0.262759
O69   O     O_2   0.660719 0.476408 0.943653 -0.235903
O70   O     O_3   0.591812 0.545409 0.025674 -0.425204
O71   O     O_2   0.300458 0.695918 0.308366 -0.348826
O72   O     O_2   0.384825 0.843534 0.345536 -0.269726
O73   O     O_3   0.375540 0.808345 0.466728 -0.525438
O74   O     O_2   0.402321 0.987267 0.459658 -0.186291
O75   O     O_2   0.317536 0.046093 0.509417 -0.275276
O76   O     O_3   0.364674 0.953533 0.570115 -0.495510
O77   O     O_2   0.761110 0.531328 0.563329 -0.339797
O78   O     O_R   0.141170 0.551730 0.089390 -0.596532
O79   O     O_2   0.897355 0.660108 0.669032 -0.225637
O80   O     O_3   0.885409 0.515941 0.656170 -0.639886
O81   O     O_2   0.750707 0.776852 0.305473 -0.224995
O82   O     O_2   0.729066 0.631401 0.241034 -0.181126
O83   O     O_3   0.872227 0.741470 0.377206 -0.631633
O84   O     O_2   0.780983 0.439049 0.028587 -0.235040
O85   O     O_2   0.865649 0.511128 0.184355 -0.320962
O86   O     O_3   0.707265 0.482034 0.118487 -0.429893
O87   O     O_R   0.948510 0.908450 0.356890 -0.591792
S1    S     S_3+6 0.784655 0.690449 0.743654 0.145723
S2    S     S_3+6 0.082608 0.205996 0.032995 0.146166
S3    S     S_3+6 0.089995 0.486943 0.780618 0.107051
S4    S     S_3+6 0.847094 0.266316 0.461171 0.118371
S5    S     S_3+6 0.791396 0.121089 0.526123 0.057819
S6    S     S_3+6 0.933941 0.010551 0.730096 0.045685
S7    S     S_3+6 0.124510 0.081233 0.895989 0.163429
S8    S     S_3+6 0.667187 0.561198 0.993341 0.114503
S9    S     S_3+6 0.325275 0.786692 0.364721 0.039046
S10   S     S_3+6 0.332375 0.969162 0.484891 0.093602
S11   S     S_3+6 0.834152 0.575192 0.651670 0.002652
S12   S     S_3+6 0.893989 0.688227 0.914118 0.080993
S13   S     S_3+6 0.794971 0.723803 0.287771 0.056726
S14   S     S_3+6 0.798627 0.507620 0.110636 0.107854
S15   S     S_3+6 0.455517 0.423388 0.700612 0.035102
S16   S     S_3+6 0.251559 0.372766 0.801609 0.133241
S17   S     S_3+6 0.143601 0.953210 0.221265 0.053957
S18   S     S_3+6 0.228939 0.268024 0.291223 0.082391
S19   S     S_3+6 0.546404 0.654773 0.244794 0.125366
S20   S     S_3+6 0.257465 0.441101 0.038939 0.105650
S21   S     S_3+6 0.383097 0.655001 0.100226 0.169858
Zn1   Zn    Zn3+2 0.500400 0.430960 0.431310 1.104812
Zn2   Zn    Zn3+2 0.499600 0.569040 0.568690 1.117892
Zn3   Zn    Zn3+2 0.928290 0.431030 0.997370 1.134987
Zn4   Zn    Zn3+2 0.066410 0.569060 0.997270 1.231869
Zn5   Zn    Zn3+2 0.930570 0.000030 0.430590 1.167926
Zn6   Zn    Zn3+2 0.069430 0.999990 0.569430 1.081736

loop_
_geom_bond_atom_site_label_1
_geom_bond_atom_site_label_2
_ccdc_geom_bond_type
O31   S17   D    
O50   S2    S    
C66   C68   A    
C63   C65   A    
C87   S8    S    
C22   C29   A    
C27   C29   A    
C3    C53   S    
C73   C74   A    
C75   S10   S    
C2    C7    A    
C53   O5    A    
C23   H46   S    
C80   C84   A    
H30   O57   S    
C81   C82   A    
C36   C41   A    
O39   S19   D    
C57   C62   A    
C39   C41   A    
C47   O17   A    
C51   O2    A    
O7    Zn6   S    
O61   S6    D    
O2    Zn6   S    
C12   C23   S    
C26   C27   A    
C37   C38   A    
O1    Zn1   S    
C46   H25   S    
O29   S16   D    
C83   C84   A    
C1    O1    A    
C49   C84   S    
C40   C52   S    
C35   C37   A    
O58   S5    D    
H31   O60   S    
C38   C42   A    
O62   S6    D    
C69   C70   A    
O57   S4    S    
O85   S14   D    
C30   C31   A    
O84   S14   D    
O60   S5    S    
O54   S4    D    
O26   S15   D    
O81   S13   D    
O5    Zn6   S    
C58   H28   S    
C52   H49   S    
O64   S7    D    
O48   S2    D    
O80   S11   S    
H33   O66   S    
C61   C63   A    
C34   H1    S    
H16   O40   S    
C2    C89   A    
C20   C50   S    
C14   C15   A    
C26   S21   S    
O67   Zn3   S    
C21   C22   A    
H8    O27   S    
C25   S20   S    
O33   S17   S    
C66   C72   A    
C48   O23   A    
C35   C36   A    
C45   C56   A    
C8    C9    A    
O78   Zn4   S    
C42   H52   S    
O69   S8    D    
O28   S16   D    
C70   C71   A    
O16   Zn2   S    
C23   S12   S    
C9    C10   A    
C51   C81   S    
C31   H24   S    
O23   Zn3   S    
O70   S8    S    
C12   C48   S    
O56   Zn4   S    
C22   C24   A    
C4    O11   A    
H26   O50   S    
C59   C60   A    
C78   C89   A    
C90   S14   S    
H32   O63   S    
C1    O4    A    
C59   S4    S    
C67   C78   A    
O76   S10   S    
H15   O37   S    
C21   C25   A    
O22   S12   D    
O15   Zn1   S    
C53   O3    A    
O87   Zn5   S    
C44   C46   A    
O65   S7    D    
C54   O7    A    
C57   C58   A    
C49   O56   A    
C77   C79   A    
C2    C45   A    
C38   C39   A    
C4    O10   A    
O11   Zn2   S    
C64   S11   S    
C74   C75   A    
C13   C19   A    
O79   S11   D    
O68   S8    D    
O52   S3    D    
O63   S6    S    
C60   S5    S    
C50   O67   A    
O71   S9    D    
C15   H34   S    
C17   H18   S    
C6    C11   A    
C79   C81   A    
C57   S3    S    
O55   S4    D    
C86   C87   A    
C18   C19   A    
H9    O30   S    
C33   H51   S    
C25   C26   A    
C76   H47   S    
O43   S20   S    
C34   H48   S    
C52   H29   S    
C79   C80   A    
C30   H22   S    
O47   S21   S    
C56   H12   S    
H44   O86   S    
O77   S11   D    
C74   S9    S    
C10   H7    S    
C43   C44   A    
O41   S20   D    
C16   O14   A    
H39   O76   S    
H27   O53   S    
H6    O24   S    
O40   S19   S    
C76   H3    S    
C40   H14   S    
C86   H43   S    
C31   C32   A    
C49   O45   A    
C16   O13   A    
C28   O16   A    
C17   C18   A    
O73   S9    S    
C70   S7    S    
O46   S21   D    
C9    S17   S    
C75   C77   A    
C45   S15   S    
C85   C86   A    
O20   S1    S    
C39   C46   A    
O38   S19   D    
C23   C64   S    
C29   H45   S    
O35   S18   D    
C65   C66   A    
O36   S18   D    
C78   H10   S    
O18   S1    D    
H5    O20   S    
O45   Zn3   S    
C42   C43   A    
O17   Zn3   S    
O27   S15   S    
C12   C34   S    
C82   C85   A    
C47   C68   S    
O32   S17   D    
C55   O8    A    
C54   O6    A    
O12   Zn4   S    
C27   S19   S    
C15   C17   A    
C83   C90   A    
C76   C88   S    
C14   H17   S    
O13   Zn1   S    
C51   O87   A    
O72   S9    D    
C1    C7    S    
O74   S10   D    
O3    Zn5   S    
C24   C28   S    
C40   H4    S    
C3    C5    A    
C28   O15   A    
C5    C8    A    
O37   S18   S    
O14   Zn2   S    
C55   O9    A    
C6    C7    A    
C4    C88   S    
C8    H11   S    
C62   C68   A    
C56   C67   A    
C12   C52   S    
H20   O47   S    
C43   H2    S    
C30   C36   A    
C72   H35   S    
C3    C89   A    
O8    Zn5   S    
H19   O43   S    
C32   C33   A    
C40   C88   S    
C47   O12   A    
C19   C24   A    
O83   S13   S    
C11   S18   S    
C71   C72   A    
C73   H37   S    
H42   O83   S    
O42   S20   D    
C64   S1    S    
C67   S16   S    
O82   S13   D    
O59   S5    D    
C5    C6    A    
O86   S14   S    
O30   S16   S    
C65   C69   A    
H13   O33   S    
C50   O78   A    
C85   S13   S    
C33   C35   A    
C73   C80   A    
O53   S3    S    
O21   S12   D    
H41   O80   S    
C18   C20   A    
C77   H40   S    
C32   H50   S    
C69   S6    S    
C61   C62   A    
C58   C59   A    
O44   S21   D    
C10   C11   A    
H38   O73   S    
O34   Zn4   S    
O19   S1    D    
C37   C55   S    
C44   H21   S    
C20   C21   A    
O6    Zn5   S    
O49   S2    D    
O25   S15   D    
C54   C63   S    
C87   C90   A    
O4    Zn2   S    
O66   S7    S    
O24   S12   S    
C71   S2    S    
O75   S10   D    
C60   C61   A    
H36   O70   S    
O51   S3    D    
C82   C83   A    
C13   C14   A    
C16   C41   S    
C64   C88   S    
O10   Zn1   S    
C13   H23   S    
C34   C76   S    
O9    Zn6   S    
C48   O34   A    
