data_mof_unit_60277.cif
_audit_creation_date              2012-12-10T17:05:50-0500
_audit_creation_method            fapswitch 2.2
_symmetry_space_group_name_H-M    P1
_symmetry_Int_Tables_number       1
_space_group_crystal_system       triclinic
_cell_length_a                    21.869684
_cell_length_b                    21.869684
_cell_length_c                    38.816136
_cell_angle_alpha                 89.999009
_cell_angle_beta                  89.999004
_cell_angle_gamma                 89.999583
_cell_volume                      18565.1010062

loop_
_atom_site_label
_atom_site_type_symbol
_atom_type_description
_atom_site_fract_x
_atom_site_fract_y
_atom_site_fract_z
_atom_type_partial_charge
C1    C     C_R   0.500000 0.118948 0.500001 0.828521
C2    C     C_R   0.716028 0.357808 0.449851 0.194338
C3    C     C_R   0.000001 0.499999 0.566209 0.768617
C4    C     C_R   0.000000 0.499999 0.933791 0.768618
C5    C     C_R   0.499999 0.000000 0.933791 0.768618
C6    C     C_R   1.000000 0.500001 0.066209 0.768618
C7    C     C_R   0.500001 1.000000 0.066209 0.768617
C8    C     C_R   0.445748 0.011014 0.377236 -0.187010
C9    C     C_R   0.988980 0.445747 0.377236 -0.187009
C10   C     C_R   0.554256 0.988975 0.377236 -0.187012
C11   C     C_R   0.011012 0.554257 0.377236 -0.187009
C12   C     C_R   0.445743 0.988989 0.622764 -0.187009
C13   C     C_R   0.642195 0.716026 0.449850 0.194346
C14   C     C_R   0.988987 0.554252 0.622764 -0.187010
C15   C     C_R   0.554253 0.011020 0.622763 -0.187010
C16   C     C_R   0.011024 0.445744 0.622763 -0.187012
C17   C     C_R   0.945748 0.511014 0.877236 -0.187010
C18   C     C_R   0.488980 0.945747 0.877236 -0.187009
C19   C     C_R   0.054256 0.488975 0.877236 -0.187012
C20   C     C_R   0.511011 0.054257 0.877236 -0.187009
C21   C     C_R   0.945743 0.488988 0.122764 -0.187009
C22   C     C_R   0.488987 0.054252 0.122764 -0.187010
C23   C     C_R   0.054253 0.511020 0.122763 -0.187010
C24   C     C_R   0.283960 0.642184 0.449843 0.194344
C25   C     C_R   0.511024 0.945743 0.122763 -0.187012
C26   C     C_R   0.445958 0.011915 0.341245 -0.157111
C27   C     C_R   0.988077 0.445956 0.341245 -0.157119
C28   C     C_R   0.554049 0.988071 0.341245 -0.157121
C29   C     C_R   0.011913 0.554049 0.341245 -0.157112
C30   C     C_R   0.445951 0.988087 0.658755 -0.157112
C31   C     C_R   0.988085 0.554042 0.658755 -0.157112
C32   C     C_R   0.554044 0.011923 0.658755 -0.157118
C33   C     C_R   0.011928 0.445951 0.658755 -0.157121
C34   C     C_R   0.945958 0.511915 0.841245 -0.157111
C35   C     C_R   0.357816 0.716040 0.550156 0.194344
C36   C     C_R   0.488077 0.945956 0.841245 -0.157119
C37   C     C_R   0.054049 0.488071 0.841245 -0.157121
C38   C     C_R   0.511913 0.054049 0.841245 -0.157112
C39   C     C_R   0.945951 0.488087 0.158755 -0.157112
C40   C     C_R   0.488086 0.054042 0.158755 -0.157112
C41   C     C_R   0.054044 0.511923 0.158754 -0.157118
C42   C     C_R   0.511928 0.945951 0.158754 -0.157121
C43   C     C_R   0.500004 0.999993 0.322956 0.061756
C44   C     C_R   0.999995 0.500003 0.322956 0.061757
C45   C     C_R   0.499997 0.000005 0.677043 0.061757
C46   C     C_R   0.716036 0.642182 0.550155 0.194343
C47   C     C_R   0.000007 0.499996 0.677043 0.061756
C48   C     C_R   0.000004 0.499993 0.822956 0.061756
C49   C     C_R   0.499995 0.000003 0.822956 0.061757
C50   C     C_R   0.999997 0.500005 0.177043 0.061757
C51   C     C_R   0.500007 0.999996 0.177043 0.061756
C52   C     C_R   0.500002 0.999996 0.395648 -0.018065
C53   C     C_R   0.999997 0.500001 0.395648 -0.018068
C54   C     C_R   0.499998 0.000003 0.604352 -0.018068
C55   C     C_R   0.000004 0.499998 0.604352 -0.018066
C56   C     C_R   0.000002 0.499996 0.895648 -0.018065
C57   C     C_R   0.642192 0.283971 0.550149 0.194338
C58   C     C_R   0.499997 0.000001 0.895648 -0.018068
C59   C     C_R   0.999998 0.500003 0.104352 -0.018068
C60   C     C_R   0.500004 0.999998 0.104352 -0.018066
C61   C     C_R   0.500007 0.999995 0.215031 0.400928
C62   C     C_R   0.999996 0.500005 0.215031 0.400926
C63   C     C_R   0.499995 0.000004 0.784969 0.400926
C64   C     C_R   0.000005 0.499993 0.784969 0.400928
C65   C     C_R   0.000007 0.499995 0.715031 0.400928
C66   C     C_R   0.499996 0.000005 0.715031 0.400926
C67   C     C_R   0.999995 0.500004 0.284969 0.400926
C68   C     C_R   0.283974 0.357805 0.550150 0.194346
C69   C     C_R   0.500005 0.999993 0.284969 0.400928
C70   C     C_R   0.420855 0.192744 0.452067 0.160637
C71   C     C_R   0.807258 0.420830 0.452074 0.160625
C72   C     C_R   0.579173 0.807258 0.452074 0.160619
C73   C     C_R   0.192743 0.579145 0.452065 0.160639
C74   C     C_R   0.420855 0.807257 0.547935 0.160639
C75   C     C_R   0.807256 0.579145 0.547933 0.160637
C76   C     C_R   0.579170 0.192741 0.547926 0.160625
C77   C     C_R   0.192742 0.420827 0.547926 0.160620
C78   C     C_R   0.920855 0.692744 0.952067 0.160637
C79   C     C_R   0.857818 0.783964 0.949845 0.194344
C80   C     C_R   0.307258 0.920830 0.952074 0.160626
C81   C     C_R   0.079173 0.307258 0.952074 0.160619
C82   C     C_R   0.692743 0.079145 0.952065 0.160639
C83   C     C_R   0.920855 0.307257 0.047935 0.160639
C84   C     C_R   0.307256 0.079145 0.047933 0.160637
C85   C     C_R   0.079170 0.692742 0.047926 0.160625
C86   C     C_R   0.692742 0.920827 0.047926 0.160620
C87   C     C_R   0.368704 0.223697 0.440309 -0.154495
C88   C     C_R   0.776302 0.368678 0.440321 -0.154493
C89   C     C_R   0.631325 0.776301 0.440321 -0.154489
C90   C     C_R   0.216028 0.857808 0.949851 0.194338
C91   C     C_R   0.223694 0.631296 0.440307 -0.154482
C92   C     C_R   0.368704 0.776305 0.559693 -0.154481
C93   C     C_R   0.776303 0.631295 0.559691 -0.154494
C94   C     C_R   0.631321 0.223698 0.559679 -0.154493
C95   C     C_R   0.223699 0.368674 0.559679 -0.154489
C96   C     C_R   0.868704 0.723697 0.940309 -0.154495
C97   C     C_R   0.276301 0.868678 0.940321 -0.154493
C98   C     C_R   0.131325 0.276301 0.940321 -0.154489
C99   C     C_R   0.723695 0.131296 0.940307 -0.154482
C100  C     C_R   0.868704 0.276305 0.059693 -0.154481
C101  C     C_R   0.142195 0.216026 0.949850 0.194346
C102  C     C_R   0.276303 0.131295 0.059691 -0.154494
C103  C     C_R   0.131321 0.723698 0.059679 -0.154493
C104  C     C_R   0.723699 0.868674 0.059679 -0.154488
C105  C     C_3   0.439396 0.138314 0.431037 -0.827799
C106  C     C_3   0.861702 0.439349 0.431047 -0.827772
C107  C     C_3   0.560656 0.861703 0.431047 -0.827700
C108  C     C_3   0.138314 0.560604 0.431035 -0.827806
C109  C     C_3   0.439396 0.861686 0.568965 -0.827807
C110  C     C_3   0.861686 0.560604 0.568963 -0.827800
C111  C     C_3   0.560651 0.138298 0.568953 -0.827770
C112  C     C_R   0.881052 0.500000 0.499998 0.828521
C113  C     C_R   0.783960 0.142184 0.949843 0.194344
C114  C     C_3   0.138297 0.439344 0.568953 -0.827700
C115  C     C_3   0.939396 0.638314 0.931037 -0.827799
C116  C     C_3   0.361702 0.939349 0.931047 -0.827772
C117  C     C_3   0.060656 0.361703 0.931047 -0.827700
C118  C     C_3   0.638314 0.060604 0.931035 -0.827806
C119  C     C_3   0.939396 0.361686 0.068965 -0.827807
C120  C     C_3   0.361686 0.060604 0.068963 -0.827800
C121  C     C_3   0.060651 0.638298 0.068953 -0.827770
C122  C     C_3   0.638297 0.939344 0.068953 -0.827700
C123  C     C_3   0.301897 0.316549 0.436918 -0.858618
C124  C     C_R   0.857816 0.216040 0.050156 0.194344
C125  C     C_3   0.683436 0.301889 0.436925 -0.858586
C126  C     C_3   0.698113 0.683433 0.436924 -0.858577
C127  C     C_3   0.316540 0.698109 0.436921 -0.858617
C128  C     C_3   0.301891 0.683460 0.563079 -0.858617
C129  C     C_3   0.683451 0.698103 0.563082 -0.858616
C130  C     C_3   0.698110 0.316564 0.563075 -0.858583
C131  C     C_3   0.316567 0.301887 0.563076 -0.858580
C132  C     C_3   0.801897 0.816549 0.936918 -0.858618
C133  C     C_3   0.183436 0.801889 0.936925 -0.858586
C134  C     C_3   0.198113 0.183433 0.936924 -0.858577
C135  C     C_R   0.216036 0.142182 0.050155 0.194343
C136  C     C_3   0.816540 0.198109 0.936921 -0.858617
C137  C     C_3   0.801891 0.183460 0.063079 -0.858617
C138  C     C_3   0.183451 0.198103 0.063082 -0.858616
C139  C     C_3   0.198110 0.816564 0.063075 -0.858583
C140  C     C_3   0.816567 0.801887 0.063076 -0.858580
C141  C     C_R   0.142192 0.783972 0.050149 0.194338
C142  C     C_R   0.783974 0.857805 0.050150 0.194346
C143  C     C_R   0.401676 0.314542 0.469305 -0.153868
C144  C     C_R   0.685453 0.401676 0.469304 -0.153874
C145  C     C_R   0.598324 0.685451 0.469303 -0.153900
C146  C     C_R   0.314539 0.598325 0.469303 -0.153894
C147  C     C_R   0.401675 0.685461 0.530697 -0.153894
C148  C     C_R   0.500001 0.881052 0.499999 0.828514
C149  C     C_R   0.685458 0.598324 0.530695 -0.153867
C150  C     C_R   0.598324 0.314547 0.530696 -0.153874
C151  C     C_R   0.314549 0.401676 0.530697 -0.153900
C152  C     C_R   0.901676 0.814542 0.969305 -0.153868
C153  C     C_R   0.185452 0.901676 0.969304 -0.153874
C154  C     C_R   0.098324 0.185451 0.969303 -0.153900
C155  C     C_R   0.814539 0.098325 0.969303 -0.153894
C156  C     C_R   0.901675 0.185461 0.030697 -0.153894
C157  C     C_R   0.185458 0.098324 0.030696 -0.153867
C158  C     C_R   0.098324 0.814547 0.030696 -0.153874
C159  C     C_R   0.118948 0.499999 0.500001 0.828514
C160  C     C_R   0.814549 0.901675 0.030697 -0.153900
C161  C     C_R   0.453034 0.283357 0.482867 -0.012022
C162  C     C_R   0.716641 0.453032 0.482866 -0.012011
C163  C     C_R   0.546968 0.716640 0.482866 -0.012013
C164  C     C_R   0.283356 0.546966 0.482866 -0.012030
C165  C     C_R   0.453034 0.716644 0.517134 -0.012030
C166  C     C_R   0.716643 0.546966 0.517132 -0.012023
C167  C     C_R   0.546968 0.283359 0.517134 -0.012011
C168  C     C_R   0.283360 0.453031 0.517134 -0.012013
C169  C     C_R   0.953034 0.783357 0.982867 -0.012022
C170  C     C_R   0.000000 0.618948 0.000002 0.828521
C171  C     C_R   0.216641 0.953032 0.982866 -0.012011
C172  C     C_R   0.046968 0.216640 0.982866 -0.012013
C173  C     C_R   0.783356 0.046966 0.982866 -0.012030
C174  C     C_R   0.953034 0.216644 0.017134 -0.012030
C175  C     C_R   0.216643 0.046966 0.017132 -0.012023
C176  C     C_R   0.046968 0.783359 0.017134 -0.012011
C177  C     C_R   0.783360 0.953031 0.017134 -0.012013
C178  C     C_R   0.458321 0.219547 0.478264 0.061179
C179  C     C_R   0.780453 0.458312 0.478265 0.061170
C180  C     C_R   0.541690 0.780453 0.478265 0.061160
C181  C     C_R   0.381052 1.000000 0.999998 0.828521
C182  C     C_R   0.219546 0.541678 0.478263 0.061183
C183  C     C_R   0.458322 0.780454 0.521737 0.061183
C184  C     C_R   0.780453 0.541679 0.521735 0.061179
C185  C     C_R   0.541688 0.219547 0.521735 0.061170
C186  C     C_R   0.219547 0.458310 0.521735 0.061159
C187  C     C_R   0.958321 0.719547 0.978264 0.061179
C188  C     C_R   0.280453 0.958312 0.978265 0.061170
C189  C     C_R   0.041689 0.280453 0.978265 0.061160
C190  C     C_R   0.719546 0.041678 0.978263 0.061183
C191  C     C_R   0.958322 0.280454 0.021737 0.061183
C192  C     C_R   0.000001 0.381052 0.999999 0.828514
C193  C     C_R   0.280453 0.041678 0.021735 0.061179
C194  C     C_R   0.041688 0.719547 0.021735 0.061170
C195  C     C_R   0.719547 0.958310 0.021735 0.061159
C196  C     C_R   0.499999 0.315086 0.500001 -0.142146
C197  C     C_R   0.684914 0.500001 0.499999 -0.142146
C198  C     C_R   0.499999 0.684914 0.499999 -0.142126
C199  C     C_R   0.315086 0.500001 0.500001 -0.142126
C200  C     C_R   0.999999 0.815086 0.000001 -0.142146
C201  C     C_R   0.184914 0.000001 0.999999 -0.142146
C202  C     C_R   0.999999 0.184914 0.999999 -0.142126
C203  C     C_R   0.618948 0.999999 0.000001 0.828514
C204  C     C_R   0.815086 0.000001 0.000001 -0.142126
C205  C     C_R   0.500003 0.186525 0.500001 -0.181399
C206  C     C_R   0.813474 0.499997 0.499999 -0.181399
C207  C     C_R   0.500004 0.813474 0.500000 -0.181402
C208  C     C_R   0.186525 0.499996 0.500000 -0.181402
C209  C     C_R   0.000003 0.686525 0.000001 -0.181399
C210  C     C_R   0.313474 0.999997 0.999999 -0.181399
C211  C     C_R   0.000004 0.313474 1.000000 -0.181402
C212  C     C_R   0.686526 0.999996 0.000000 -0.181402
C213  C     C_R   0.618410 0.500002 0.500000 0.769704
C214  C     C_R   0.357818 0.283964 0.449845 0.194344
C215  C     C_R   0.499997 0.618410 0.500000 0.769709
C216  C     C_R   0.381590 0.500003 0.500000 0.769709
C217  C     C_R   0.499998 0.381590 0.500000 0.769705
C218  C     C_R   0.118410 0.000002 1.000000 0.769704
C219  C     C_R   0.999997 0.118410 1.000000 0.769709
C220  C     C_R   0.881590 0.000003 0.000000 0.769709
C221  C     C_R   0.999998 0.881590 0.000000 0.769705
C222  C     C_R   0.500000 0.999999 0.433791 0.768618
C223  C     C_R   0.999999 0.500000 0.433791 0.768618
C224  C     C_R   0.499999 0.000001 0.566209 0.768618
Cu1   Cu    Cu3+1 0.561710 0.000000 0.500000 0.928441
Cu2   Cu    Cu3+1 0.500000 0.500000 0.465670 0.957923
Cu3   Cu    Cu3+1 1.000000 1.000000 0.034330 0.957922
Cu4   Cu    Cu3+1 0.000000 0.000000 0.965670 0.957923
Cu5   Cu    Cu3+1 0.000000 0.561710 0.500000 0.928491
Cu6   Cu    Cu3+1 0.438290 0.000000 0.500000 0.928491
Cu7   Cu    Cu3+1 0.000000 0.438290 0.500000 0.928441
Cu8   Cu    Cu3+1 0.061710 0.500000 0.000000 0.928441
Cu9   Cu    Cu3+1 0.500000 0.061710 0.000000 0.928491
Cu10  Cu    Cu3+1 0.938290 0.500000 0.000000 0.928491
Cu11  Cu    Cu3+1 0.500000 0.938290 0.000000 0.928441
Cu12  Cu    Cu3+1 0.500000 0.500000 0.534330 0.957922
H1    H     H_    0.403135 0.019469 0.390599 0.149026
H2    H     H_    0.480527 0.903134 0.890600 0.149036
H3    H     H_    0.635486 0.299907 0.446339 0.237589
H4    H     H_    0.682830 0.302026 0.408323 0.234730
H5    H     H_    0.707624 0.260306 0.446067 0.234433
H6    H     H_    0.700094 0.635482 0.446337 0.237586
H7    H     H_    0.697976 0.682827 0.408322 0.234729
H8    H     H_    0.739696 0.707619 0.446065 0.234433
H9    H     H_    0.364465 0.700132 0.446368 0.237598
H10   H     H_    0.317208 0.697946 0.408320 0.234748
H11   H     H_    0.292305 0.739683 0.446031 0.234423
H12   H     H_    0.299868 0.635535 0.553632 0.237598
H13   H     H_    0.096868 0.480519 0.890600 0.149033
H14   H     H_    0.302054 0.682792 0.591681 0.234748
H15   H     H_    0.260316 0.707695 0.553969 0.234423
H16   H     H_    0.635523 0.700123 0.553639 0.237599
H17   H     H_    0.682790 0.697935 0.591684 0.234746
H18   H     H_    0.707678 0.739682 0.553971 0.234422
H19   H     H_    0.700093 0.364514 0.553660 0.237589
H20   H     H_    0.697973 0.317171 0.591677 0.234730
H21   H     H_    0.739694 0.292376 0.553934 0.234432
H22   H     H_    0.364518 0.299907 0.553663 0.237586
H23   H     H_    0.317172 0.302023 0.591678 0.234729
H24   H     H_    0.519464 0.096869 0.890598 0.149026
H25   H     H_    0.292381 0.260304 0.553935 0.234434
H26   H     H_    0.799877 0.864477 0.946361 0.237600
H27   H     H_    0.802064 0.817210 0.908316 0.234746
H28   H     H_    0.760318 0.792322 0.946029 0.234422
H29   H     H_    0.135486 0.799907 0.946339 0.237589
H30   H     H_    0.182830 0.802026 0.908323 0.234730
H31   H     H_    0.207624 0.760306 0.946067 0.234433
H32   H     H_    0.200094 0.135482 0.946337 0.237586
H33   H     H_    0.197976 0.182827 0.908322 0.234729
H34   H     H_    0.239696 0.207619 0.946065 0.234433
H35   H     H_    0.903131 0.480536 0.109401 0.149026
H36   H     H_    0.864465 0.200132 0.946368 0.237598
H37   H     H_    0.817208 0.197946 0.908320 0.234748
H38   H     H_    0.792305 0.239683 0.946031 0.234423
H39   H     H_    0.799868 0.135535 0.053632 0.237598
H40   H     H_    0.802054 0.182792 0.091680 0.234748
H41   H     H_    0.760316 0.207695 0.053969 0.234423
H42   H     H_    0.135523 0.200123 0.053639 0.237599
H43   H     H_    0.182790 0.197935 0.091684 0.234746
H44   H     H_    0.207678 0.239682 0.053971 0.234422
H45   H     H_    0.200093 0.864514 0.053660 0.237589
H46   H     H_    0.480532 0.096865 0.109401 0.149027
H47   H     H_    0.197973 0.817170 0.091677 0.234730
H48   H     H_    0.239694 0.792376 0.053934 0.234432
H49   H     H_    0.864518 0.799906 0.053663 0.237586
H50   H     H_    0.817172 0.802023 0.091678 0.234729
H51   H     H_    0.792381 0.760304 0.053935 0.234434
H52   H     H_    0.395076 0.362827 0.473689 0.139227
H53   H     H_    0.637166 0.395085 0.473687 0.139238
H54   H     H_    0.604915 0.637163 0.473685 0.139236
H55   H     H_    0.362824 0.604926 0.473689 0.139218
H56   H     H_    0.395074 0.637176 0.526312 0.139219
H57   H     H_    0.096865 0.519473 0.109400 0.149036
H58   H     H_    0.637173 0.604924 0.526311 0.139226
H59   H     H_    0.604915 0.362834 0.526313 0.139238
H60   H     H_    0.362837 0.395085 0.526315 0.139237
H61   H     H_    0.895076 0.862827 0.973689 0.139227
H62   H     H_    0.137166 0.895084 0.973687 0.139238
H63   H     H_    0.104915 0.137163 0.973685 0.139236
H64   H     H_    0.862824 0.104926 0.973688 0.139218
H65   H     H_    0.895074 0.137176 0.026311 0.139219
H66   H     H_    0.137173 0.104924 0.026311 0.139226
H67   H     H_    0.104915 0.862834 0.026313 0.139238
H68   H     H_    0.519481 0.903132 0.109400 0.149033
H69   H     H_    0.862837 0.895085 0.026315 0.139237
H70   H     H_    0.403608 0.020886 0.327690 0.146608
H71   H     H_    0.979107 0.403607 0.327690 0.146607
H72   H     H_    0.596399 0.979099 0.327690 0.146608
H73   H     H_    0.980527 0.403134 0.390600 0.149036
H74   H     H_    0.020882 0.596400 0.327690 0.146607
H75   H     H_    0.403600 0.979118 0.672310 0.146607
H76   H     H_    0.979115 0.596392 0.672310 0.146608
H77   H     H_    0.596394 0.020893 0.672309 0.146607
H78   H     H_    0.020901 0.403600 0.672309 0.146608
H79   H     H_    0.903608 0.520886 0.827690 0.146608
H80   H     H_    0.479107 0.903606 0.827690 0.146607
H81   H     H_    0.096399 0.479099 0.827690 0.146608
H82   H     H_    0.520882 0.096400 0.827689 0.146607
H83   H     H_    0.903600 0.479118 0.172310 0.146607
H84   H     H_    0.596868 0.980519 0.390600 0.149033
H85   H     H_    0.479115 0.096392 0.172310 0.146608
H86   H     H_    0.096393 0.520893 0.172309 0.146607
H87   H     H_    0.520901 0.903600 0.172309 0.146608
H88   H     H_    0.661704 0.201916 0.578047 0.145505
H89   H     H_    0.798082 0.661666 0.578065 0.145513
H90   H     H_    0.338332 0.798086 0.578067 0.145511
H91   H     H_    0.201917 0.338290 0.578047 0.145502
H92   H     H_    0.661709 0.798083 0.421953 0.145501
H93   H     H_    0.798084 0.338295 0.421953 0.145506
H94   H     H_    0.338334 0.201917 0.421935 0.145514
H95   H     H_    0.019464 0.596869 0.390599 0.149026
H96   H     H_    0.201914 0.661668 0.421933 0.145511
H97   H     H_    0.161704 0.701916 0.078047 0.145505
H98   H     H_    0.298082 0.161666 0.078065 0.145513
H99   H     H_    0.838332 0.298086 0.078067 0.145511
H100  H     H_    0.701917 0.838290 0.078047 0.145501
H101  H     H_    0.161709 0.298083 0.921953 0.145501
H102  H     H_    0.298084 0.838295 0.921953 0.145506
H103  H     H_    0.838334 0.701917 0.921935 0.145514
H104  H     H_    0.701914 0.161668 0.921933 0.145511
H105  H     H_    0.487523 0.124916 0.435470 0.217282
H106  H     H_    0.403131 0.980536 0.609401 0.149026
H107  H     H_    0.407062 0.100506 0.436177 0.251407
H108  H     H_    0.436470 0.149644 0.403174 0.219359
H109  H     H_    0.875088 0.487484 0.435465 0.217273
H110  H     H_    0.899509 0.407024 0.436211 0.251451
H111  H     H_    0.850398 0.436383 0.403181 0.219336
H112  H     H_    0.512518 0.875090 0.435468 0.217266
H113  H     H_    0.592985 0.899509 0.436211 0.251439
H114  H     H_    0.563619 0.850399 0.403179 0.219321
H115  H     H_    0.124917 0.512476 0.435469 0.217282
H116  H     H_    0.100505 0.592936 0.436175 0.251406
H117  H     H_    0.980532 0.596865 0.609401 0.149027
H118  H     H_    0.149645 0.563530 0.403172 0.219363
H119  H     H_    0.487523 0.875083 0.564531 0.217282
H120  H     H_    0.407064 0.899495 0.563825 0.251406
H121  H     H_    0.436470 0.850355 0.596828 0.219363
H122  H     H_    0.875084 0.512477 0.564530 0.217283
H123  H     H_    0.899494 0.592937 0.563823 0.251407
H124  H     H_    0.850355 0.563529 0.596826 0.219360
H125  H     H_    0.512515 0.124912 0.564535 0.217272
H126  H     H_    0.592976 0.100491 0.563789 0.251450
H127  H     H_    0.563617 0.149602 0.596819 0.219335
H128  H     H_    0.596866 0.019473 0.609400 0.149036
H129  H     H_    0.124910 0.487482 0.564532 0.217266
H130  H     H_    0.100491 0.407015 0.563789 0.251439
H131  H     H_    0.149601 0.436381 0.596821 0.219322
H132  H     H_    0.987523 0.624916 0.935470 0.217282
H133  H     H_    0.907062 0.600506 0.936177 0.251407
H134  H     H_    0.936470 0.649644 0.903174 0.219359
H135  H     H_    0.375088 0.987484 0.935465 0.217273
H136  H     H_    0.399509 0.907024 0.936210 0.251451
H137  H     H_    0.350398 0.936383 0.903181 0.219336
H138  H     H_    0.012518 0.375090 0.935468 0.217266
H139  H     H_    0.019481 0.403132 0.609400 0.149033
H140  H     H_    0.092985 0.399509 0.936211 0.251439
H141  H     H_    0.063619 0.350399 0.903179 0.219321
H142  H     H_    0.624917 0.012476 0.935469 0.217282
H143  H     H_    0.600505 0.092936 0.936175 0.251406
H144  H     H_    0.649645 0.063530 0.903172 0.219363
H145  H     H_    0.987523 0.375083 0.064531 0.217282
H146  H     H_    0.907064 0.399495 0.063825 0.251406
H147  H     H_    0.936470 0.350355 0.096828 0.219363
H148  H     H_    0.375084 0.012477 0.064530 0.217283
H149  H     H_    0.399494 0.092937 0.063823 0.251407
H150  H     H_    0.903135 0.519469 0.890599 0.149026
H151  H     H_    0.350355 0.063529 0.096826 0.219360
H152  H     H_    0.012515 0.624912 0.064535 0.217272
H153  H     H_    0.092976 0.600491 0.063789 0.251450
H154  H     H_    0.063617 0.649602 0.096819 0.219335
H155  H     H_    0.624910 0.987482 0.064532 0.217266
H156  H     H_    0.600491 0.907015 0.063788 0.251439
H157  H     H_    0.649601 0.936381 0.096821 0.219322
H158  H     H_    0.299877 0.364477 0.446360 0.237600
H159  H     H_    0.302064 0.317210 0.408317 0.234746
H160  H     H_    0.260318 0.292322 0.446029 0.234422
N1    N     N_R   0.537930 0.962342 0.267158 -0.237641
N2    N     N_R   0.537647 0.037928 0.767157 -0.237641
N3    N     N_R   0.962081 0.537645 0.767158 -0.237642
N4    N     N_R   0.462344 0.962080 0.767158 -0.237640
N5    N     N_R   0.037920 0.537656 0.232842 -0.237640
N6    N     N_R   0.537658 0.962070 0.232842 -0.237641
N7    N     N_R   0.962071 0.462353 0.232843 -0.237641
N8    N     N_R   0.462355 0.037919 0.232842 -0.237642
N9    N     N_R   0.037647 0.537928 0.267157 -0.237641
N10   N     N_R   0.462081 0.037645 0.267158 -0.237642
N11   N     N_R   0.962344 0.462080 0.267158 -0.237640
N12   N     N_R   0.537920 0.037656 0.732842 -0.237640
N13   N     N_R   0.037658 0.462070 0.732842 -0.237641
N14   N     N_R   0.462071 0.962353 0.732843 -0.237641
N15   N     N_R   0.962355 0.537919 0.732842 -0.237642
N16   N     N_R   0.037930 0.462342 0.767158 -0.237641
O1    O     O_R   0.552090 0.090090 0.500110 -0.573107
O2    O     O_R   0.409910 0.052090 0.000110 -0.573080
O3    O     O_R   0.947910 0.409910 0.000110 -0.573078
O4    O     O_R   0.590090 0.947910 0.000110 -0.573108
O5    O     O_R   0.052090 0.409910 0.999890 -0.573107
O6    O     O_R   0.409910 0.947910 0.999890 -0.573106
O7    O     O_R   0.947910 0.590090 0.999890 -0.573080
O8    O     O_R   0.590090 0.052090 0.999890 -0.573078
O9    O     O_R   0.552090 0.999930 0.450180 -0.593229
O10   O     O_R   0.000070 0.552090 0.450180 -0.593215
O11   O     O_R   0.447910 0.000070 0.450180 -0.593215
O12   O     O_R   0.909910 0.552090 0.500110 -0.573080
O13   O     O_R   0.999930 0.447910 0.450180 -0.593230
O14   O     O_R   0.552090 0.000070 0.549820 -0.593230
O15   O     O_R   0.000070 0.447910 0.549820 -0.593230
O16   O     O_R   0.447910 0.999930 0.549820 -0.593215
O17   O     O_R   0.999930 0.552090 0.549820 -0.593215
O18   O     O_R   0.052090 0.499930 0.950180 -0.593229
O19   O     O_R   0.500070 0.052090 0.950180 -0.593215
O20   O     O_R   0.947910 0.500070 0.950180 -0.593215
O21   O     O_R   0.499930 0.947910 0.950180 -0.593230
O22   O     O_R   0.052090 0.500070 0.049820 -0.593230
O23   O     O_R   0.447910 0.909910 0.500110 -0.573078
O24   O     O_R   0.500070 0.947910 0.049820 -0.593230
O25   O     O_R   0.947910 0.499930 0.049820 -0.593215
O26   O     O_R   0.499930 0.052090 0.049820 -0.593215
O27   O     O_R   0.590060 0.499930 0.529020 -0.584155
O28   O     O_R   0.500070 0.590060 0.529020 -0.584152
O29   O     O_R   0.409940 0.500070 0.529020 -0.584161
O30   O     O_R   0.499930 0.409940 0.529020 -0.584164
O31   O     O_R   0.590060 0.500070 0.470980 -0.584164
O32   O     O_R   0.500070 0.409940 0.470980 -0.584155
O33   O     O_R   0.409940 0.499930 0.470980 -0.584151
O34   O     O_R   0.090090 0.447910 0.500110 -0.573108
O35   O     O_R   0.499930 0.590060 0.470980 -0.584161
O36   O     O_R   0.090060 0.999930 0.029020 -0.584155
O37   O     O_R   0.000070 0.090060 0.029020 -0.584152
O38   O     O_R   0.909940 0.000070 0.029020 -0.584161
O39   O     O_R   0.999930 0.909940 0.029020 -0.584164
O40   O     O_R   0.090060 0.000070 0.970980 -0.584164
O41   O     O_R   0.000070 0.909940 0.970980 -0.584155
O42   O     O_R   0.909940 0.999930 0.970980 -0.584151
O43   O     O_R   0.999930 0.090060 0.970980 -0.584161
O44   O     O_R   0.552090 0.909910 0.499890 -0.573107
O45   O     O_R   0.909910 0.447910 0.499890 -0.573106
O46   O     O_R   0.447910 0.090090 0.499890 -0.573080
O47   O     O_R   0.090090 0.552090 0.499890 -0.573078
O48   O     O_R   0.052090 0.590090 0.000110 -0.573107

loop_
_geom_bond_atom_site_label_1
_geom_bond_atom_site_label_2
_ccdc_geom_bond_type
C66   N12   A    
C8    C26   A    
C32   C45   A    
C7    C60   S    
C30   C45   A    
C78   C115  S    
C107  H114  S    
C46   C129  S    
C15   C32   A    
C213  O27   A    
C224  O14   A    
Cu11  O21   S    
C134  H33   S    
C52   C222  S    
C9    C27   A    
C119  H145  S    
C21   C59   A    
C22   C60   A    
C34   H79   S    
C9    H73   S    
C110  H123  S    
C70   C87   A    
C121  H152  S    
C167  C185  A    
C81   C117  S    
C106  H109  S    
C83   C119  S    
C215  O28   A    
C108  H115  S    
C190  C212  A    
C19   C37   A    
C76   C94   A    
C188  C210  A    
C18   C58   A    
C80   C116  S    
C163  C198  A    
C78   C96   A    
Cu1   O1    S    
C24   C127  S    
C120  H148  S    
C85   C121  S    
C41   H86   S    
C25   C60   A    
C140  H49   S    
C115  H134  S    
C85   C103  A    
C174  C191  A    
C28   H72   S    
C10   C52   A    
C143  H52   S    
C65   N15   A    
C4    C56   S    
C113  C155  A    
C7    O24   A    
C118  H143  S    
C20   H24   S    
C68   C95   A    
C139  H45   S    
C165  C183  A    
C15   C54   A    
C124  C137  S    
C166  C184  A    
C169  C187  A    
C73   C108  S    
C109  H121  S    
C155  H64   S    
C137  H39   S    
C149  H58   S    
C161  C196  A    
C192  O5    A    
C100  C124  A    
C68   C131  S    
C137  H40   S    
C87   H94   S    
Cu3   Cu4   S    
C114  H130  S    
C156  C174  A    
Cu8   Cu10  S    
Cu6   O46   S    
C177  C204  A    
C136  H36   S    
C90   C153  A    
C152  H61   S    
C81   C189  A    
N1    N6    A    
C169  C200  A    
C139  H48   S    
C100  H99   S    
C83   C100  A    
C29   C44   A    
C4    O20   A    
C33   C47   A    
C34   C48   A    
C17   C34   A    
C82   C118  S    
C107  H112  S    
C218  O40   A    
C75   C93   A    
C95   H91   S    
C224  O16   A    
C117  H141  S    
C177  C195  A    
C138  H44   S    
C111  H126  S    
Cu5   O17   S    
C3    O17   A    
C70   C105  S    
C133  H29   S    
Cu6   O11   S    
C121  H154  S    
C53   C223  S    
C217  O30   A    
Cu1   Cu6   S    
C23   C41   A    
C186  C208  A    
C104  H100  S    
Cu11  O4    S    
C79   C96   A    
C68   C151  A    
C4    O18   A    
C165  C198  A    
C6    O22   A    
C5    O19   A    
C112  O45   A    
C94   H88   S    
Cu8   O48   S    
C182  C208  A    
C140  H51   S    
C115  H132  S    
C85   C194  A    
C145  H54   S    
C123  C214  S    
C67   N11   A    
C71   C88   A    
C16   H139  S    
C66   N14   A    
Cu2   O32   S    
C143  C161  A    
C191  C211  A    
C19   C56   A    
C105  H107  S    
C135  C157  A    
C168  C199  A    
Cu9   O26   S    
C183  C207  A    
C136  H37   S    
C13   C145  A    
C14   C31   A    
C86   C104  A    
Cu4   O41   S    
C196  C217  S    
C116  H135  S    
C184  C206  A    
C23   C59   A    
Cu6   O23   S    
Cu1   O44   S    
C137  H41   S    
C221  O39   A    
C5    C58   S    
Cu2   O33   S    
C200  C221  S    
C99   H104  S    
C216  O33   A    
C86   C195  A    
C74   C92   A    
Cu12  O29   S    
Cu2   Cu12  S    
C170  O7    A    
Cu8   O18   S    
C147  C165  A    
C148  C207  S    
C3    C55   S    
C27   C44   A    
C187  C209  A    
C203  O8    A    
C36   H80   S    
C126  H6    S    
C30   H75   S    
C8    C52   A    
Cu9   O2    S    
C164  C199  A    
C1    O1    A    
C14   C55   A    
Cu9   O8    S    
C43   C69   S    
Cu10  O7    S    
C138  H42   S    
C77   C186  A    
C223  O13   A    
C3    O15   A    
C75   C184  A    
C103  C141  A    
C133  H31   S    
C217  O32   A    
C122  H155  S    
C128  H15   S    
C168  C186  A    
C57   C130  S    
C22   H46   S    
C105  H108  S    
C145  C163  A    
Cu12  O27   S    
C146  C164  A    
C181  C210  S    
C222  O11   A    
C67   N9    A    
C131  H22   S    
C146  H55   S    
C80   C188  A    
C127  H10   S    
N13   N16   A    
C172  C202  A    
C17   C56   A    
C125  H4    S    
C108  H118  S    
C64   N3    A    
C129  H17   S    
C57   C94   A    
C26   H70   S    
Cu1   O9    S    
C71   C106  S    
C72   C180  A    
C20   C58   A    
C112  O12   A    
Cu4   O43   S    
C116  H137  S    
C132  H26   S    
C132  H27   S    
C75   C110  S    
C6    C59   S    
C107  H113  S    
Cu11  O24   S    
C134  H34   S    
C40   C51   A    
C195  C212  A    
C35   C92   A    
C139  C141  S    
Cu3   O38   S    
C73   C182  A    
C193  C210  A    
C110  H124  S    
C101  C154  A    
C76   C111  S    
C1    O46   A    
C106  H110  S    
C87   C214  A    
C175  C193  A    
C220  O38   A    
N4    N14   A    
C108  H116  S    
C6    O25   A    
Cu10  O3    S    
C2    C125  S    
C46   C149  A    
C2    C144  A    
C148  O44   A    
C44   C67   S    
C78   C187  A    
C140  H50   S    
C115  H133  S    
C123  H160  S    
C76   C185  A    
C18   H2    S    
C79   C152  A    
C131  H25   S    
C153  H62   S    
C61   N6    A    
C123  H159  S    
C82   C99   A    
C159  O47   A    
C157  H66   S    
C219  O43   A    
C38   C49   A    
C118  H144  S    
C25   H68   S    
C5    O21   A    
C171  C188  A    
C204  C220  S    
C150  H59   S    
C222  O9    A    
C83   C191  A    
C140  C142  S    
C201  C218  S    
C148  O23   A    
C62   N7    A    
Cu4   O40   S    
Cu6   O16   S    
C80   C97   A    
C160  H69   S    
C48   C64   S    
C81   C98   A    
C173  C190  A    
C174  C202  A    
C84   C102  A    
C14   H117  S    
C7    O26   A    
Cu1   O14   S    
C114  H131  S    
C86   C122  S    
C37   H81   S    
Cu7   O45   S    
Cu10  O25   S    
C180  C207  A    
C39   H83   S    
C64   N16   A    
C90   C97   A    
C132  H28   S    
C13   C89   A    
C130  H19   S    
C109  H119  S    
Cu7   O34   S    
C31   C47   A    
C102  H98   S    
C176  C200  A    
C198  C215  S    
C216  O29   A    
C147  H56   S    
C134  H32   S    
C151  H60   S    
C223  O10   A    
C159  C208  S    
C90   C133  S    
C19   H13   S    
C110  H122  S    
C121  H153  S    
C8    H1    S    
C105  H105  S    
C128  H14   S    
C103  H97   S    
C41   C50   A    
C119  H146  S    
C88   H93   S    
N3    N15   A    
C84   C120  S    
C123  H158  S    
C131  H23   S    
C13   C126  S    
C61   N8    A    
Cu5   O10   S    
C31   H76   S    
C104  C142  A    
C156  H65   S    
C127  H11   S    
C97   H102  S    
C77   C114  S    
C158  H67   S    
C197  C213  S    
C21   H35   S    
Cu9   O19   S    
C10   C28   A    
Cu10  O20   S    
C12   C30   A    
C136  H38   S    
C62   N5    A    
Cu4   O42   S    
C25   C42   A    
C99   C113  A    
C63   N4    A    
C116  H136  S    
C172  C189  A    
C98   C101  A    
C28   C43   A    
C170  O48   A    
C166  C197  A    
C112  C206  S    
Cu5   Cu7   S    
C24   C146  A    
C152  C169  A    
C32   H77   S    
C114  H129  S    
C150  C167  A    
Cu12  O30   S    
C27   H71   S    
C35   C128  S    
C160  C177  A    
C164  C182  A    
C120  H149  S    
Cu3   O39   S    
C141  C158  A    
C126  H7    S    
Cu2   O35   S    
C176  C194  A    
C161  C178  A    
C23   H57   S    
C18   C36   A    
C12   C54   A    
C36   C49   A    
C15   H128  S    
C135  C138  S    
C111  H127  S    
C49   C63   S    
C138  H43   S    
C167  C196  A    
C91   H96   S    
C51   C61   S    
C74   C109  S    
C133  H30   S    
C101  C134  S    
Cu7   O15   S    
C170  C209  S    
C162  C197  A    
C122  H156  S    
C173  C204  A    
C220  O42   A    
N8    N10   A    
C40   H85   S    
C42   H87   S    
C98   H101  S    
Cu12  O28   S    
N2    N12   A    
C151  C168  A    
C178  C205  A    
Cu5   O47   S    
C71   C179  A    
Cu8   O5    S    
C17   H150  S    
C102  C135  A    
C54   C224  S    
C10   H84   S    
C122  H157  S    
C113  C136  S    
Cu5   O12   S    
C221  O41   A    
C2    C88   A    
Cu2   O31   S    
C127  H9    S    
C1    C205  S    
C125  H3    S    
Cu11  O6    S    
C12   H106  S    
C42   C51   A    
C155  C173  A    
C179  C206  A    
C11   H95   S    
C117  H138  S    
C82   C190  A    
C63   N2    A    
C26   C43   A    
C199  C216  S    
C128  H12   S    
C185  C205  A    
C73   C91   A    
C215  O35   A    
C189  C211  A    
C70   C178  A    
C74   C183  A    
C77   C95   A    
C38   H82   S    
C119  H147  S    
C202  C219  S    
C171  C201  A    
N7    N11   A    
C192  C211  S    
C33   H78   S    
C16   C33   A    
C120  H151  S    
C20   C38   A    
Cu3   O37   S    
C21   C39   A    
C72   C107  S    
C84   C193  A    
C22   C40   A    
C57   C150  A    
C153  C171  A    
C106  H111  S    
C154  C172  A    
C96   H103  S    
C35   C147  A    
C37   C48   A    
C125  H5    S    
Cu9   Cu11  S    
C162  C179  A    
C157  C175  A    
C143  C214  A    
C92   H90   S    
C192  O3    A    
C158  C176  A    
C111  H125  S    
C154  H63   S    
C124  C156  A    
C50   C62   S    
C203  C212  S    
C69   N10   A    
C69   N1    A    
C24   C91   A    
C118  H142  S    
C163  C180  A    
C130  H21   S    
C175  C201  A    
Cu7   O13   S    
C65   N13   A    
C144  C162  A    
C109  H120  S    
C149  C166  A    
C142  C160  A    
C11   C53   A    
C203  O4    A    
C213  O31   A    
C93   H89   S    
C144  H53   S    
C139  H47   S    
C16   C55   A    
C218  O36   A    
C194  C209  A    
C126  H8    S    
C72   C89   A    
C159  O34   A    
C181  O2    A    
C46   C93   A    
C79   C132  S    
Cu3   O36   S    
C219  O37   A    
Cu8   O22   S    
C181  O6    A    
C129  H16   S    
C39   C50   A    
C9    C53   A    
C129  H18   S    
C11   C29   A    
C29   H74   S    
C117  H140  S    
C45   C66   S    
C89   H92   S    
C47   C65   S    
N5    N9    A    
C130  H20   S    
