data_mof_unit_13511.cif
_audit_creation_date              2013-03-05T15:53:46-0500
_audit_creation_method            fapswitch 2.2
_symmetry_space_group_name_H-M    P1
_symmetry_Int_Tables_number       1
_space_group_crystal_system       triclinic
_cell_length_a                    10.656337
_cell_length_b                    10.69995
_cell_length_c                    10.012233
_cell_angle_alpha                 91.627955
_cell_angle_beta                  90.597486
_cell_angle_gamma                 95.378876
_cell_volume                      1136.03350081

loop_
_atom_site_label
_atom_site_type_symbol
_atom_site_description
_atom_site_fract_x
_atom_site_fract_y
_atom_site_fract_z
_atom_type_partial_charge
O1    O     O_R   0.500000 0.316780 0.614690 -0.559827
O2    O     O_R   0.499990 0.316750 0.385360 -0.657320
C1    C     C_R   0.509073 0.262115 0.497785 0.919103
O3    O     O_R   0.314800 0.499990 0.614670 -0.617258
O4    O     O_R   0.314790 0.499970 0.385330 -0.653931
C2    C     C_R   0.258171 0.500876 0.500050 0.869608
Zn1   Zn    Zn3+2 0.500010 0.500020 0.653130 1.005151
Zn2   Zn    Zn3+2 0.499990 0.499980 0.346870 0.973195
O5    O     O_R   0.500010 0.683250 0.614640 -0.600999
O6    O     O_R   0.500000 0.683220 0.385310 -0.605755
O7    O     O_R   0.685210 0.500030 0.614670 -0.610340
O8    O     O_R   0.685200 0.500010 0.385330 -0.586533
C3    C     C_R   0.498054 0.740297 0.503122 0.887432
C4    C     C_R   0.742192 0.501843 0.500723 0.844448
C5    C     C_3   0.072810 0.504207 0.647494 -0.380305
H1    H     H_    0.120371 0.585116 0.706804 0.180428
H2    H     H_    0.092529 0.416823 0.697576 0.211914
C6    C     C_3   0.931518 0.513747 0.647231 -0.372720
H3    H     H_    0.885709 0.438866 0.710333 0.187954
H4    H     H_    0.913012 0.606355 0.691479 0.210071
H5    H     H_    0.120480 0.706919 0.492192 0.181472
H6    H     H_    0.906149 0.704538 0.459874 0.177039
C7    C     C_3   0.083799 0.621284 0.433096 -0.446620
C8    C     C_3   0.059623 0.384206 0.425877 -0.331869
C9    C     C_3   0.121715 0.502514 0.501597 0.143168
H7    H     H_    0.085366 0.389718 0.319021 0.184191
H8    H     H_    0.093332 0.297411 0.466058 0.235506
C10   C     C_3   0.879055 0.502199 0.501971 0.134818
C11   C     C_3   0.939485 0.614576 0.422552 -0.342510
C12   C     C_3   0.915712 0.378281 0.436548 -0.433697
H9    H     H_    0.880793 0.297262 0.497696 0.165657
H10   H     H_    0.872577 0.362591 0.334968 0.204404
H11   H     H_    0.124508 0.628945 0.331339 0.195910
H12   H     H_    0.913192 0.600324 0.315369 0.249910
H13   H     H_    0.420098 0.100693 0.305653 0.189689
C13   C     C_R   0.666184 0.148362 0.690800 -0.136073
H14   H     H_    0.704092 0.243075 0.669898 0.125203
C14   C     C_R   0.698697 0.098556 0.811790 -0.114323
H15   H     H_    0.759612 0.154207 0.882613 0.168746
C15   C     C_R   0.645863 0.980020 0.844588 -0.100353
H16   H     H_    0.663493 0.944631 0.942397 0.185465
C16   C     C_R   0.570245 0.907105 0.751422 -0.047639
H17   H     H_    0.523152 0.821485 0.787229 0.184050
C17   C     C_R   0.550339 0.950071 0.620979 0.100717
C18   C     C_R   0.583329 0.077322 0.599772 0.118017
C19   C     C_R   0.525367 0.131625 0.492296 -0.113362
C20   C     C_R   0.463580 0.058736 0.389655 -0.144630
H18   H     H_    0.408823 0.875211 0.314059 0.197343
C21   C     C_R   0.453716 0.930678 0.396646 -0.153671
C22   C     C_R   0.496419 0.874878 0.510956 -0.159124
C23   C     C_R   0.318983 0.347382 0.138516 -0.212303
H19   H     H_    0.329556 0.330641 0.242393 0.229565
C24   C     C_R   0.210243 0.292867 0.073656 -0.061411
C25   C     C_R   0.196832 0.309069 0.937603 -0.287236
H20   H     H_    0.117220 0.257842 0.885824 0.210696
C26   C     C_R   0.302292 0.350134 0.863131 0.314567
C27   C     C_R   0.405766 0.425789 0.926693 0.036182
C28   C     C_R   0.409940 0.424237 0.070642 0.103923
N1    N     N_R   0.498810 0.498800 0.142780 -0.158164
C29   C     C_R   0.578363 0.581202 0.075078 -0.015390
C30   C     C_R   0.588329 0.571645 0.933351 -0.076134
N2    N     N_R   0.498760 0.498720 0.857170 -0.155035
C31   C     C_2   0.632568 0.697279 0.144617 1.002101
O9    O     O_2   0.584315 0.794902 0.127461 -0.693284
O10   O     O_R   0.738617 0.697295 0.226601 -0.783444
H21   H     H_    0.765787 0.783445 0.267648 0.325129
C32   C     C_2   0.116835 0.207180 0.143526 0.910015
O11   O     O_2   0.146049 0.159439 0.247597 -0.655041
O12   O     O_R   0.995634 0.178984 0.089222 -0.817225
H22   H     H_    0.940682 0.119537 0.145983 0.344425
N3    N     N_R   0.322472 0.262406 0.758424 0.241778
O13   O     O_R   0.241963 0.246343 0.659448 -0.452423
O14   O     O_R   0.385677 0.168457 0.788648 -0.389864
C33   C     C_2   0.703253 0.636392 0.874736 0.879399
O15   O     O_2   0.699176 0.689783 0.769472 -0.626307
O16   O     O_R   0.817629 0.640600 0.945527 -0.811346
H23   H     H_    0.887853 0.695585 0.902866 0.335077

loop_
_geom_bond_atom_site_label_1
_geom_bond_atom_site_label_2
_geom_bond_distance
_ccdc_geom_bond_type
C5    C6    1.518609 S    
C14   C15   1.388204 A    
C31   O10   1.389787 S    
C15   H16   1.080861 S    
H6    C11   1.113041 S    
C8    H8    1.110908 S    
H13   C20   1.084405 S    
C27   N2    1.405619 A    
C20   C21   1.368225 A    
C18   C19   1.402144 A    
Zn1   O7    2.014698 S    
C32   O12   1.399190 S    
C33   O16   1.399932 S    
C29   C31   1.472748 S    
C7    C11   1.535188 S    
C10   C11   1.553260 S    
C8    H7    1.109064 S    
Zn2   N1    2.042977 S    
C12   H9    1.113214 S    
O7    C4    1.297755 A    
C5    C9    1.556238 S    
C2    C9    1.456107 S    
C5    H1    1.114115 S    
C26   C27   1.436976 A    
C5    H2    1.109549 S    
C6    H3    1.114124 S    
O5    C3    1.288529 A    
C19   C20   1.393536 A    
C7    H11   1.113642 S    
C15   C16   1.397591 A    
N1    C29   1.364311 A    
O12   H22   1.013965 S    
C16   C17   1.417273 A    
O3    Zn1   2.006896 S    
C14   H15   1.082913 S    
C25   C26   1.398394 A    
C33   O15   1.215287 D    
C23   H19   1.066954 S    
C6    C10   1.550138 S    
C8    C9    1.546930 S    
O3    C2    1.291704 A    
N3    O14   1.302201 A    
C28   N1    1.366158 A    
C24   C25   1.385664 A    
C11   H12   1.108966 S    
C3    C22   1.441666 S    
C29   C30   1.425569 A    
C23   C24   1.393114 A    
C32   O11   1.223468 D    
Zn1   N2    2.043513 S    
Zn2   O8    2.006899 S    
C26   N3    1.418822 S    
C13   C18   1.416339 A    
C23   C28   1.404856 A    
O16   H23   1.013397 S    
H18   C21   1.084196 S    
O8    C4    1.298416 A    
O10   H21   1.014096 S    
H5    C7    1.113418 S    
C16   H17   1.075122 S    
C17   C18   1.396717 A    
C17   C22   1.428537 A    
Zn1   O5    2.008780 S    
C25   H20   1.084640 S    
C13   H14   1.082161 S    
O1    Zn1   1.987308 S    
O2    Zn2   2.008780 S    
O6    C3    1.314050 A    
O4    Zn2   2.014697 S    
C30   C33   1.484312 S    
C1    C19   1.422657 S    
C4    C10   1.458022 S    
C10   C12   1.546870 S    
O2    C1    1.289910 A    
N3    O13   1.300976 A    
C12   H10   1.113513 S    
C27   C28   1.442090 A    
O4    C2    1.303201 A    
C13   C14   1.390689 A    
C6    H4    1.109306 S    
C7    C9    1.545525 S    
C30   N2    1.383128 A    
C24   C32   1.483453 S    
C8    C12   1.533899 S    
C31   O9    1.222323 D    
Zn2   O6    1.987308 S    
C21   C22   1.397259 A    
O1    C1    1.302135 A    
