data_mof_unit_50404.cif
_audit_creation_date              2013-03-05T15:39:51-0500
_audit_creation_method            fapswitch 2.2
_symmetry_space_group_name_H-M    P1
_symmetry_Int_Tables_number       1
_space_group_crystal_system       triclinic
_cell_length_a                    16.794656
_cell_length_b                    16.909011
_cell_length_c                    16.827941
_cell_angle_alpha                 65.329554
_cell_angle_beta                  66.079192
_cell_angle_gamma                 65.810822
_cell_volume                      3799.59383646

loop_
_atom_site_label
_atom_site_type_symbol
_atom_site_description
_atom_site_fract_x
_atom_site_fract_y
_atom_site_fract_z
_atom_type_partial_charge
O1    O     O_R   0.982940 0.138950 0.510160 -0.609742
O2    O     O_R   0.017060 0.861050 0.489840 -0.603264
O3    O     O_R   0.138950 0.510160 0.982940 -0.634178
O4    O     O_R   0.861050 0.489840 0.017060 -0.617660
O5    O     O_R   0.510160 0.982940 0.138950 -0.630453
O6    O     O_R   0.489840 0.017060 0.861050 -0.583865
O7    O     O_R   0.489840 0.861050 0.017060 -0.581400
O8    O     O_R   0.510160 0.138950 0.982940 -0.622430
O9    O     O_R   0.017060 0.489840 0.861050 -0.603447
O10   O     O_R   0.982940 0.510160 0.138950 -0.623798
O11   O     O_R   0.861050 0.017060 0.489840 -0.599891
O12   O     O_R   0.138950 0.982940 0.510160 -0.616085
C1    C     C_R   0.578003 0.079256 0.577565 -0.051632
C2    C     C_R   0.410860 0.985821 0.394142 0.121820
C3    C     C_R   0.053976 0.588962 0.581472 -0.029918
C4    C     C_R   0.985467 0.407484 0.393511 0.106063
C5    C     C_R   0.578655 0.575769 0.086129 -0.068930
C6    C     C_R   0.394168 0.408971 0.987987 0.086509
O13   O     O_R   0.867700 0.025880 0.612340 -0.634030
O14   O     O_R   0.132300 0.974120 0.387660 -0.585540
O15   O     O_R   0.025880 0.612340 0.867700 -0.586145
O16   O     O_R   0.974120 0.387660 0.132300 -0.616688
O17   O     O_R   0.612340 0.867700 0.025880 -0.693764
O18   O     O_R   0.387660 0.132300 0.974120 -0.556018
O19   O     O_R   0.387660 0.974120 0.132300 -0.547542
O20   O     O_R   0.612340 0.025880 0.867700 -0.672655
O21   O     O_R   0.132300 0.387660 0.974120 -0.569559
O22   O     O_R   0.867700 0.612340 0.025880 -0.634719
O23   O     O_R   0.974120 0.132300 0.387660 -0.640607
O24   O     O_R   0.025880 0.867700 0.612340 -0.572993
C7    C     C_R   0.970229 0.178718 0.432250 0.917260
C8    C     C_R   0.040146 0.821340 0.561760 1.000145
C9    C     C_R   0.179064 0.439631 0.958848 0.908207
C10   C     C_R   0.821766 0.562634 0.035567 1.037935
C11   C     C_R   0.439613 0.958476 0.179343 0.985681
C12   C     C_R   0.564814 0.031596 0.821386 0.922477
C13   C     C_R   0.564286 0.821083 0.034144 0.914441
C14   C     C_R   0.429968 0.177022 0.978296 0.998313
C15   C     C_R   0.038620 0.562482 0.820831 0.952610
C16   C     C_R   0.007160 0.424420 0.161752 0.979095
C17   C     C_R   0.821258 0.035134 0.563011 1.018590
C18   C     C_R   0.177278 0.977251 0.430765 0.938484
Zn1   Zn    Zn3+2 0.004880 0.004880 0.583590 1.028869
Zn2   Zn    Zn3+2 0.995120 0.995120 0.416410 1.039508
Zn3   Zn    Zn3+2 0.004880 0.583590 0.004880 1.015175
Zn4   Zn    Zn3+2 0.995120 0.416410 0.995120 1.019134
Zn5   Zn    Zn3+2 0.583590 0.004880 0.004880 0.935713
Zn6   Zn    Zn3+2 0.416410 0.995120 0.995120 1.100961
C19   C     C_R   0.535400 0.050430 0.532186 -0.189062
C20   C     C_R   0.458200 0.003352 0.441829 -0.167370
C21   C     C_R   0.021750 0.548040 0.536518 -0.191004
C22   C     C_R   0.982898 0.458689 0.450742 -0.149523
C23   C     C_R   0.534689 0.533600 0.054614 -0.192623
C24   C     C_R   0.444059 0.455351 0.005643 -0.173217
C25   C     C_R   0.578943 0.047104 0.441052 0.290141
C26   C     C_R   0.435034 0.973288 0.538200 0.232533
C27   C     C_R   0.997066 0.465442 0.586353 0.285441
C28   C     C_R   0.968341 0.553801 0.416394 0.263098
C29   C     C_R   0.449957 0.583443 0.033808 0.283480
C30   C     C_R   0.538486 0.417506 0.998670 0.262493
C31   C     C_R   0.530389 0.042192 0.391631 0.407413
C32   C     C_R   0.466859 0.003901 0.584696 0.324366
C33   C     C_R   0.397533 0.537373 0.028941 0.406144
C34   C     C_R   0.580485 0.450202 0.031917 0.325962
C35   C     C_R   0.996933 0.412624 0.538100 0.361472
C36   C     C_R   0.999977 0.595606 0.451061 0.311043
C37   C     C_R   0.538910 0.083303 0.667707 0.059871
C38   C     C_R   0.460063 0.941091 0.325801 0.059055
C39   C     C_R   0.074574 0.672964 0.537755 -0.003294
C40   C     C_R   0.944201 0.335742 0.432019 0.034448
C41   C     C_R   0.668393 0.537398 0.092464 -0.039712
C42   C     C_R   0.327180 0.458989 0.939426 0.083993
C43   C     C_R   0.314447 0.013327 0.416661 -0.023082
C44   C     C_R   0.666502 0.089789 0.539075 -0.000950
C45   C     C_R   0.412480 0.312427 0.018776 -0.067022
C46   C     C_R   0.540330 0.665536 0.092860 0.049528
C47   C     C_R   0.032863 0.426172 0.298774 -0.069626
C48   C     C_R   0.069688 0.542773 0.668902 0.021256
C49   C     C_R   0.597955 0.043212 0.725047 -0.167026
C50   C     C_R   0.410789 0.934913 0.278697 -0.273632
C51   C     C_R   0.067254 0.722825 0.591804 -0.188920
C52   C     C_R   0.976332 0.270544 0.385069 -0.201115
C53   C     C_R   0.725601 0.595619 0.047831 -0.141169
C54   C     C_R   0.278653 0.411320 0.933405 -0.284252
C55   C     C_R   0.272641 0.973031 0.390512 -0.135951
C56   C     C_R   0.724980 0.045679 0.596652 -0.128615
C57   C     C_R   0.388558 0.272027 0.974894 -0.136783
C58   C     C_R   0.598092 0.723982 0.049153 -0.177629
C59   C     C_R   0.027833 0.379080 0.249376 -0.117570
C60   C     C_R   0.065147 0.593421 0.721220 -0.191990
C61   C     C_R   0.690001 0.005780 0.688451 -0.179606
C62   C     C_R   0.323620 0.929707 0.323233 -0.160834
C63   C     C_R   0.076779 0.678950 0.678515 -0.083039
C64   C     C_R   0.024525 0.291585 0.292368 -0.088415
C65   C     C_R   0.689746 0.687727 0.010905 -0.169157
C66   C     C_R   0.322560 0.324617 0.928405 -0.151944
O25   O     O_3   0.449206 0.977019 0.679593 -0.662329
C67   C     C_3   0.371564 0.946902 0.735923 0.169617
H1    H     H_    0.369844 0.932628 0.807079 0.126789
H2    H     H_    0.378696 0.880048 0.733265 0.169942
C68   C     C_3   0.281626 0.019255 0.723844 -0.341836
H3    H     H_    0.270063 0.072488 0.752598 0.216223
H4    H     H_    0.283797 0.051988 0.651093 0.226836
C69   C     C_3   0.202527 0.977733 0.773061 -0.921644
H5    H     H_    0.213731 0.923444 0.745575 0.284726
H6    H     H_    0.138216 0.030764 0.762502 0.256078
H7    H     H_    0.195665 0.948522 0.847341 0.247368
O26   O     O_3   0.542696 0.080364 0.297300 -0.624101
C70   C     C_3   0.630277 0.088925 0.243199 0.182225
H8    H     H_    0.638493 0.089724 0.173968 0.146032
H9    H     H_    0.685305 0.028513 0.264871 0.155214
C71   C     C_3   0.640212 0.179225 0.233037 -0.339056
H10   H     H_    0.613668 0.233429 0.176108 0.237136
H11   H     H_    0.599295 0.200199 0.295455 0.213288
C72   C     C_3   0.739546 0.172115 0.213437 -0.859946
H12   H     H_    0.765538 0.124595 0.272739 0.300169
H13   H     H_    0.745539 0.239901 0.199508 0.282237
H14   H     H_    0.782298 0.146548 0.153894 0.230959
O27   O     O_3   0.024381 0.674360 0.394491 -0.648621
C73   C     C_3   0.950468 0.750688 0.373577 0.172537
H15   H     H_    0.940740 0.799801 0.406868 0.149927
H16   H     H_    0.885382 0.734972 0.398409 0.131884
C74   C     C_3   0.974552 0.795653 0.270202 -0.287452
H17   H     H_    0.030507 0.825318 0.249583 0.224149
H18   H     H_    0.998848 0.743690 0.234975 0.259952
C75   C     C_3   0.894082 0.870770 0.239145 -1.030949
H19   H     H_    0.835389 0.844129 0.262141 0.271944
H20   H     H_    0.913886 0.896983 0.163539 0.270088
H21   H     H_    0.874224 0.928055 0.265900 0.259224
O28   O     O_3   0.007062 0.318877 0.569991 -0.629939
C76   C     C_3   0.020425 0.269105 0.657027 0.180028
H22   H     H_    0.007665 0.203008 0.676694 0.130514
H23   H     H_    0.968687 0.298462 0.711042 0.154361
C77   C     C_3   0.118805 0.247269 0.655323 -0.392102
H24   H     H_    0.160792 0.185944 0.632677 0.212453
H25   H     H_    0.147962 0.302856 0.604574 0.213021
C78   C     C_3   0.124619 0.230664 0.749510 -0.871532
H26   H     H_    0.076952 0.288049 0.776619 0.307986
H27   H     H_    0.194648 0.224396 0.744933 0.287263
H28   H     H_    0.106461 0.167727 0.798004 0.249513
O29   O     O_3   0.661047 0.393319 0.052595 -0.638327
C79   C     C_3   0.736591 0.400855 0.974366 0.124743
H29   H     H_    0.747563 0.468177 0.951843 0.140289
H30   H     H_    0.727906 0.392297 0.917056 0.139879
C80   C     C_3   0.820547 0.325919 0.999367 -0.349328
H31   H     H_    0.830049 0.332508 0.057628 0.260343
H32   H     H_    0.809414 0.258958 0.020295 0.221714
C81   C     C_3   0.907301 0.328336 0.920593 -0.894711
H33   H     H_    0.907835 0.301075 0.870735 0.230255
H34   H     H_    0.967349 0.284699 0.946688 0.259004
H35   H     H_    0.912933 0.398608 0.886532 0.303667
O30   O     O_3   0.302082 0.561034 0.054515 -0.614096
C82   C     C_3   0.252972 0.650448 0.059092 0.215093
H36   H     H_    0.184602 0.664926 0.052908 0.144360
H37   H     H_    0.280393 0.702687 0.999500 0.137527
C83   C     C_3   0.237937 0.659177 0.151729 -0.361153
H38   H     H_    0.179691 0.633663 0.202498 0.218969
H39   H     H_    0.298259 0.616827 0.177216 0.220038
C84   C     C_3   0.217681 0.757881 0.145530 -0.847031
H40   H     H_    0.276943 0.783755 0.099265 0.303891
H41   H     H_    0.203152 0.762551 0.214231 0.302258
H42   H     H_    0.157844 0.801262 0.119016 0.227586
O31   O     O_3   0.377521 0.918568 0.585155 -0.652851
C85   C     C_3   0.427756 0.828339 0.583487 0.085674
H43   H     H_    0.482478 0.801139 0.617246 0.137034
H44   H     H_    0.459227 0.824319 0.512631 0.188280
C86   C     C_3   0.363663 0.768620 0.634032 -0.349516
H45   H     H_    0.334727 0.767438 0.706637 0.234066
H46   H     H_    0.306701 0.797590 0.602944 0.222590
C87   C     C_3   0.413411 0.671577 0.629194 -0.901998
H47   H     H_    0.440262 0.671062 0.557188 0.250160
H48   H     H_    0.365650 0.629438 0.667306 0.258420
H49   H     H_    0.470724 0.641176 0.659918 0.287293
O32   O     O_3   0.672687 0.028404 0.410050 -0.666839
C88   C     C_3   0.717064 0.932965 0.429903 0.070592
H50   H     H_    0.790126 0.923958 0.416331 0.170739
H51   H     H_    0.712931 0.905885 0.382602 0.184588
C89   C     C_3   0.683824 0.874821 0.528963 -0.309809
H52   H     H_    0.685680 0.901653 0.577901 0.257963
H53   H     H_    0.613892 0.874121 0.542752 0.220723
C90   C     C_3   0.740814 0.776341 0.545580 -1.022042
H54   H     H_    0.742448 0.748122 0.495926 0.264824
H55   H     H_    0.708484 0.736934 0.614331 0.277162
H56   H     H_    0.810534 0.769833 0.542142 0.273424
O33   O     O_3   0.588320 0.339289 0.972688 -0.633797
C91   C     C_3   0.606031 0.360097 0.877610 0.095352
H57   H     H_    0.629965 0.422007 0.838540 0.111361
H58   H     H_    0.544103 0.371566 0.860563 0.160886
C92   C     C_3   0.679616 0.279418 0.847467 -0.364486
H59   H     H_    0.743269 0.268512 0.861366 0.209659
H60   H     H_    0.657101 0.217009 0.886990 0.250201
C93   C     C_3   0.699088 0.295549 0.746157 -0.927308
H61   H     H_    0.637506 0.302060 0.731399 0.266578
H62   H     H_    0.755009 0.237353 0.725593 0.261666
H63   H     H_    0.719955 0.358675 0.706034 0.291235
O34   O     O_3   0.422724 0.676951 0.013076 -0.655653
C94   C     C_3   0.445068 0.718668 0.917135 0.071432
H64   H     H_    0.413338 0.792639 0.906758 0.158648
H65   H     H_    0.413893 0.699258 0.883750 0.167906
C95   C     C_3   0.548262 0.700564 0.869885 -0.379828
H66   H     H_    0.584219 0.694447 0.914951 0.259539
H67   H     H_    0.575877 0.635604 0.853130 0.196977
C96   C     C_3   0.569954 0.777355 0.783225 -0.902721
H68   H     H_    0.541508 0.782121 0.731855 0.260997
H69   H     H_    0.644675 0.764084 0.754909 0.275797
H70   H     H_    0.542155 0.842994 0.798558 0.288015
O35   O     O_3   0.937755 0.602954 0.339337 -0.642697
C97   C     C_3   0.843458 0.613383 0.361845 0.044036
H71   H     H_    0.804168 0.683037 0.366770 0.154633
H72   H     H_    0.816708 0.564908 0.427893 0.178300
C98   C     C_3   0.824448 0.602160 0.286234 -0.270051
H73   H     H_    0.856172 0.645187 0.218957 0.241925
H74   H     H_    0.854279 0.530002 0.287233 0.235935
C99   C     C_3   0.722563 0.628895 0.298802 -0.938372
H75   H     H_    0.689425 0.586187 0.365343 0.274986
H76   H     H_    0.711595 0.618649 0.243372 0.267580
H77   H     H_    0.690633 0.701593 0.295957 0.267739
O36   O     O_3   0.959363 0.446712 0.679981 -0.628897
C100  C     C_3   0.863565 0.464747 0.701904 0.063824
H78   H     H_    0.837669 0.428833 0.774474 0.144016
H79   H     H_    0.844622 0.437597 0.664337 0.155191
C101  C     C_3   0.813157 0.566067 0.686237 -0.450171
H80   H     H_    0.841532 0.603970 0.614872 0.231343
H81   H     H_    0.740348 0.576540 0.696191 0.183253
C102  C     C_3   0.818957 0.603671 0.751248 -0.671516
H82   H     H_    0.769087 0.586211 0.818664 0.220266
H83   H     H_    0.803085 0.678756 0.723381 0.277043
H84   H     H_    0.887870 0.576133 0.760361 0.290514
C103  C     C_2   0.442601 0.139157 0.692692 0.435305
H85   H     H_    0.399277 0.158031 0.650382 0.054626
O37   O     O_2   0.411981 0.169599 0.756617 -0.601326
C104  C     C_2   0.558842 0.891172 0.309013 0.368541
H86   H     H_    0.597640 0.873962 0.246044 0.082240
O38   O     O_2   0.596735 0.862060 0.368161 -0.661284
C105  C     C_2   0.144450 0.683203 0.447580 0.449910
H87   H     H_    0.177547 0.627184 0.418508 0.077830
O39   O     O_2   0.167046 0.752842 0.405242 -0.603060
C106  C     C_2   0.865098 0.331448 0.514988 0.461425
H88   H     H_    0.843332 0.270358 0.550879 0.059602
O40   O     O_2   0.820047 0.398171 0.541316 -0.645555
C107  C     C_2   0.689162 0.450451 0.165713 0.428687
H89   H     H_    0.640209 0.411682 0.202279 0.096685
O41   O     O_2   0.757978 0.423154 0.189373 -0.579737
C108  C     C_2   0.315334 0.555456 0.882527 0.403510
H90   H     H_    0.252416 0.596123 0.864173 0.073937
O42   O     O_2   0.378108 0.588683 0.849736 -0.649146
C109  C     C_2   0.260487 0.087869 0.459808 0.489898
H91   H     H_    0.289696 0.105860 0.494285 0.021527
O43   O     O_2   0.184905 0.135093 0.451345 -0.556463
C110  C     C_2   0.685597 0.162266 0.451234 0.460569
H92   H     H_    0.634502 0.199560 0.414701 0.062261
O44   O     O_2   0.755380 0.184421 0.420864 -0.591638
C111  C     C_2   0.446045 0.257537 0.101130 0.532065
H93   H     H_    0.467817 0.288260 0.130789 0.061684
O45   O     O_2   0.443711 0.179109 0.141124 -0.538495
C112  C     C_2   0.449949 0.687006 0.159481 0.466094
H94   H     H_    0.413791 0.636098 0.196669 0.048871
O46   O     O_2   0.416904 0.758667 0.177285 -0.613619
C113  C     C_2   0.097794 0.481629 0.253868 0.504362
H95   H     H_    0.114489 0.506430 0.293176 0.050211
O47   O     O_2   0.137653 0.496196 0.172620 -0.550124
C114  C     C_2   0.126988 0.446800 0.685419 0.444026
H96   H     H_    0.149969 0.414278 0.633800 0.052231
O48   O     O_2   0.156287 0.405790 0.751754 -0.600662
C115  C     C_2   0.747471 0.925067 0.742772 0.469842
H97   H     H_    0.733518 0.912059 0.814531 0.078722
O49   O     O_2   0.810342 0.869927 0.707006 -0.535671
C116  C     C_2   0.291436 0.873679 0.301451 0.582553
H98   H     H_    0.314944 0.800288 0.328085 0.087359
O50   O     O_2   0.242287 0.908556 0.251298 -0.492114
C117  C     C_2   0.120010 0.712738 0.714929 0.440129
H99   H     H_    0.193524 0.691536 0.699389 0.003140
O51   O     O_2   0.074202 0.763084 0.762569 -0.523602
C118  C     C_2   0.073038 0.226868 0.237121 0.510115
H100  H     H_    0.038889 0.186991 0.233200 0.095009
O52   O     O_2   0.151881 0.221602 0.190959 -0.539849
C119  C     C_2   0.748768 0.743199 0.935849 0.435370
H101  H     H_    0.755755 0.800556 0.942773 0.093716
O53   O     O_2   0.795516 0.720091 0.867362 -0.562024
C120  C     C_2   0.298193 0.294273 0.872524 0.582521
H102  H     H_    0.316797 0.324021 0.799044 0.078900
O54   O     O_2   0.252299 0.241527 0.907980 -0.483704

loop_
_geom_bond_atom_site_label_1
_geom_bond_atom_site_label_2
_geom_bond_distance
_ccdc_geom_bond_type
C38   C50   1.412787 A    
O14   C18   1.268363 A    
C96   H68   1.107794 S    
C86   C87   1.526464 S    
C75   H19   1.110577 S    
C52   C64   1.401406 A    
C94   C95   1.542885 S    
C105  O39   1.218509 D    
O26   C70   1.411321 S    
C42   C108  1.483849 S    
C13   C58   1.445019 S    
O31   C85   1.414916 S    
C83   C84   1.526523 S    
C81   H35   1.108588 S    
O1    C7    1.260943 A    
C76   C77   1.528922 S    
C77   C78   1.527105 S    
C71   H11   1.107780 S    
O25   C67   1.413167 S    
C23   C29   1.425765 A    
O36   C100  1.424128 S    
C74   H17   1.109829 S    
C88   H51   1.105966 S    
C24   C30   1.420683 A    
C90   H54   1.109118 S    
O21   C9    1.291703 A    
C17   C56   1.439616 S    
C78   H27   1.109775 S    
C26   O31   1.384423 S    
C47   C59   1.413103 A    
C6    C45   1.428165 A    
C7    C52   1.444647 S    
O6    Zn6   2.041685 S    
C65   C119  1.488390 S    
O10   C16   1.262328 A    
C85   H43   1.112558 S    
C102  H83   1.109004 S    
C120  O54   1.221363 D    
C107  H89   1.085815 S    
O12   Zn1   2.043601 S    
C56   C61   1.380387 A    
C70   H9    1.104201 S    
C84   H40   1.110054 S    
C111  H93   1.082964 S    
C23   C34   1.431290 A    
C99   H76   1.111028 S    
C74   H18   1.111194 S    
C3    C48   1.425114 A    
C87   H47   1.110928 S    
O3    C9    1.250675 A    
C12   C49   1.438287 S    
C110  O44   1.220373 D    
C72   H12   1.108389 S    
C25   C31   1.423602 A    
C11   C50   1.460832 S    
O9    C15   1.252860 A    
C102  H84   1.105679 S    
C108  H90   1.084767 S    
O2    C8    1.246893 A    
C118  H100  1.082902 S    
C54   C66   1.366345 A    
C59   C64   1.362546 A    
C94   H65   1.109404 S    
C31   O26   1.402520 S    
O32   C88   1.427434 S    
C71   H10   1.111330 S    
O12   C18   1.252109 A    
C44   C110  1.488340 S    
O29   C79   1.413119 S    
O1    Zn1   2.036691 S    
C98   H73   1.111673 S    
O2    Zn2   2.036691 S    
C97   H71   1.108918 S    
C72   H13   1.109041 S    
C112  O46   1.217830 D    
C5    C46   1.419444 A    
O18   C14   1.267611 A    
C105  H87   1.086462 S    
C84   H41   1.110836 S    
C21   C27   1.428477 A    
C3    C21   1.555607 S    
C16   C59   1.461462 S    
C82   H37   1.103333 S    
C115  H97   1.073557 S    
C46   C58   1.434899 A    
C15   C60   1.461278 S    
C49   C61   1.386044 A    
C73   C74   1.531376 S    
C114  H96   1.076496 S    
C90   H55   1.104914 S    
C58   C65   1.382804 A    
C53   C65   1.378903 A    
O9    Zn4   2.032187 S    
C68   H4    1.105049 S    
C119  H101  1.080132 S    
C57   C66   1.395016 A    
O23   C7    1.262235 A    
C48   C114  1.482368 S    
C79   C80   1.530554 S    
C94   H64   1.107157 S    
O8    C14   1.251894 A    
O15   Zn3   2.057454 S    
C40   C52   1.422878 A    
C96   H69   1.107151 S    
C69   H6    1.109576 S    
C69   H5    1.111011 S    
O14   Zn2   2.058434 S    
C55   C62   1.394191 A    
O13   Zn1   2.058434 S    
C80   H31   1.109821 S    
C88   C89   1.544026 S    
C41   C53   1.424456 A    
C109  O43   1.220738 D    
C6    C42   1.427447 A    
C3    C39   1.415050 A    
C78   H28   1.109353 S    
C106  O40   1.219630 D    
O22   Zn3   2.057777 S    
O17   Zn5   2.067536 S    
C113  H95   1.081833 S    
C80   H32   1.108243 S    
O35   C97   1.422353 S    
C66   C120  1.483887 S    
C68   H3    1.107337 S    
C89   H52   1.108763 S    
C96   H70   1.110453 S    
C37   C49   1.432817 A    
C81   H33   1.108976 S    
C41   C107  1.489330 S    
C86   H46   1.112085 S    
C70   C71   1.534963 S    
C27   C35   1.437168 A    
C100  H78   1.102688 S    
C111  O45   1.220344 D    
C99   H75   1.110869 S    
C95   H66   1.097826 S    
C74   C75   1.524724 S    
O4    Zn4   2.040917 S    
C30   O33   1.385530 S    
C75   H21   1.108926 S    
C76   H23   1.100146 S    
C110  H92   1.082925 S    
O17   C13   1.277031 A    
O3    Zn3   2.040917 S    
C48   C60   1.426810 A    
C107  O41   1.220604 D    
C21   C36   1.438226 A    
O18   Zn6   2.067538 S    
C50   C62   1.368731 A    
C92   C93   1.523353 S    
C93   H63   1.109541 S    
C25   O32   1.383671 S    
C77   H25   1.104781 S    
C103  H85   1.085505 S    
C8    C51   1.449092 S    
C100  H79   1.112070 S    
C32   O25   1.401859 S    
C51   C63   1.376037 A    
C2    C43   1.419212 A    
C89   H53   1.105206 S    
C88   H50   1.108895 S    
O15   C15   1.284128 A    
C109  H91   1.081785 S    
C72   H14   1.109138 S    
O16   C16   1.304891 A    
C112  H94   1.082538 S    
O10   Zn3   2.032187 S    
C104  O38   1.218994 D    
C102  H82   1.108236 S    
O7    C13   1.240749 A    
C84   H42   1.110563 S    
C4    C40   1.428428 A    
O11   Zn2   2.043601 S    
C18   C55   1.447732 S    
C63   C117  1.490642 S    
C44   C56   1.423976 A    
C82   C83   1.535592 S    
C101  H81   1.111698 S    
C115  O49   1.221789 D    
O19   Zn6   2.059250 S    
C43   C55   1.429606 A    
C42   C54   1.413392 A    
C22   C28   1.413061 A    
O20   Zn5   2.059249 S    
O19   C11   1.286142 A    
C1    C19   1.540220 S    
C27   O36   1.386517 S    
O21   Zn4   2.057779 S    
O20   C12   1.277583 A    
O16   Zn4   2.057454 S    
C116  O50   1.221457 D    
C5    C41   1.405327 A    
C68   C69   1.526531 S    
C67   H2    1.105054 S    
C36   O27   1.385690 S    
C119  O53   1.219859 D    
O23   Zn2   2.066402 S    
C47   C113  1.489200 S    
C26   C32   1.438682 A    
O24   Zn1   2.066403 S    
C91   H57   1.116092 S    
C10   C53   1.431656 S    
C91   H58   1.109898 S    
C76   H22   1.111091 S    
C5    C23   1.549074 S    
C86   H45   1.111499 S    
C80   C81   1.522852 S    
C73   H15   1.110463 S    
C73   H16   1.102280 S    
C60   C63   1.377029 A    
C28   C36   1.423251 A    
C1    C37   1.406739 A    
C90   H56   1.109638 S    
C45   C57   1.435255 A    
C117  O51   1.221535 D    
C106  H88   1.083988 S    
C83   H38   1.110566 S    
C95   H67   1.111808 S    
C75   H20   1.110269 S    
C19   C32   1.435916 A    
C98   H74   1.108485 S    
C85   C86   1.527441 S    
C4    C22   1.520128 S    
C81   H34   1.110457 S    
O34   C94   1.421221 S    
C45   C111  1.493575 S    
C99   H77   1.110126 S    
C64   C118  1.493321 S    
C114  O48   1.220131 D    
O27   C73   1.411628 S    
C77   H24   1.109247 S    
C43   C109  1.493812 S    
C29   O34   1.380994 S    
C67   C68   1.531869 S    
C78   H26   1.107839 S    
C29   C33   1.436159 A    
C101  C102  1.525932 S    
C35   O28   1.404497 S    
C14   C57   1.451750 S    
C30   C34   1.419163 A    
O7    Zn6   2.043489 S    
O6    C12   1.235525 A    
C83   H39   1.106586 S    
O28   C76   1.409471 S    
C95   C96   1.523629 S    
O8    Zn5   2.043487 S    
C120  H102  1.084373 S    
C103  O37   1.217904 D    
C113  O47   1.220618 D    
C19   C25   1.420804 A    
C70   H8    1.111073 S    
C93   H61   1.111587 S    
C100  C101  1.528626 S    
O24   C8    1.278302 A    
O33   C91   1.414940 S    
C2    C20   1.507660 S    
C87   H48   1.110022 S    
C28   O35   1.388064 S    
C91   C92   1.527519 S    
C97   C98   1.528899 S    
C34   O29   1.383041 S    
O5    C11   1.245298 A    
C85   H44   1.110326 S    
C104  H86   1.083602 S    
O5    Zn5   2.041685 S    
C108  O42   1.219204 D    
O11   C17   1.239197 A    
C118  O52   1.221349 D    
C69   H7    1.110906 S    
O4    C10   1.239037 A    
C39   C105  1.487586 S    
C92   H59   1.112079 S    
C46   C112  1.483542 S    
C9    C54   1.464308 S    
C20   C26   1.414914 A    
C33   O30   1.404903 S    
C89   C90   1.513065 S    
C39   C51   1.420459 A    
C6    C24   1.529818 S    
O22   C10   1.281839 A    
C62   C116  1.481313 S    
C38   C104  1.488586 S    
C98   C99   1.526267 S    
C1    C44   1.414320 A    
C37   C103  1.487639 S    
C97   H72   1.115941 S    
C67   H1    1.108713 S    
C24   C33   1.416038 A    
O13   C17   1.280059 A    
C20   C31   1.404859 A    
C2    C38   1.421524 A    
C79   H29   1.108405 S    
C4    C47   1.425320 A    
O30   C82   1.412740 S    
C40   C106  1.486541 S    
C92   H60   1.111803 S    
C82   H36   1.111074 S    
C61   C115  1.491423 S    
C101  H80   1.106233 S    
C71   C72   1.526082 S    
C79   H30   1.104606 S    
C22   C35   1.413505 A    
C117  H99   1.083952 S    
C93   H62   1.110620 S    
C116  H98   1.083707 S    
C87   H49   1.110986 S    
