data_mof_unit_28424.cif
_audit_creation_date              2012-12-11T15:08:53-0500
_audit_creation_method            fapswitch 2.2
_symmetry_space_group_name_H-M    P1
_symmetry_Int_Tables_number       1
_space_group_crystal_system       triclinic
_cell_length_a                    21.840593
_cell_length_b                    21.735914
_cell_length_c                    23.207779
_cell_angle_alpha                 90.195493
_cell_angle_beta                  89.928869
_cell_angle_gamma                 89.87592
_cell_volume                      11017.2201581

loop_
_atom_site_label
_atom_site_type_symbol
_atom_type_description
_atom_site_fract_x
_atom_site_fract_y
_atom_site_fract_z
_atom_type_partial_charge
C1    C     C_R   0.918844 0.154903 0.086289 -0.045334
C2    C     C_R   0.066282 0.140509 0.106173 -0.156482
C3    C     C_R   0.272737 0.693867 0.133887 0.544338
C4    C     C_R   0.338888 0.233245 0.851338 0.559465
C5    C     C_R   0.679188 0.812336 0.199497 0.552982
C6    C     C_R   0.270735 0.743237 0.825496 0.543667
C7    C     C_R   0.691518 0.289632 0.122725 0.540986
C8    C     C_R   0.268322 0.161110 0.349253 0.554395
C9    C     C_R   0.685640 0.815528 0.702265 0.555332
C10   C     C_R   0.214112 0.750507 0.339994 0.536024
C11   C     C_R   0.815140 0.224490 0.630582 0.556211
C12   C     C_R   0.819888 0.778878 0.370981 0.557139
C13   C     C_R   0.136060 0.935939 0.890721 -0.140552
C14   C     C_R   0.215759 0.237856 0.665289 0.552702
C15   C     C_R   0.802039 0.292255 0.315681 0.542758
C16   C     C_R   0.177000 0.775690 0.626731 0.539351
C17   C     C_R   0.860695 0.141184 0.104263 0.141733
C18   C     C_R   0.108603 0.889641 0.858959 0.192297
C19   C     C_R   0.116737 0.117934 0.134629 0.176385
C20   C     C_R   0.857048 0.857803 0.901841 0.141052
C21   C     C_R   0.132941 0.866365 0.116212 0.169217
C22   C     C_R   0.889997 0.111178 0.860116 0.191823
C23   C     C_R   0.878660 0.880569 0.132282 0.167678
C24   C     C_R   0.845603 0.082482 0.086931 -0.174229
C25   C     C_R   0.140878 0.139848 0.897451 0.143447
C26   C     C_R   0.357887 0.642994 0.598043 0.141661
C27   C     C_R   0.609676 0.389203 0.358979 0.187837
C28   C     C_R   0.613530 0.615646 0.637684 0.182932
C29   C     C_R   0.361525 0.359606 0.395529 0.147158
C30   C     C_R   0.639428 0.360668 0.604903 0.151288
C31   C     C_R   0.387103 0.613328 0.361577 0.181976
C32   C     C_R   0.383324 0.383451 0.635268 0.178289
C33   C     C_R   0.641151 0.643204 0.401526 0.138547
C34   C     C_R   0.798768 0.844774 0.816116 0.581202
C35   C     C_R   0.082548 0.154980 0.914730 -0.046182
C36   C     C_R   0.163964 0.130358 0.226623 0.580852
C37   C     C_R   0.865871 0.143267 0.763254 0.569905
C38   C     C_R   0.152987 0.823945 0.209546 0.550356
C39   C     C_R   0.159031 0.180297 0.803594 0.592728
C40   C     C_R   0.868020 0.842030 0.230073 0.591353
C41   C     C_R   0.135625 0.863253 0.760377 0.576298
C42   C     C_R   0.849495 0.202454 0.189620 0.584633
C43   C     C_R   0.321986 0.341339 0.301456 0.589016
C44   C     C_R   0.651443 0.627465 0.736428 0.604777
C45   C     C_R   0.349974 0.634843 0.265414 0.562966
C46   C     C_R   0.929059 0.856637 0.103589 -0.071094
C47   C     C_R   0.656063 0.309945 0.694745 0.587636
C48   C     C_R   0.651501 0.701351 0.315547 0.580761
C49   C     C_R   0.371111 0.335951 0.727543 0.553997
C50   C     C_R   0.629629 0.357870 0.259039 0.580466
C51   C     C_R   0.339760 0.692665 0.688128 0.599605
C52   C     C_R   0.815734 0.820660 0.869193 -0.181069
C53   C     C_R   0.153534 0.153740 0.171951 -0.184074
C54   C     C_R   0.855295 0.148224 0.822031 -0.190980
C55   C     C_R   0.168989 0.827490 0.151593 -0.184658
C56   C     C_R   0.179058 0.174449 0.860236 -0.174535
C57   C     C_R   0.863595 0.063901 0.891106 -0.148675
C58   C     C_R   0.842841 0.850639 0.175431 -0.178222
C59   C     C_R   0.142108 0.852876 0.819161 -0.186535
C60   C     C_R   0.824294 0.183004 0.137421 -0.183564
C61   C     C_R   0.327547 0.321255 0.358082 -0.175140
C62   C     C_R   0.643231 0.651787 0.681252 -0.185119
C63   C     C_R   0.350328 0.649317 0.323859 -0.195788
C64   C     C_R   0.677132 0.322548 0.639497 -0.185029
C65   C     C_R   0.677017 0.684513 0.368123 -0.178941
C66   C     C_R   0.348006 0.346102 0.672691 -0.189532
C67   C     C_R   0.644974 0.355717 0.317420 -0.194437
C68   C     C_R   0.151029 0.921703 0.093419 -0.160445
C69   C     C_R   0.320000 0.682068 0.632079 -0.177737
C70   C     C_R   0.789298 0.767334 0.891934 -0.076906
C71   C     C_R   0.185597 0.203778 0.149076 -0.077550
C72   C     C_R   0.813185 0.189656 0.845836 -0.084765
C73   C     C_R   0.212945 0.789358 0.126385 -0.086759
C74   C     C_R   0.238390 0.189903 0.877625 -0.100266
C75   C     C_R   0.781224 0.838463 0.163261 -0.097072
C76   C     C_R   0.180002 0.806786 0.841216 -0.087948
C77   C     C_R   0.769888 0.207668 0.115477 -0.079540
C78   C     C_R   0.312172 0.261710 0.375442 -0.098055
C79   C     C_R   0.416806 0.656299 0.582313 -0.038111
C80   C     C_R   0.657831 0.712869 0.667917 -0.101572
C81   C     C_R   0.310342 0.692290 0.348660 -0.052339
C82   C     C_R   0.733978 0.301840 0.619571 -0.083196
C83   C     C_R   0.730421 0.711294 0.389921 -0.077527
C84   C     C_R   0.297933 0.313931 0.650024 -0.078187
C85   C     C_R   0.697589 0.326193 0.337414 -0.048659
C86   C     C_R   0.263743 0.703589 0.611439 -0.085462
C87   C     C_3   0.879456 0.870191 0.759525 -0.235332
C88   C     C_3   0.075375 0.103450 0.271006 -0.252999
C89   C     C_3   0.879509 0.046225 0.729389 -0.192170
C90   C     C_R   0.563913 0.362497 0.391406 -0.135750
C91   C     C_3   0.140186 0.918371 0.250555 -0.124392
C92   C     C_3   0.063424 0.217106 0.784130 -0.241727
C93   C     C_3   0.959689 0.792445 0.235590 -0.211077
C94   C     C_3   0.131667 0.963258 0.733202 -0.206713
C95   C     C_3   0.885907 0.122564 0.242839 -0.254989
C96   C     C_3   0.285724 0.437653 0.282402 -0.229875
C97   C     C_3   0.692586 0.531091 0.742505 -0.235907
C98   C     C_3   0.446997 0.620908 0.232058 -0.176980
C99   C     C_3   0.560409 0.274588 0.714833 -0.225104
C100  C     C_3   0.623674 0.620053 0.259996 -0.237055
C101  C     C_R   0.639678 0.567516 0.606850 -0.091308
C102  C     C_3   0.398425 0.424783 0.772212 -0.167446
C103  C     C_3   0.527684 0.344461 0.242507 -0.202962
C104  C     C_3   0.435435 0.726965 0.710042 -0.284048
C105  C     C_3   0.778795 0.606630 0.923103 -0.269320
C106  C     C_3   0.221601 0.358282 0.104962 -0.254744
C107  C     C_3   0.662907 0.207171 0.898088 -0.238674
C108  C     C_3   0.222400 0.651841 0.057786 -0.219913
C109  C     C_3   0.395042 0.157421 0.892495 -0.269629
C110  C     C_3   0.636504 0.900566 0.166428 -0.265596
C111  C     C_3   0.325852 0.790361 0.895659 -0.218318
C112  C     C_R   0.060963 0.865111 0.890061 -0.126922
C113  C     C_R   0.345800 0.417823 0.413467 -0.048432
C114  C     C_3   0.714188 0.326283 0.033772 -0.206299
C115  C     C_3   0.343890 0.104184 0.389614 -0.270212
C116  C     C_3   0.596667 0.857334 0.670512 -0.276977
C117  C     C_3   0.216121 0.811133 0.420802 -0.188720
C118  C     C_3   0.791563 0.177377 0.546243 -0.283056
C119  C     C_3   0.891133 0.723216 0.419867 -0.259423
C120  C     C_3   0.143608 0.278943 0.605834 -0.244792
C121  C     C_3   0.835804 0.255716 0.402635 -0.223903
C122  C     C_3   0.107146 0.731260 0.567154 -0.236412
C123  C     C_1   0.807017 0.748233 0.949425 0.191086
C124  C     C_R   0.581602 0.345549 0.586543 -0.044939
C125  C     C_1   0.172575 0.223101 0.090303 0.192456
C126  C     C_1   0.815882 0.203772 0.907163 0.190953
C127  C     C_1   0.236765 0.804382 0.069778 0.194169
C128  C     C_1   0.255518 0.181524 0.937632 0.208589
C129  C     C_1   0.759938 0.839326 0.103769 0.197938
C130  C     C_1   0.172236 0.786017 0.900340 0.196148
C131  C     C_1   0.741668 0.179282 0.065514 0.192723
C132  C     C_1   0.320458 0.244523 0.435463 0.206551
C133  C     C_1   0.658335 0.732973 0.608036 0.193729
C134  C     C_1   0.321903 0.713612 0.407128 0.170148
C135  C     C_R   0.435795 0.637653 0.391837 -0.157292
C136  C     C_1   0.761053 0.328456 0.568259 0.180678
C137  C     C_1   0.750734 0.693967 0.447162 0.193584
C138  C     C_1   0.279010 0.326157 0.590999 0.192346
C139  C     C_1   0.700917 0.308652 0.397694 0.158964
C140  C     C_1   0.243505 0.684133 0.554698 0.187278
C141  C     C_1   0.208812 0.068792 0.331549 0.243788
C142  C     C_1   0.731973 0.913714 0.727498 0.239293
C143  C     C_1   0.112176 0.796009 0.328226 0.205107
C144  C     C_1   0.904850 0.159631 0.642525 0.251528
C145  C     C_1   0.902358 0.852894 0.353055 0.239934
C146  C     C_R   0.360188 0.433817 0.606518 -0.163269
C147  C     C_1   0.141750 0.154998 0.679930 0.236371
C148  C     C_1   0.907711 0.267410 0.287080 0.219667
C149  C     C_1   0.101381 0.857787 0.637550 0.237559
C150  C     C_1   0.646945 0.594350 0.860416 0.246950
C151  C     C_1   0.345957 0.358825 0.177589 0.233577
C152  C     C_1   0.643417 0.331784 0.818664 0.247258
C153  C     C_1   0.338995 0.604177 0.141126 0.250998
C154  C     C_1   0.432002 0.290763 0.832581 0.242273
C155  C     C_1   0.581377 0.767805 0.227375 0.243575
C156  C     C_1   0.352821 0.669127 0.811715 0.254682
C157  C     C_R   0.655565 0.583741 0.416370 -0.173705
C158  C     C_1   0.608308 0.363821 0.132336 0.249058
C159  C     C_R   0.419508 0.345454 0.413061 -0.153963
C160  C     C_R   0.563439 0.637705 0.608082 -0.134834
C161  C     C_R   0.635073 0.437225 0.390156 -0.116274
C162  C     C_R   0.344471 0.583242 0.583793 -0.147643
C163  C     C_R   0.582152 0.656018 0.417201 -0.043513
C164  C     C_R   0.140771 0.068153 0.105432 -0.091327
C165  C     C_R   0.433035 0.359702 0.605980 -0.070933
C166  C     C_R   0.362087 0.565063 0.392138 -0.081886
C167  C     C_R   0.653942 0.419115 0.587691 -0.138034
C168  C     C_R   0.746795 0.734413 0.857863 -0.077003
C169  C     C_R   0.228947 0.233545 0.183553 -0.079980
C170  C     C_R   0.773141 0.220355 0.809207 -0.078912
C171  C     C_R   0.238122 0.741892 0.159169 -0.084807
C172  C     C_R   0.278251 0.216180 0.837181 -0.082466
C173  C     C_R   0.742914 0.819303 0.207689 -0.086757
C174  C     C_R   0.220721 0.777639 0.804127 -0.086424
C175  C     C_R   0.844225 0.917309 0.917145 -0.046250
C176  C     C_R   0.740930 0.255544 0.145918 -0.086303
C177  C     C_R   0.285791 0.221799 0.335017 -0.082425
C178  C     C_R   0.678141 0.751769 0.711548 -0.087364
C179  C     C_R   0.263342 0.716842 0.315187 -0.078463
C180  C     C_R   0.766216 0.259601 0.653312 -0.086032
C181  C     C_R   0.762420 0.753489 0.355030 -0.076300
C182  C     C_R   0.267568 0.271386 0.684996 -0.080052
C183  C     C_R   0.741828 0.307443 0.298067 -0.079003
C184  C     C_R   0.228591 0.742499 0.647180 -0.077233
C185  C     C_R   0.228614 0.129243 0.313066 -0.160951
C186  C     C_R   0.077289 0.849194 0.094000 -0.079309
C187  C     C_R   0.723457 0.848705 0.738822 -0.153254
C188  C     C_R   0.170259 0.776709 0.303809 -0.164611
C189  C     C_R   0.850771 0.188389 0.667097 -0.181490
C190  C     C_R   0.851074 0.816951 0.332221 -0.181837
C191  C     C_R   0.185555 0.198685 0.703082 -0.175441
C192  C     C_R   0.842580 0.267878 0.274989 -0.159771
C193  C     C_R   0.148400 0.819078 0.662668 -0.169118
C194  C     C_R   0.681852 0.645506 0.837704 -0.183198
C195  C     C_R   0.302627 0.314935 0.201014 -0.177225
C196  C     C_R   0.686550 0.288324 0.793689 -0.184235
C197  C     C_R   0.937711 0.136009 0.890947 -0.102919
C198  C     C_R   0.306542 0.654383 0.168970 -0.175756
C199  C     C_R   0.371241 0.272047 0.814657 -0.175426
C200  C     C_R   0.646402 0.775830 0.237453 -0.154802
C201  C     C_R   0.307920 0.711007 0.787462 -0.181853
C202  C     C_R   0.656577 0.327854 0.158754 -0.171471
C203  C     C_R   0.750007 0.818903 0.786605 -0.145100
C204  C     C_R   0.210478 0.155816 0.260143 -0.139644
C205  C     C_R   0.835036 0.183467 0.726110 -0.141412
C206  C     C_R   0.182710 0.780985 0.244442 -0.139206
C207  C     C_R   0.200126 0.200675 0.761979 -0.151190
C208  C     C_R   0.858303 0.932645 0.104683 -0.158125
C209  C     C_R   0.829962 0.822251 0.275100 -0.145862
C210  C     C_R   0.164109 0.822148 0.721784 -0.139167
C211  C     C_R   0.819219 0.247285 0.221867 -0.140998
C212  C     C_R   0.301277 0.300177 0.259857 -0.151253
C213  C     C_R   0.674691 0.665739 0.780366 -0.146071
C214  C     C_R   0.307763 0.664547 0.229352 -0.135518
C215  C     C_R   0.696910 0.284377 0.733981 -0.149324
C216  C     C_R   0.676748 0.749841 0.285200 -0.144270
C217  C     C_R   0.345053 0.290005 0.761535 -0.140079
C218  C     C_R   0.669616 0.330396 0.218603 -0.138348
C219  C     C_R   0.154709 0.081247 0.914179 -0.153181
C220  C     C_R   0.298168 0.716572 0.727654 -0.148114
C221  C     C_R   0.728585 0.760393 0.804268 -0.050287
C222  C     C_R   0.239582 0.210202 0.240103 -0.046134
C223  C     C_R   0.785659 0.218887 0.749042 -0.041036
C224  C     C_R   0.227934 0.742337 0.219365 -0.043063
C225  C     C_R   0.256704 0.225472 0.780135 -0.047140
C226  C     C_R   0.769077 0.805479 0.262014 -0.042254
C227  C     C_R   0.210072 0.782323 0.743954 -0.044216
C228  C     C_R   0.762378 0.270057 0.201803 -0.048326
C229  C     C_R   0.276265 0.243551 0.278084 -0.043843
C230  C     C_R   0.916360 0.843865 0.916723 -0.170472
C231  C     C_R   0.692737 0.726262 0.765916 -0.043005
C232  C     C_R   0.265456 0.706741 0.254699 -0.046743
C233  C     C_R   0.749440 0.253810 0.712069 -0.045950
C234  C     C_R   0.735489 0.771044 0.301604 -0.050102
C235  C     C_R   0.290467 0.261336 0.741784 -0.042381
C236  C     C_R   0.725221 0.304121 0.239096 -0.046331
C237  C     C_R   0.245694 0.747437 0.706147 -0.048245
C238  C     C_R   0.721444 0.677134 0.875010 0.560880
C239  C     C_R   0.262693 0.285166 0.163590 0.558608
C240  C     C_R   0.722281 0.253774 0.830950 0.541976
H1    H     H_    0.940956 0.199354 0.087405 0.083119
H2    H     H_    0.041268 0.182361 0.115229 0.111051
H3    H     H_    0.367953 0.787380 0.868663 0.113651
H4    H     H_    0.340483 0.786893 0.941253 0.190800
H5    H     H_    0.708287 0.374645 0.048758 0.116265
H6    H     H_    0.700793 0.324553 0.987734 0.213908
H7    H     H_    0.763193 0.312525 0.036548 0.135918
H8    H     H_    0.379584 0.137867 0.376500 0.128425
H9    H     H_    0.339659 0.067260 0.356515 0.129585
H10   H     H_    0.359401 0.082351 0.430198 0.178277
H11   H     H_    0.592960 0.886880 0.709659 0.130146
H12   H     H_    0.570515 0.813940 0.676639 0.129058
H13   H     H_    0.177625 0.960336 0.880379 0.089035
H14   H     H_    0.575150 0.882581 0.634329 0.175689
H15   H     H_    0.176812 0.842293 0.412703 0.139847
H16   H     H_    0.258846 0.831549 0.402886 0.099894
H17   H     H_    0.221929 0.808240 0.468187 0.207340
H18   H     H_    0.800106 0.131513 0.565959 0.137825
H19   H     H_    0.804061 0.173684 0.500087 0.162814
H20   H     H_    0.742005 0.189087 0.548707 0.146353
H21   H     H_    0.931279 0.740461 0.395336 0.135426
H22   H     H_    0.873496 0.680300 0.399503 0.123381
H23   H     H_    0.907285 0.711183 0.463708 0.177294
H24   H     H_    0.801142 0.060876 0.089106 0.098007
H25   H     H_    0.152050 0.324916 0.625613 0.115381
H26   H     H_    0.103302 0.257079 0.626532 0.134187
H27   H     H_    0.132016 0.286444 0.559868 0.181471
H28   H     H_    0.881611 0.236737 0.392078 0.139548
H29   H     H_    0.800315 0.219340 0.397408 0.100841
H30   H     H_    0.836861 0.268811 0.448805 0.210617
H31   H     H_    0.066219 0.752002 0.588086 0.129791
H32   H     H_    0.117172 0.685664 0.586812 0.119441
H33   H     H_    0.095663 0.723242 0.521191 0.188120
H34   H     H_    0.061057 0.199767 0.913693 0.069467
H35   H     H_    0.952226 0.813628 0.111321 0.085588
H36   H     H_    0.822396 0.038783 0.880748 0.107227
H37   H     H_    0.195547 0.942986 0.096759 0.091189
H38   H     H_    0.438472 0.700940 0.581842 0.071067
H39   H     H_    0.540116 0.320090 0.382574 0.084303
H40   H     H_    0.681833 0.543508 0.615654 0.087833
H41   H     H_    0.034239 0.824932 0.879358 0.096237
H42   H     H_    0.301241 0.439402 0.411949 0.071887
H43   H     H_    0.560047 0.300878 0.587506 0.070365
H44   H     H_    0.461207 0.678904 0.382049 0.109548
H45   H     H_    0.318584 0.458983 0.615751 0.099958
H46   H     H_    0.700141 0.562058 0.414712 0.100868
H47   H     H_    0.442270 0.301309 0.410518 0.088227
H48   H     H_    0.535726 0.677373 0.618733 0.103006
H49   H     H_    0.675026 0.463847 0.378936 0.104658
H50   H     H_    0.300308 0.560956 0.585789 0.091540
H51   H     H_    0.559531 0.700330 0.416610 0.081225
H52   H     H_    0.183517 0.044803 0.113739 0.090591
H53   H     H_    0.457649 0.317601 0.614784 0.088199
H54   H     H_    0.320507 0.540261 0.382542 0.089977
H55   H     H_    0.697841 0.441768 0.590615 0.090232
H56   H     H_    0.861708 0.843987 0.721823 0.136811
H57   H     H_    0.910825 0.840791 0.785384 0.143329
H58   H     H_    0.906853 0.909062 0.742813 0.174837
H59   H     H_    0.046548 0.128425 0.239195 0.167487
H60   H     H_    0.085548 0.133750 0.308554 0.141159
H61   H     H_    0.048352 0.063881 0.287035 0.171560
H62   H     H_    0.842846 0.053366 0.696770 0.119892
H63   H     H_    0.800018 0.939831 0.916536 0.081367
H64   H     H_    0.860281 0.023834 0.768419 0.169232
H65   H     H_    0.913683 0.014431 0.710159 0.174698
H66   H     H_    0.162156 0.943008 0.214109 0.139381
H67   H     H_    0.174827 0.907936 0.284282 0.102034
H68   H     H_    0.105776 0.949868 0.269903 0.197494
H69   H     H_    0.067090 0.247555 0.822607 0.107064
H70   H     H_    0.014778 0.203227 0.779868 0.188555
H71   H     H_    0.075794 0.243452 0.744888 0.127319
H72   H     H_    0.942663 0.762710 0.199875 0.093095
H73   H     H_    0.954431 0.767754 0.277096 0.126123
H74   H     H_    0.055121 0.805013 0.097959 0.073411
H75   H     H_    0.009254 0.799594 0.228208 0.209429
H76   H     H_    0.167317 0.956017 0.699514 0.120155
H77   H     H_    0.153208 0.979516 0.773865 0.130435
H78   H     H_    0.100678 0.000264 0.718002 0.197106
H79   H     H_    0.861610 0.087745 0.216145 0.147342
H80   H     H_    0.857343 0.135657 0.280706 0.124997
H81   H     H_    0.928261 0.100682 0.259392 0.169213
H82   H     H_    0.299731 0.486560 0.279235 0.191647
H83   H     H_    0.255047 0.433343 0.320488 0.106185
H84   H     H_    0.259785 0.426088 0.242698 0.124853
H85   H     H_    0.963422 0.176983 0.880942 0.092036
H86   H     H_    0.718777 0.534239 0.783349 0.126800
H87   H     H_    0.722870 0.545119 0.706273 0.102425
H88   H     H_    0.680382 0.482073 0.735684 0.186409
H89   H     H_    0.470290 0.636464 0.272038 0.165952
H90   H     H_    0.440716 0.660452 0.202245 0.123722
H91   H     H_    0.477525 0.587309 0.210225 0.173878
H92   H     H_    0.563930 0.244836 0.675809 0.097546
H93   H     H_    0.511937 0.289159 0.718885 0.202650
H94   H     H_    0.572098 0.247366 0.753748 0.125053
H95   H     H_    0.653083 0.588251 0.285387 0.143886
H96   H     H_    0.817784 0.959421 0.114168 0.100351
H97   H     H_    0.649101 0.637267 0.221737 0.139320
H98   H     H_    0.584139 0.593059 0.244124 0.173106
H99   H     H_    0.368326 0.414552 0.809719 0.117915
H100  H     H_    0.373650 0.453996 0.740556 0.130353
H101  H     H_    0.437985 0.451662 0.788394 0.189085
H102  H     H_    0.515142 0.330645 0.286821 0.130822
H103  H     H_    0.538418 0.302813 0.216285 0.110708
H104  H     H_    0.486835 0.366632 0.223258 0.193950
H105  H     H_    0.434960 0.755629 0.670402 0.115622
H106  H     H_    0.483338 0.711823 0.717352 0.178494
H107  H     H_    0.198660 0.058374 0.911795 0.089811
H108  H     H_    0.421443 0.755495 0.747667 0.136496
H109  H     H_    0.820984 0.624809 0.902268 0.122537
H110  H     H_    0.761600 0.566181 0.898619 0.129378
H111  H     H_    0.791646 0.590456 0.966731 0.178755
H112  H     H_    0.244214 0.398536 0.125380 0.132418
H113  H     H_    0.176155 0.350325 0.125444 0.117873
H114  H     H_    0.213344 0.370015 0.059145 0.178969
H115  H     H_    0.682823 0.160688 0.890416 0.134173
H116  H     H_    0.621551 0.213883 0.870784 0.121644
H117  H     H_    0.647630 0.209580 0.943606 0.203322
H118  H     H_    0.937964 0.799069 0.915578 0.093598
H119  H     H_    0.179421 0.677486 0.067438 0.126286
H120  H     H_    0.221339 0.605761 0.078549 0.113907
H121  H     H_    0.224343 0.644525 0.010490 0.190066
H122  H     H_    0.431997 0.161124 0.859629 0.124255
H123  H     H_    0.361389 0.121626 0.879369 0.127354
H124  H     H_    0.416459 0.142091 0.933324 0.180466
H125  H     H_    0.679452 0.927299 0.172429 0.131739
H126  H     H_    0.606908 0.904751 0.205353 0.129908
H127  H     H_    0.611347 0.921293 0.129798 0.177301
H128  H     H_    0.303330 0.835881 0.889814 0.125460
N1    N     N_R   0.940200 0.105310 0.059970 -0.051235
N2    N     N_R   0.059800 0.105310 0.059970 -0.051574
N3    N     N_R   0.105310 0.940200 0.940030 -0.046703
N4    N     N_R   0.894690 0.059800 0.059970 -0.039159
N5    N     N_R   0.059800 0.105310 0.940030 -0.048187
N6    N     N_R   0.940200 0.894690 0.059970 -0.054943
N7    N     N_R   0.894690 0.059800 0.940030 -0.049141
N8    N     N_R   0.105310 0.940200 0.059970 -0.040774
N9    N     N_R   0.440200 0.605310 0.559970 -0.048854
N10   N     N_R   0.559800 0.394690 0.440030 -0.050211
N11   N     N_R   0.605310 0.559800 0.559970 -0.052723
N12   N     N_R   0.059800 0.894690 0.940030 -0.051756
N13   N     N_R   0.394690 0.440200 0.440030 -0.048313
N14   N     N_R   0.559800 0.394690 0.559970 -0.050465
N15   N     N_R   0.440200 0.605310 0.440030 -0.051647
N16   N     N_R   0.394690 0.440200 0.559970 -0.047630
N17   N     N_R   0.605310 0.559800 0.440030 -0.040400
N18   N     N_R   0.440200 0.394690 0.440030 -0.040933
N19   N     N_R   0.559800 0.605310 0.559970 -0.054973
N20   N     N_R   0.605310 0.440200 0.440030 -0.050653
N21   N     N_R   0.394690 0.559800 0.559970 -0.040932
N22   N     N_R   0.559800 0.605310 0.440030 -0.049144
N23   N     N_R   0.105310 0.059800 0.059970 -0.052251
N24   N     N_R   0.440200 0.394690 0.559970 -0.057533
N25   N     N_R   0.394690 0.559800 0.440030 -0.055608
N26   N     N_R   0.605310 0.440200 0.559970 -0.041844
N27   N     N_1   0.821516 0.733354 0.995282 -0.093852
N28   N     N_1   0.161430 0.238149 0.043659 -0.097700
N29   N     N_1   0.819038 0.215346 0.955762 -0.095547
N30   N     N_1   0.256436 0.817248 0.025137 -0.084493
N31   N     N_1   0.269227 0.174464 0.985320 -0.064002
N32   N     N_1   0.743158 0.840175 0.056483 -0.077415
N33   N     N_1   0.164976 0.768941 0.947011 -0.090293
N34   N     N_R   0.894690 0.940200 0.940030 -0.047799
N35   N     N_1   0.718979 0.155923 0.026104 -0.097496
N36   N     N_1   0.327459 0.230753 0.483142 -0.066738
N37   N     N_1   0.658586 0.748822 0.560468 -0.079175
N38   N     N_1   0.332529 0.730637 0.453354 -0.106179
N39   N     N_1   0.783287 0.350553 0.528075 -0.073926
N40   N     N_1   0.766582 0.679790 0.492820 -0.091133
N41   N     N_1   0.264254 0.336684 0.544148 -0.094945
N42   N     N_1   0.701975 0.294055 0.445553 -0.103914
N43   N     N_1   0.227263 0.667724 0.509755 -0.057723
N44   N     N_1   0.193299 0.020623 0.346759 -0.108846
N45   N     N_R   0.059800 0.894690 0.059970 -0.047985
N46   N     N_1   0.738547 0.965602 0.718386 -0.110811
N47   N     N_1   0.065843 0.811174 0.347961 -0.085116
N48   N     N_1   0.948001 0.136896 0.622673 -0.074236
N49   N     N_1   0.943065 0.881810 0.369865 -0.073060
N50   N     N_1   0.106882 0.120201 0.661319 -0.077101
N51   N     N_1   0.959713 0.267152 0.296663 -0.098449
N52   N     N_1   0.063881 0.888515 0.617224 -0.079769
N53   N     N_1   0.619082 0.553585 0.878704 -0.069585
N54   N     N_1   0.380388 0.393810 0.158704 -0.067820
N55   N     N_1   0.609366 0.366670 0.838741 -0.057461
N56   N     N_R   0.940200 0.105310 0.940030 -0.056908
N57   N     N_1   0.364643 0.564085 0.118621 -0.070802
N58   N     N_1   0.480468 0.305395 0.847237 -0.073874
N59   N     N_1   0.529475 0.761627 0.219261 -0.104985
N60   N     N_1   0.388503 0.635740 0.831236 -0.073968
N61   N     N_1   0.569936 0.392515 0.110885 -0.070874
N62   N     N_R   0.894690 0.940200 0.059970 -0.047674
N63   N     N_R   0.105310 0.059800 0.940030 -0.039932
N64   N     N_R   0.940200 0.894690 0.940030 -0.039865
Ni1   Ni    Ni4+2 1.000000 0.104370 0.000000 0.212361
Ni2   Ni    Ni4+2 0.000000 0.895630 0.000000 0.214866
Ni3   Ni    Ni4+2 0.104370 0.000000 0.000000 0.218116
Ni4   Ni    Ni4+2 0.895630 0.000000 0.000000 0.217746
Ni5   Ni    Ni4+2 0.500000 0.604370 0.500000 0.214947
Ni6   Ni    Ni4+2 0.500000 0.395630 0.500000 0.214455
Ni7   Ni    Ni4+2 0.604370 0.500000 0.500000 0.222518
Ni8   Ni    Ni4+2 0.395630 0.500000 0.500000 0.217395
O1    O     O_3   0.831071 0.893937 0.793351 -0.638910
O2    O     O_3   0.637923 0.566008 0.745810 -0.604271
O3    O     O_3   0.390983 0.591436 0.244508 -0.621250
O4    O     O_3   0.597331 0.327711 0.710658 -0.599616
O5    O     O_3   0.601600 0.669193 0.294127 -0.639033
O6    O     O_3   0.420661 0.370287 0.746357 -0.623490
O7    O     O_3   0.576202 0.387391 0.242504 -0.617628
O8    O     O_3   0.398126 0.674230 0.704408 -0.609322
O9    O     O_3   0.733335 0.652620 0.928876 -0.607453
O10   O     O_3   0.259109 0.305190 0.107031 -0.604656
O11   O     O_3   0.707052 0.253452 0.888906 -0.634030
O12   O     O_3   0.129640 0.080775 0.245502 -0.641954
O13   O     O_3   0.274609 0.685481 0.074665 -0.609298
O14   O     O_3   0.366287 0.214744 0.902222 -0.606591
O15   O     O_3   0.648928 0.838401 0.153142 -0.611454
O16   O     O_3   0.284785 0.741912 0.883710 -0.612734
O17   O     O_3   0.676364 0.285595 0.064871 -0.623807
O18   O     O_3   0.287107 0.133352 0.399889 -0.608251
O19   O     O_3   0.658405 0.845452 0.656280 -0.610918
O20   O     O_3   0.204938 0.751224 0.399198 -0.615692
O21   O     O_3   0.827652 0.223703 0.572029 -0.623981
O22   O     O_3   0.844920 0.768555 0.424925 -0.610220
O23   O     O_3   0.909333 0.101732 0.743574 -0.619748
O24   O     O_3   0.196028 0.240731 0.608601 -0.607124
O25   O     O_3   0.822825 0.309051 0.370026 -0.613438
O26   O     O_3   0.158251 0.770960 0.569867 -0.623706
O27   O     O_3   0.109920 0.864638 0.231723 -0.632468
O28   O     O_3   0.099593 0.163425 0.789482 -0.607942
O29   O     O_3   0.930372 0.850526 0.237720 -0.605027
O30   O     O_3   0.096725 0.909569 0.742044 -0.624968
O31   O     O_3   0.902420 0.174573 0.210052 -0.628706
O32   O     O_3   0.338990 0.401002 0.287472 -0.607137

loop_
_geom_bond_atom_site_label_1
_geom_bond_atom_site_label_2
_ccdc_geom_bond_type
C23   C58   S    
C110  H126  S    
C34   O1    S    
C158  N61   T    
C215  C233  A    
C95   H79   S    
C167  N26   A    
C81   C134  S    
C95   H81   S    
C119  O22   S    
C116  H14   S    
C43   C61   A    
C13   C18   A    
C138  N41   T    
C32   C66   S    
N16   N24   A    
C117  H16   S    
C104  H105  S    
C20   C175  A    
C118  H20   S    
C144  C189  S    
C121  H28   S    
C27   C90   A    
C124  N14   A    
C150  C194  S    
C16   C193  A    
C223  C233  A    
C89   H64   S    
C4    C199  A    
C38   C55   A    
C222  C229  A    
N2    N23   A    
C48   C65   A    
N12   Ni2   S    
C183  C236  A    
N1    N4    A    
C16   O26   S    
C120  H27   S    
C167  H55   S    
N10   N20   A    
C102  O6    S    
C39   O28   S    
C5    C200  A    
C128  N31   T    
C67   C85   A    
C40   C58   A    
C140  N43   T    
C87   H57   S    
C47   C64   A    
C115  H10   S    
C196  C215  A    
N63   Ni3   S    
C6    C174  A    
C40   C209  A    
C205  C223  A    
C96   H83   S    
C80   C133  S    
C44   O2    S    
C90   H39   S    
C174  C227  A    
C31   C63   S    
C95   O31   S    
C172  C225  A    
C114  H7    S    
N2    Ni1   S    
C87   O1    S    
C88   H59   S    
N26   Ni7   S    
C101  N11   A    
C122  H31   S    
C100  H95   S    
N8    N45   A    
N7    Ni4   S    
N22   Ni5   S    
C42   C60   A    
C53   C71   A    
C46   N6    A    
C115  H8    S    
C57   H36   S    
C29   C113  A    
C111  H3    S    
C9    O19   S    
C2    C19   A    
C160  N19   A    
C135  H44   S    
C165  H53   S    
C16   C184  A    
C137  N40   T    
C157  H46   S    
C118  H18   S    
C11   O21   S    
C84   C182  A    
C106  H113  S    
N23   Ni3   S    
N19   Ni5   S    
C99   O4    S    
C50   C218  A    
C97   O2    S    
C230  N64   A    
C132  N36   T    
N10   Ni6   S    
C133  N37   T    
C26   C69   S    
C51   C69   A    
N9    N21   A    
N7    N56   A    
N3    Ni3   S    
C72   C170  A    
C127  N30   T    
C91   H67   S    
N1    Ni1   S    
C145  C190  S    
C186  H74   S    
C78   C177  A    
C37   O23   S    
C22   C197  A    
N16   Ni8   S    
C168  C221  A    
C217  C235  A    
C194  C213  A    
C21   C186  A    
C22   C54   S    
N25   Ni8   S    
C142  C187  S    
C105  H109  S    
C10   C179  A    
C185  C204  A    
C62   C80   A    
C33   C163  A    
C99   H93   S    
C30   C167  A    
C35   N5    A    
C114  H5    S    
C99   H94   S    
C28   C160  A    
C136  N39   T    
C83   C181  A    
C77   C131  S    
C78   C132  S    
N11   Ni7   S    
C162  N21   A    
C149  C193  S    
C110  O15   S    
C148  N51   T    
C76   C130  S    
C181  C234  A    
C206  C224  A    
N34   N64   A    
C10   C188  A    
C94   H78   S    
C240  O11   S    
C143  N47   T    
C36   C53   A    
C50   C67   A    
C97   H87   S    
C102  H101  S    
C213  C231  A    
C113  H42   S    
C107  H116  S    
C8    O18   S    
N17   Ni7   S    
C109  H122  S    
C51   C220  A    
C6    O16   S    
C41   O30   S    
C221  C231  A    
C156  C201  S    
C28   C101  A    
C107  O11   S    
C3    O13   S    
C92   H69   S    
C176  C228  A    
C93   H72   S    
C29   C61   S    
C120  H26   S    
C49   C66   A    
C152  C196  S    
C155  N59   T    
C120  H25   S    
C6    C201  A    
N18   Ni6   S    
C153  N57   T    
C164  H52   S    
C108  H121  S    
C168  C238  A    
C153  C198  S    
C146  N16   A    
C10   O20   S    
C98   H90   S    
C175  H63   S    
C51   O8    S    
C15   C183  A    
C161  H49   S    
C169  C222  A    
C64   C82   A    
C7    C176  A    
C96   H82   S    
N34   Ni4   S    
C191  C207  A    
C194  C238  A    
C105  O9    S    
C2    H2    S    
C41   C210  A    
C208  H96   S    
C77   C176  A    
C211  C228  A    
N4    Ni4   S    
C21   C68   A    
N15   Ni5   S    
N14   Ni6   S    
C113  N13   A    
C37   C54   A    
C134  N38   T    
C115  O18   S    
C121  H29   S    
C100  O5    S    
C110  H127  S    
N14   N26   A    
C4    C172  A    
C105  H111  S    
C5    C173  A    
C103  H104  S    
C45   O3    S    
C108  H119  S    
C40   O29   S    
C115  H9    S    
C116  H11   S    
C121  O25   S    
C38   O27   S    
C1    C17   A    
C87   H56   S    
C226  C234  A    
C57   N7    A    
C202  C218  A    
C76   C174  A    
C195  C212  A    
C146  H45   S    
C27   C161  A    
C197  H85   S    
C212  C229  A    
C90   N10   A    
C104  H106  S    
C193  C210  A    
C1    N1    A    
C79   H38   S    
C93   H75   S    
C200  C216  A    
C94   H76   S    
C102  H99   S    
C94   O30   S    
C61   C78   A    
C27   C67   S    
C17   C60   S    
C120  O24   S    
C18   C59   S    
C15   O25   S    
C23   C46   A    
N15   N25   A    
C139  N42   T    
C150  N53   T    
C59   C76   A    
C157  N17   A    
C12   O22   S    
C92   H71   S    
C28   C62   S    
C148  C192  S    
C30   C64   S    
C216  C234  A    
C143  C188  S    
C199  C217  A    
C214  C232  A    
C48   C216  A    
C50   O7    S    
C188  C206  A    
C98   O3    S    
C123  N27   T    
C163  N22   A    
C18   C112  A    
C23   C208  A    
C119  H22   S    
C32   C146  A    
C155  C200  S    
C109  H124  S    
C187  C203  A    
C96   H84   S    
C3    C198  A    
C151  C195  S    
C101  H40   S    
C135  N15   A    
C8    C177  A    
C189  C205  A    
C147  N50   T    
C47   C215  A    
C71   C169  A    
C141  N44   T    
C88   H60   S    
C151  N54   T    
C126  N29   T    
C122  H32   S    
N64   Ni2   S    
C110  H125  S    
C219  N63   A    
C85   C183  A    
C32   C165  A    
C86   C184  A    
C2    N2    A    
C103  H102  S    
C37   C205  A    
C95   H80   S    
C33   C157  A    
C107  H117  S    
C175  N34   A    
C20   C230  A    
C44   C213  A    
C164  N23   A    
C56   C74   A    
C81   C179  A    
C31   C135  A    
C122  H33   S    
C104  H108  S    
C118  H19   S    
C47   O4    S    
C73   C127  S    
C26   C162  A    
C106  H112  S    
C49   C217  A    
C72   C126  S    
C11   C189  A    
C80   C178  A    
C106  H114  S    
C70   C168  A    
C88   O12   S    
N21   Ni8   S    
C111  H128  S    
C45   C214  A    
C197  N56   A    
C43   C212  A    
C79   N9    A    
C182  C235  A    
C25   C35   A    
C180  C233  A    
C112  N12   A    
C99   H92   S    
C220  C237  A    
C25   C219  A    
C239  O10   S    
C104  O8    S    
C184  C237  A    
C83   C137  S    
C154  N58   T    
C21   C55   S    
C100  H98   S    
C166  H54   S    
C42   O31   S    
C204  C222  A    
C87   H58   S    
C190  C209  A    
C88   H61   S    
C46   H35   S    
C201  C220  A    
C162  H50   S    
C131  N35   T    
C68   H37   S    
C144  N48   T    
C34   C52   A    
C26   C79   A    
C218  C236  A    
C178  C231  A    
C154  C199  S    
C114  H6    S    
C142  N46   T    
C43   O32   S    
C159  N18   A    
C112  H41   S    
C125  N28   T    
C12   C181  A    
C92   O28   S    
C170  C223  A    
C169  C239  A    
N24   Ni6   S    
C71   C125  S    
C11   C180  A    
C179  C232  A    
C97   H86   S    
C156  N60   T    
C163  H51   S    
C9    C178  A    
C107  H115  S    
C15   C192  A    
C36   O12   S    
C111  H4    S    
C111  O16   S    
C75   C173  A    
C117  H15   S    
C210  C227  A    
C25   C56   S    
C3    C171  A    
C116  O19   S    
C22   C57   A    
C171  C224  A    
C114  O17   S    
C33   C65   S    
C29   C159  A    
C149  N52   T    
C92   H70   S    
C48   O5    S    
C13   N3    A    
C63   C81   A    
N8    Ni3   S    
C24   N4    A    
C7    C202  A    
C89   H65   S    
C173  C226  A    
C224  C232  A    
N20   Ni7   S    
C177  C229  A    
C65   C83   A    
C103  O7    S    
N56   Ni1   S    
C227  C237  A    
C98   H91   S    
C152  N55   T    
C203  C221  A    
C70   C123  S    
C207  C225  A    
C74   C128  S    
C39   C56   A    
C35   H34   S    
C39   C207  A    
C195  C239  A    
C14   O24   S    
C73   C171  A    
C85   C139  S    
C74   C172  A    
C96   O32   S    
C86   C140  S    
C19   C164  A    
C91   H68   S    
N5    N63   A    
C238  O9    S    
C165  N24   A    
C84   C138  S    
C7    O17   S    
C68   N8    A    
N13   Ni8   S    
C89   O23   S    
C145  N49   T    
N13   N18   A    
C161  N20   A    
C58   C75   A    
C219  H107  S    
C119  H23   S    
C60   C77   A    
C17   C24   A    
C105  H110  S    
C225  C235  A    
C103  H103  S    
C100  H97   S    
C41   C59   A    
C5    O15   S    
C108  H120  S    
C147  C191  S    
C230  H118  S    
C116  H12   S    
C44   C62   A    
C66   C84   A    
C45   C63   A    
C159  H47   S    
C93   H73   S    
C160  H48   S    
C186  N45   A    
C55   C73   A    
C192  C211  A    
C117  H17   S    
C31   C166  A    
C34   C203  A    
C13   H13   S    
C24   H24   S    
C94   H77   S    
C208  N62   A    
C106  O10   S    
C129  N32   T    
C97   H88   S    
C102  H100  S    
C14   C182  A    
C1    H1    S    
C89   H62   S    
C14   C191  A    
N6    Ni2   S    
C166  N25   A    
C30   C124  A    
C158  C202  S    
C141  C185  S    
N62   Ni4   S    
N9    Ni5   S    
C196  C240  A    
C124  H43   S    
C108  O13   S    
C170  C240  A    
N3    N12   A    
C38   C206  A    
N11   N19   A    
C9    C187  A    
C122  O26   S    
C8    C185  A    
N5    Ni1   S    
C117  O20   S    
C12   C190  A    
C98   H89   S    
C4    O14   S    
C20   C52   S    
C130  N33   T    
C19   C53   S    
C109  O14   S    
C119  H21   S    
C109  H123  S    
N45   Ni2   S    
C82   C136  S    
C228  C236  A    
C52   C70   A    
C42   C211  A    
C93   O29   S    
N17   N22   A    
C91   H66   S    
C118  O21   S    
C54   C72   A    
N6    N62   A    
C91   O27   S    
C209  C226  A    
C82   C180  A    
C49   O6    S    
C36   C204  A    
C121  H30   S    
C69   C86   A    
C75   C129  S    
C198  C214  A    
