data_mof_unit_18342.cif
_audit_creation_date              2012-12-10T17:35:43-0500
_audit_creation_method            fapswitch 2.2
_symmetry_space_group_name_H-M    P1
_symmetry_Int_Tables_number       1
_space_group_crystal_system       triclinic
_cell_length_a                    10.499393
_cell_length_b                    12.11545
_cell_length_c                    12.739095
_cell_angle_alpha                 95.812363
_cell_angle_beta                  91.656086
_cell_angle_gamma                 86.462187
_cell_volume                      1608.65289654

loop_
_atom_site_label
_atom_site_type_symbol
_atom_type_description
_atom_site_fract_x
_atom_site_fract_y
_atom_site_fract_z
_atom_type_partial_charge
C1    C     C_R   0.494821 0.524069 0.700297 0.900639
C2    C     C_R   0.608537 0.167822 0.590500 0.416381
C3    C     C_R   0.550423 0.862277 0.545400 0.476224
C4    C     C_R   0.449129 0.137816 0.455001 0.476110
C5    C     C_R   0.544112 0.978280 0.536415 -0.230198
C6    C     C_R   0.456085 0.021763 0.463544 -0.230774
C7    C     C_R   0.742114 0.500263 0.501103 0.892061
C8    C     C_R   0.257885 0.499732 0.498851 0.888839
C9    C     C_3   0.968537 0.404544 0.528765 0.558625
C10   C     C_3   0.031467 0.595468 0.471109 0.557469
C11   C     C_3   0.047967 0.486696 0.598123 -0.315350
C12   C     C_R   0.504030 0.475902 0.299697 0.895508
C13   C     C_3   0.952012 0.513325 0.401755 -0.315680
C14   C     C_3   0.123071 0.499888 0.498890 -0.069978
C15   C     C_3   0.876925 0.500119 0.500997 -0.070827
C16   C     C_3   0.045253 0.415547 0.430130 -0.299016
C17   C     C_3   0.954742 0.584471 0.569742 -0.299512
C18   C     C_R   0.506698 0.457269 0.187137 -0.222212
C19   C     C_R   0.486649 0.542834 0.812709 -0.262114
C20   C     C_R   0.573984 0.629650 0.974211 0.586723
C21   C     C_R   0.406360 0.376175 0.027659 0.603717
C22   C     C_R   0.557071 0.625331 0.866024 -0.345214
C23   C     C_R   0.422117 0.468672 0.866819 0.442703
C24   C     C_R   0.428442 0.379275 0.135965 -0.392682
C25   C     C_3   0.556339 0.793549 0.081708 0.193611
C26   C     C_3   0.497718 0.881011 0.012038 -0.435756
C27   C     C_3   0.361678 0.857004 0.974582 -0.884350
C28   C     C_3   0.379728 0.188891 0.980918 0.111282
C29   C     C_3   0.479417 0.156432 0.895100 -0.354328
C30   C     C_3   0.615095 0.179191 0.934373 -0.840132
C31   C     C_3   0.167587 0.002501 0.378611 0.112286
C32   C     C_3   0.068556 0.045973 0.300239 -0.300496
C33   C     C_3   0.935586 0.059821 0.346864 -0.980903
C34   C     C_R   0.569545 0.530979 0.131736 0.415571
C35   C     C_3   0.833071 0.995692 0.620082 0.104475
C36   C     C_3   0.932463 0.954006 0.699113 -0.297275
C37   C     C_3   0.065530 0.940246 0.652652 -0.981859
C38   C     C_R   0.451893 0.462002 0.973691 -0.125406
C39   C     C_R   0.532469 0.541491 0.027175 -0.165913
C40   C     C_R   0.376930 0.948153 0.401068 0.322683
C41   C     C_R   0.624040 0.051809 0.598268 0.324837
C42   C     C_R   0.392815 0.832160 0.408440 0.413200
H1    H     H_    0.089490 0.473838 0.677304 0.169338
H2    H     H_    0.298592 0.434121 0.752783 0.314183
H3    H     H_    0.613878 0.837533 0.145575 0.150798
H4    H     H_    0.481403 0.754338 0.123227 0.150981
H5    H     H_    0.494473 0.963929 0.058374 0.199262
H6    H     H_    0.558389 0.885650 0.942715 0.258789
H7    H     H_    0.358929 0.774430 0.928631 0.272199
H8    H     H_    0.324425 0.920986 0.923260 0.247560
H9    H     H_    0.298459 0.859494 0.043332 0.263937
H10   H     H_    0.299831 0.133261 0.964414 0.142655
H11   H     H_    0.417668 0.171363 0.060375 0.127883
H12   H     H_    0.910270 0.526265 0.322651 0.169108
H13   H     H_    0.476682 0.066054 0.870088 0.195632
H14   H     H_    0.455868 0.200736 0.824206 0.278117
H15   H     H_    0.627299 0.269768 0.948590 0.262884
H16   H     H_    0.684041 0.143213 0.874023 0.270499
H17   H     H_    0.637720 0.139878 0.008285 0.242980
H18   H     H_    0.371751 0.258853 0.383257 0.374831
H19   H     H_    0.628326 0.741212 0.616788 0.374991
H20   H     H_    0.730056 0.205352 0.705881 0.345464
H21   H     H_    0.279142 0.794260 0.287778 0.341853
H22   H     H_    0.171323 0.063978 0.449782 0.154672
H23   H     H_    0.085685 0.345877 0.375351 0.173023
H24   H     H_    0.137140 0.922197 0.402091 0.155331
H25   H     H_    0.095970 0.127580 0.278105 0.241194
H26   H     H_    0.066294 0.986746 0.227696 0.225842
H27   H     H_    0.905370 0.978788 0.368005 0.254375
H28   H     H_    0.866091 0.091299 0.287965 0.276438
H29   H     H_    0.934999 0.120359 0.418264 0.286145
H30   H     H_    0.863732 0.074955 0.594388 0.151230
H31   H     H_    0.828569 0.932600 0.550222 0.155524
H32   H     H_    0.934282 0.014275 0.770937 0.225330
H33   H     H_    0.905680 0.872692 0.722424 0.243162
H34   H     H_    0.914328 0.654153 0.624516 0.173748
H35   H     H_    0.066514 0.879289 0.581552 0.286773
H36   H     H_    0.135082 0.909443 0.711866 0.275993
H37   H     H_    0.095393 0.021215 0.631071 0.255102
H38   H     H_    0.379391 0.324271 0.181003 0.189755
H39   H     H_    0.601927 0.685007 0.823393 0.208404
H40   H     H_    0.011054 0.260290 0.573617 0.314557
H41   H     H_    0.989048 0.739795 0.426399 0.313622
H42   H     H_    0.701018 0.559496 0.240917 0.316188
N1    N     N_R   0.523490 0.207800 0.519350 -0.193913
N2    N     N_R   0.476510 0.792200 0.480650 -0.193291
O1    O     O_R   0.506270 0.421700 0.658830 -0.541269
O2    O     O_3   0.069391 0.695646 0.440074 -0.739543
O3    O     O_3   0.664742 0.594483 0.178836 -0.727006
O4    O     O_3   0.333914 0.400353 0.815825 -0.710628
O5    O     O_3   0.641066 0.715502 0.024403 -0.587999
O6    O     O_3   0.326970 0.299048 0.977113 -0.571295
O7    O     O_3   0.367094 0.178396 0.379952 -0.741189
O8    O     O_3   0.631338 0.821886 0.621291 -0.736777
O9    O     O_3   0.678724 0.243296 0.652436 -0.678271
O10   O     O_3   0.323989 0.756878 0.345023 -0.685915
O11   O     O_3   0.287592 0.987937 0.329964 -0.601164
O12   O     O_R   0.493730 0.578300 0.341170 -0.545995
O13   O     O_3   0.713456 0.011962 0.669273 -0.601165
O14   O     O_R   0.491200 0.609310 0.646410 -0.655377
O15   O     O_R   0.508800 0.390690 0.353590 -0.655495
O16   O     O_R   0.693580 0.406210 0.506230 -0.523797
O17   O     O_R   0.306420 0.593790 0.493770 -0.523951
O18   O     O_R   0.678510 0.593830 0.493810 -0.671388
O19   O     O_R   0.321490 0.406170 0.506190 -0.671359
O20   O     O_3   0.930687 0.304334 0.559775 -0.740710
Zn1   Zn    Zn3+2 0.510060 0.374730 0.508290 0.997615
Zn2   Zn    Zn3+2 0.489940 0.625270 0.491710 0.996562

loop_
_geom_bond_atom_site_label_1
_geom_bond_atom_site_label_2
_ccdc_geom_bond_type
O15   Zn1   S    
C31   H24   S    
C1    O1    A    
C35   C36   S    
C8    O19   A    
O19   Zn1   S    
C10   O2    S    
C26   C27   S    
C42   O10   S    
C36   C37   S    
C9    C16   S    
C38   C39   A    
C11   C14   S    
C10   C17   S    
C30   H15   S    
O12   Zn2   S    
C2    N1    A    
C24   H38   S    
C35   H31   S    
C21   C38   A    
C7    O16   A    
C17   H34   S    
C41   O13   S    
C11   H1    S    
O17   Zn2   S    
C42   N2    A    
C12   O12   A    
C27   H8    S    
C33   H27   S    
C32   H26   S    
H18   O7    S    
C40   C42   A    
H41   O2    S    
H20   O9    S    
C3    N2    A    
C35   O13   S    
C1    O14   A    
C27   H9    S    
C20   O5    S    
O14   Zn2   S    
C25   O5    S    
C34   C39   A    
C22   H39   S    
C19   C22   A    
C18   C24   A    
C4    C6    A    
C10   C14   S    
C40   O11   S    
C20   C39   A    
H19   O8    S    
C4    N1    A    
C29   H13   S    
C9    O20   S    
C1    C19   S    
C37   H35   S    
H21   O10   S    
C19   C23   A    
C29   C30   S    
C36   H33   S    
C37   H37   S    
C31   C32   S    
C30   H17   S    
C23   O4    S    
O16   Zn1   S    
C28   O6    S    
C18   C34   A    
C36   H32   S    
C33   H28   S    
C32   H25   S    
C26   H5    S    
C20   C22   A    
C35   H30   S    
C7    O18   A    
C9    C11   S    
C14   C16   S    
C21   C24   A    
H42   O3    S    
C31   O11   S    
C25   H3    S    
O18   Zn2   S    
H2    O4    S    
C13   H12   S    
C15   C17   S    
C5    C41   A    
C28   C29   S    
C8    C14   S    
C31   H22   S    
N2    Zn2   S    
C3    C5    A    
C10   C13   S    
C11   C17   S    
C28   H11   S    
C29   H14   S    
C26   H6    S    
C23   C38   A    
C37   H36   S    
C32   C33   S    
C13   C15   S    
C25   C26   S    
C34   O3    S    
C12   O15   A    
C28   H10   S    
C5    C6    A    
C30   H16   S    
C7    C15   S    
C3    O8    S    
C6    C40   A    
H40   O20   S    
C9    C15   S    
C8    O17   A    
C33   H29   S    
C4    O7    S    
O1    Zn1   S    
C13   C16   S    
C12   C18   S    
C16   H23   S    
C2    C41   A    
C2    O9    S    
N1    Zn1   S    
C25   H4    S    
C27   H7    S    
C21   O6    S    
