data_mof_unit_44133.cif
_audit_creation_date              2012-12-10T18:13:10-0500
_audit_creation_method            fapswitch 2.2
_symmetry_space_group_name_H-M    P1
_symmetry_Int_Tables_number       1
_space_group_crystal_system       triclinic
_cell_length_a                    18.297961
_cell_length_b                    18.299432
_cell_length_c                    25.947361
_cell_angle_alpha                 89.876565
_cell_angle_beta                  90.293533
_cell_angle_gamma                 89.68101
_cell_volume                      8688.00448884

loop_
_atom_site_label
_atom_site_type_symbol
_atom_type_description
_atom_site_fract_x
_atom_site_fract_y
_atom_site_fract_z
_atom_type_partial_charge
C1    C     C_R   0.859567 0.139858 0.249633 1.036663
C2    C     C_R   0.753566 0.198275 0.293602 0.214038
C3    C     C_R   0.241078 0.314932 0.219934 0.305797
C4    C     C_R   0.188369 0.257558 0.783237 0.226962
C5    C     C_R   0.182797 0.264589 0.223653 0.306280
C6    C     C_R   0.260994 0.709638 0.205784 0.326503
C7    C     C_R   0.264662 0.711145 0.796816 0.325655
C8    C     C_R   0.688806 0.759690 0.219621 0.254363
C9    C     C_R   0.763088 0.683689 0.777825 0.292526
C10   C     C_R   0.803184 0.195788 0.748593 -0.384303
C11   C     C_R   0.800445 0.193344 0.250149 -0.364294
C12   C     C_R   0.196134 0.196370 0.750243 -0.376092
C13   C     C_R   0.858562 0.138599 0.748465 1.064108
C14   C     C_R   0.194648 0.198016 0.250767 -0.404628
C15   C     C_R   0.305395 0.698519 0.250006 -0.358588
C16   C     C_R   0.301849 0.695599 0.749908 -0.380315
C17   C     C_R   0.694876 0.698520 0.253010 -0.385854
C18   C     C_R   0.697401 0.694978 0.749558 -0.403106
C19   C     C_R   0.799192 0.242453 0.792254 0.217012
C20   C     C_R   0.790526 0.238602 0.206226 0.256735
C21   C     C_R   0.257410 0.188326 0.717608 0.206133
C22   C     C_R   0.259558 0.184832 0.279297 0.231629
C23   C     C_R   0.298506 0.742832 0.294669 0.234322
C24   C     C_R   0.138983 0.141133 0.249268 1.048253
C25   C     C_R   0.283630 0.732091 0.702970 0.230541
C26   C     C_R   0.755245 0.694641 0.287981 0.331134
C27   C     C_R   0.684830 0.759199 0.719994 0.254150
C28   C     C_R   0.246215 0.800527 0.293918 0.280639
C29   C     C_R   0.237017 0.793474 0.705425 0.295185
C30   C     C_R   0.796850 0.757683 0.294399 0.311073
C31   C     C_R   0.738243 0.815290 0.720755 0.291347
C32   C     C_R   0.745010 0.298176 0.792962 0.283473
C33   C     C_R   0.745075 0.300235 0.210588 0.303902
C34   C     C_R   0.316107 0.237558 0.723171 0.299391
C35   C     C_R   0.140101 0.140096 0.750082 1.034920
C36   C     C_R   0.318128 0.234534 0.274919 0.286791
C37   C     C_R   0.196267 0.804359 0.251856 -0.384749
C38   C     C_R   0.195252 0.803869 0.750457 -0.399000
C39   C     C_R   0.802323 0.805618 0.251826 -0.399980
C40   C     C_R   0.802752 0.804739 0.750623 -0.401978
C41   C     C_R   0.696132 0.304195 0.750383 -0.396064
C42   C     C_R   0.695682 0.303681 0.252005 -0.380233
C43   C     C_R   0.303692 0.303661 0.750350 -0.378233
C44   C     C_R   0.305732 0.301813 0.248877 -0.398135
C45   C     C_R   0.046815 0.048782 0.026664 0.016008
C46   C     C_R   0.359682 0.640178 0.749727 1.035230
C47   C     C_R   0.046893 0.048088 0.972814 0.086125
C48   C     C_R   0.952729 0.954124 0.026849 0.040637
C49   C     C_R   0.952884 0.953697 0.972791 0.014288
C50   C     C_R   0.453934 0.450678 0.526369 0.011353
C51   C     C_R   0.454665 0.450726 0.472506 0.084201
C52   C     C_R   0.545912 0.547432 0.527039 0.066384
C53   C     C_R   0.546189 0.547527 0.472952 0.016098
C54   C     C_R   0.000211 0.000481 0.946095 -0.037520
C55   C     C_R   0.999889 0.001287 0.053703 -0.041762
C56   C     C_R   0.500416 0.499300 0.446054 -0.030607
C57   C     C_R   0.359600 0.639833 0.249362 1.043859
C58   C     C_R   0.499498 0.499389 0.553660 -0.046286
C59   C     C_R   0.140134 0.860308 0.250495 1.054797
C60   C     C_R   0.139715 0.860024 0.750252 1.057300
C61   C     C_R   0.859613 0.860249 0.250287 0.988025
C62   C     C_R   0.859697 0.860200 0.749925 1.051601
C63   C     C_R   0.640695 0.360797 0.750798 1.075900
C64   C     C_R   0.639834 0.359935 0.250496 1.057854
C65   C     C_R   0.359957 0.359824 0.749949 1.021730
C66   C     C_R   0.361368 0.358602 0.250921 1.034341
C67   C     C_R   0.999921 0.000619 0.109892 0.866132
C68   C     C_R   0.641187 0.638876 0.750919 1.041596
C69   C     C_R   0.000135 0.000148 0.890039 0.943832
C70   C     C_R   0.499798 0.499619 0.609877 0.883580
C71   C     C_R   0.500156 0.499795 0.390023 0.917330
C72   C     C_R   0.999453 0.000004 0.390023 0.910768
C73   C     C_R   0.999873 0.000117 0.609988 0.895301
C74   C     C_R   0.499816 0.500026 0.890004 0.888103
C75   C     C_R   0.499762 0.500174 0.109946 0.824490
C76   C     C_R   0.978002 0.063217 0.473313 0.091712
C77   C     C_R   0.979009 0.063364 0.526410 -0.001128
C78   C     C_R   0.496677 0.565878 0.973054 0.098744
C79   C     C_R   0.639861 0.640788 0.250809 0.957485
C80   C     C_R   0.496403 0.565983 0.026286 -0.030230
C81   C     C_R   0.993312 0.999440 0.445730 -0.105830
C82   C     C_R   0.994311 0.999647 0.554257 -0.098363
C83   C     C_R   0.494333 0.500263 0.945702 -0.095931
C84   C     C_R   0.494239 0.500526 0.054120 -0.093181
C85   C     C_R   0.999063 0.933236 0.473197 -0.131409
C86   C     C_R   0.999494 0.933336 0.527048 -0.136668
C87   C     C_R   0.482928 0.434920 0.973089 -0.156966
C88   C     C_R   0.482915 0.435050 0.026953 -0.134048
C89   C     C_3   0.004293 0.141663 0.529287 0.106514
C90   C     C_R   0.755460 0.203194 0.705384 0.298088
C91   C     C_3   0.002984 0.141194 0.469512 0.150909
C92   C     C_3   0.545210 0.632077 0.029318 0.119292
C93   C     C_3   0.546586 0.630858 0.969653 0.108827
C94   C     C_R   0.199287 0.754907 0.210350 0.286704
C95   C     C_R   0.204635 0.759920 0.794951 0.293037
C96   C     C_R   0.751272 0.800383 0.211106 0.304599
C97   C     C_R   0.813127 0.742039 0.782015 0.303183
C98   C     C_R   0.699680 0.257239 0.706940 0.307328
C99   C     C_R   0.698156 0.253102 0.293599 0.308863
C100  C     C_R   0.238388 0.315943 0.778441 0.279697
H1    H     H_    0.006817 0.881789 0.453340 0.208368
H2    H     H_    0.109108 0.103965 0.546987 0.214009
H3    H     H_    0.110657 0.108809 0.457051 0.207739
H4    H     H_    0.095950 0.199983 0.454527 0.220715
H5    H     H_    0.455602 0.701696 0.034674 0.235782
H6    H     H_    0.498657 0.686297 0.090109 0.274398
H7    H     H_    0.543356 0.739874 0.952290 0.220615
H8    H     H_    0.511127 0.686416 0.905326 0.263938
H9    H     H_    0.611953 0.624778 0.093724 0.243361
H10   H     H_    0.633770 0.564846 0.047684 0.184354
H11   H     H_    0.654874 0.654197 0.956901 0.239305
H12   H     H_    0.007400 0.881911 0.547111 0.201562
H13   H     H_    0.637683 0.563603 0.959205 0.212678
H14   H     H_    0.075972 0.657492 0.122404 0.394476
H15   H     H_    0.081996 0.682946 0.892034 0.391898
H16   H     H_    0.734996 0.801646 0.070278 0.377102
H17   H     H_    0.911427 0.686576 0.900506 0.378270
H18   H     H_    0.577673 0.201783 0.599222 0.394647
H19   H     H_    0.574288 0.192277 0.397391 0.402728
H20   H     H_    0.131319 0.464830 0.839251 0.410555
H21   H     H_    0.180098 0.420924 0.106154 0.398844
H22   H     H_    0.692707 0.056551 0.621179 0.402704
H23   H     H_    0.476918 0.383371 0.953126 0.194577
H24   H     H_    0.794460 0.197947 0.406095 0.360159
H25   H     H_    0.182587 0.273695 0.898437 0.356898
H26   H     H_    0.032165 0.380091 0.173068 0.395250
H27   H     H_    0.316917 0.562289 0.120175 0.377200
H28   H     H_    0.271535 0.658109 0.937108 0.389134
H29   H     H_    0.624600 0.908470 0.219173 0.365997
H30   H     H_    0.879101 0.549173 0.842443 0.397949
H31   H     H_    0.773194 0.175883 0.890315 0.375860
H32   H     H_    0.934203 0.262608 0.146494 0.408637
H33   H     H_    0.279473 0.036175 0.729113 0.353057
H34   H     H_    0.476909 0.383565 0.047112 0.197573
H35   H     H_    0.167762 0.129841 0.366906 0.353661
H36   H     H_    0.275730 0.654967 0.386503 0.370939
H37   H     H_    0.425246 0.743121 0.649869 0.406449
H38   H     H_    0.744761 0.540686 0.377605 0.382153
H39   H     H_    0.595371 0.665594 0.643103 0.362849
H40   H     H_    0.322032 0.938241 0.380906 0.416891
H41   H     H_    0.311534 0.908601 0.602476 0.416681
H42   H     H_    0.803006 0.751351 0.435607 0.388910
H43   H     H_    0.623249 0.950316 0.659608 0.406941
H44   H     H_    0.817300 0.437512 0.879728 0.396841
H45   H     H_    0.897490 0.177618 0.539284 0.251787
H46   H     H_    0.841362 0.422979 0.121989 0.399212
H47   H     H_    0.466042 0.127627 0.665263 0.409600
H48   H     H_    0.468962 0.114432 0.319417 0.412494
H49   H     H_    0.133260 0.071642 0.073350 0.236674
H50   H     H_    0.061133 0.130621 0.078563 0.244509
H51   H     H_    0.079708 0.150745 0.955432 0.257959
H52   H     H_    0.147325 0.087037 0.955770 0.220956
H53   H     H_    0.919409 0.851640 0.044788 0.217059
H54   H     H_    0.851991 0.916029 0.044637 0.231060
H55   H     H_    0.919868 0.850842 0.955091 0.218377
H56   H     H_    0.949175 0.182027 0.592283 0.240149
H57   H     H_    0.852275 0.915054 0.954182 0.214413
H58   H     H_    0.368066 0.426574 0.572645 0.243367
H59   H     H_    0.441071 0.368727 0.578332 0.240794
H60   H     H_    0.425184 0.346960 0.455366 0.244504
H61   H     H_    0.355694 0.408626 0.454334 0.230659
H62   H     H_    0.577572 0.650608 0.544743 0.223929
H63   H     H_    0.645913 0.587206 0.545831 0.209746
H64   H     H_    0.576044 0.651122 0.454689 0.229292
H65   H     H_    0.645659 0.589231 0.455564 0.230680
H66   H     H_    0.944350 0.178070 0.406891 0.239435
H67   H     H_    0.964031 0.242816 0.450417 0.218453
H68   H     H_    0.073820 0.160568 0.591158 0.252689
N1    N     N_3   0.949888 0.190929 0.552491 -0.381640
N2    N     N_3   0.093110 0.097215 0.944900 -0.372140
N3    N     N_3   0.906339 0.905387 0.054867 -0.362792
N4    N     N_3   0.906721 0.904516 0.944610 -0.381848
N5    N     N_3   0.408716 0.398626 0.552427 -0.423283
N6    N     N_3   0.410321 0.399988 0.444281 -0.396394
N7    N     N_3   0.591311 0.597103 0.555294 -0.437822
N8    N     N_3   0.591130 0.597784 0.444916 -0.390570
N9    N     N_3   0.947002 0.188662 0.446422 -0.418165
N10   N     N_3   0.077778 0.151488 0.551542 -0.407024
N11   N     N_3   0.074199 0.149289 0.444323 -0.439968
N12   N     N_3   0.507737 0.696161 0.051051 -0.339408
N13   N     N_3   0.511024 0.693995 0.945211 -0.379299
N14   N     N_3   0.616789 0.618775 0.053852 -0.398337
N15   N     N_3   0.617569 0.613919 0.946036 -0.405362
N16   N     N_3   0.092857 0.100152 0.052901 -0.423233
O1    O     O_3   0.000000 0.000010 0.249960 -0.563884
O2    O     O_R   0.414520 0.646190 0.219700 -0.572216
O3    O     O_3   0.872046 0.578950 0.810888 -0.426268
O4    O     O_2   0.933346 0.198690 0.828079 -0.250023
O5    O     O_2   0.874475 0.289913 0.880219 -0.139878
O6    O     O_3   0.823390 0.158741 0.882664 -0.498390
O7    O     O_2   0.805022 0.259578 0.100934 -0.171438
O8    O     O_2   0.802797 0.135735 0.132660 -0.210430
O9    O     O_3   0.919878 0.210633 0.148980 -0.536526
O10   O     O_2   0.300060 0.142747 0.623018 -0.168052
O11   O     O_2   0.184506 0.095071 0.652761 -0.328932
O12   O     O_3   0.302412 0.043836 0.695047 -0.409570
O13   O     O_R   0.585480 0.646190 0.780300 -0.615515
O14   O     O_2   0.292571 0.043157 0.292915 -0.160319
O15   O     O_2   0.313645 0.122086 0.367644 -0.210721
O16   O     O_3   0.182015 0.086574 0.346387 -0.542938
O17   O     O_2   0.433539 0.710259 0.331406 -0.277658
O18   O     O_2   0.359079 0.779609 0.390800 -0.153075
O19   O     O_3   0.326993 0.644634 0.376688 -0.505709
O20   O     O_2   0.296639 0.741270 0.595711 -0.159243
O21   O     O_2   0.287549 0.621954 0.634525 -0.217194
O22   O     O_3   0.409033 0.692000 0.645187 -0.516718
O23   O     O_2   0.863052 0.620298 0.338619 -0.196625
O24   O     O_R   0.585480 0.646190 0.219700 -0.598232
O25   O     O_2   0.786325 0.551060 0.279742 -0.239837
O26   O     O_3   0.730934 0.591174 0.367565 -0.497736
O27   O     O_2   0.547616 0.811883 0.714250 -0.202453
O28   O     O_2   0.613427 0.806724 0.632648 -0.222789
O29   O     O_3   0.562582 0.687852 0.668940 -0.571088
O30   O     O_2   0.188927 0.927821 0.335162 -0.285264
O31   O     O_2   0.222897 0.829797 0.394162 -0.242971
O32   O     O_3   0.325921 0.905749 0.350539 -0.420545
O33   O     O_2   0.184817 0.831819 0.611842 -0.232933
O34   O     O_2   0.203784 0.932088 0.671886 -0.307808
O35   O     O_R   0.085460 0.853840 0.280340 -0.591074
O36   O     O_3   0.318171 0.874077 0.631606 -0.461639
O37   O     O_2   0.908370 0.760701 0.362951 -0.220361
O38   O     O_2   0.820567 0.862278 0.365391 -0.286420
O39   O     O_3   0.780319 0.737366 0.402346 -0.479167
O40   O     O_2   0.774759 0.959219 0.700680 -0.285481
O41   O     O_2   0.737194 0.883171 0.628801 -0.261591
O42   O     O_3   0.638480 0.929725 0.693337 -0.425183
O43   O     O_2   0.678298 0.415753 0.842939 -0.309483
O44   O     O_2   0.733602 0.320463 0.895572 -0.253661
O45   O     O_3   0.818032 0.411013 0.846479 -0.447881
O46   O     O_R   0.085460 0.853840 0.719660 -0.597617
O47   O     O_2   0.704840 0.367892 0.122641 -0.257691
O48   O     O_2   0.735839 0.447337 0.194984 -0.307025
O49   O     O_3   0.841988 0.383574 0.148222 -0.505954
O50   O     O_2   0.411461 0.260792 0.646723 -0.296930
O51   O     O_2   0.464222 0.241891 0.732495 -0.259610
O52   O     O_3   0.419370 0.129513 0.684402 -0.418802
O53   O     O_2   0.467217 0.245294 0.268289 -0.260164
O54   O     O_2   0.413291 0.240179 0.354089 -0.273502
O55   O     O_3   0.423029 0.121329 0.299582 -0.423860
O56   O     O_R   0.914540 0.853840 0.280340 -0.582377
O57   O     O_R   0.914540 0.853840 0.719660 -0.625029
O58   O     O_R   0.585460 0.353840 0.780340 -0.589773
O59   O     O_R   0.585460 0.353840 0.219660 -0.604277
O60   O     O_R   0.414540 0.353840 0.780340 -0.604975
O61   O     O_3   0.000000 0.000010 0.750040 -0.555929
O62   O     O_R   0.414540 0.353840 0.219660 -0.572778
O63   O     O_R   0.853820 0.914550 0.219610 -0.589953
O64   O     O_R   0.853820 0.914550 0.780390 -0.586401
O65   O     O_R   0.146180 0.914550 0.219610 -0.608037
O66   O     O_R   0.146180 0.914550 0.780390 -0.622108
O67   O     O_R   0.353820 0.414550 0.719610 -0.608084
O68   O     O_R   0.353820 0.414550 0.280390 -0.629457
O69   O     O_R   0.646180 0.414550 0.719610 -0.590779
O70   O     O_R   0.646180 0.414550 0.280390 -0.587199
O71   O     O_R   0.146170 0.085440 0.219600 -0.621591
O72   O     O_3   0.500000 0.500010 0.749960 -0.559089
O73   O     O_R   0.146170 0.085440 0.780400 -0.634281
O74   O     O_R   0.853830 0.085440 0.219600 -0.580379
O75   O     O_R   0.853830 0.085440 0.780400 -0.588028
O76   O     O_R   0.646170 0.585440 0.719600 -0.611693
O77   O     O_R   0.646170 0.585440 0.280400 -0.574283
O78   O     O_R   0.353830 0.585440 0.719600 -0.560002
O79   O     O_R   0.353830 0.585440 0.280400 -0.592053
O80   O     O_R   0.939270 0.999980 0.134160 -0.571308
O81   O     O_R   0.939270 0.999980 0.865840 -0.593587
O82   O     O_R   0.060730 0.999980 0.134160 -0.661067
O83   O     O_3   0.500000 0.500010 0.250040 -0.566975
O84   O     O_R   0.060730 0.999980 0.865840 -0.613928
O85   O     O_R   0.439270 0.499980 0.634160 -0.628034
O86   O     O_R   0.439270 0.499980 0.365840 -0.603287
O87   O     O_R   0.560730 0.499980 0.634160 -0.610480
O88   O     O_R   0.560730 0.499980 0.365840 -0.614840
O89   O     O_R   0.000000 0.060760 0.365760 -0.632407
O90   O     O_R   1.000000 0.060760 0.634240 -0.653262
O91   O     O_R   0.500000 0.560760 0.865760 -0.631563
O92   O     O_R   0.500000 0.560760 0.134240 -0.665020
O93   O     O_R   0.000000 0.939310 0.365770 -0.608311
O94   O     O_R   0.914520 0.146190 0.280300 -0.612501
O95   O     O_R   0.000000 0.939310 0.634230 -0.626552
O96   O     O_R   0.500000 0.439310 0.865770 -0.630950
O97   O     O_R   0.500000 0.439310 0.134230 -0.616775
O98   O     O_2   0.051949 0.763074 0.195652 -0.316538
O99   O     O_2   0.130045 0.794450 0.122804 -0.254357
O100  O     O_3   0.115789 0.657257 0.148414 -0.441572
O101  O     O_2   0.169773 0.804403 0.890664 -0.223766
O102  O     O_2   0.068445 0.799707 0.829614 -0.298932
O103  O     O_3   0.117677 0.677201 0.863721 -0.448578
O104  O     O_2   0.752959 0.910102 0.141512 -0.212584
O105  O     O_R   0.914520 0.146190 0.719700 -0.610357
O106  O     O_2   0.849811 0.816992 0.136420 -0.313023
O107  O     O_3   0.720331 0.782550 0.104423 -0.487507
O108  O     O_2   0.951918 0.702745 0.802056 -0.200563
O109  O     O_2   0.909776 0.813871 0.844701 -0.318285
O110  O     O_3   0.865115 0.692062 0.880901 -0.495067
O111  O     O_2   0.568878 0.312289 0.668009 -0.315183
O112  O     O_2   0.674464 0.309739 0.611484 -0.240478
O113  O     O_3   0.605990 0.189107 0.630663 -0.456302
O114  O     O_2   0.676734 0.296704 0.391182 -0.262807
O115  O     O_2   0.571173 0.310866 0.334751 -0.308617
O116  O     O_R   0.085480 0.146190 0.280300 -0.599380
O117  O     O_3   0.602453 0.181745 0.365737 -0.426453
O118  O     O_2   0.260143 0.402041 0.860749 -0.280400
O119  O     O_2   0.252165 0.464913 0.777927 -0.273495
O120  O     O_3   0.133015 0.420536 0.817395 -0.410430
O121  O     O_2   0.203478 0.455587 0.204817 -0.198993
O122  O     O_2   0.311194 0.413462 0.158149 -0.338260
O123  O     O_3   0.186518 0.373317 0.123899 -0.448382
O124  O     O_2   0.754933 0.183928 0.601403 -0.224611
O125  O     O_2   0.831871 0.098846 0.648431 -0.326886
O126  O     O_3   0.693427 0.081491 0.655028 -0.443790
O127  O     O_R   0.085480 0.146190 0.719700 -0.608493
O128  O     O_2   0.694249 0.078487 0.335653 -0.167282
O129  O     O_2   0.825714 0.084081 0.343961 -0.344988
O130  O     O_3   0.750064 0.167655 0.402342 -0.423575
O131  O     O_2   0.051548 0.298668 0.806727 -0.142472
O132  O     O_2   0.092979 0.184810 0.846051 -0.317130
O133  O     O_3   0.142554 0.304042 0.883776 -0.432320
O134  O     O_2   0.093314 0.254972 0.141663 -0.279661
O135  O     O_2   0.033746 0.250329 0.225494 -0.310469
O136  O     O_3   0.077111 0.374827 0.194232 -0.436074
O137  O     O_2   0.238925 0.693813 0.100819 -0.180140
O138  O     O_R   0.414520 0.646190 0.780300 -0.587693
O139  O     O_2   0.363319 0.696385 0.132517 -0.302134
O140  O     O_3   0.287473 0.579568 0.149723 -0.507768
O141  O     O_2   0.304826 0.589128 0.848643 -0.284520
O142  O     O_2   0.370434 0.701771 0.868292 -0.289809
O143  O     O_3   0.245039 0.683346 0.908766 -0.424306
O144  O     O_2   0.581512 0.759093 0.148471 -0.208741
O145  O     O_2   0.545572 0.785906 0.237214 -0.239796
O146  O     O_3   0.611735 0.886530 0.185478 -0.429691
O147  O     O_2   0.750003 0.596792 0.860844 -0.286486
O148  O     O_2   0.748590 0.534435 0.777965 -0.253112
S1    S     S_3+6 0.121922 0.744436 0.168432 0.099578
S2    S     S_3+6 0.757215 0.129625 0.343688 0.107906
S3    S     S_3+6 0.116413 0.259962 0.830021 0.123661
S4    S     S_3+6 0.094703 0.284565 0.195646 0.079088
S5    S     S_3+6 0.287395 0.671190 0.144943 0.104081
S6    S     S_3+6 0.296670 0.670184 0.856284 0.110140
S7    S     S_3+6 0.603975 0.796552 0.197364 0.146606
S8    S     S_3+6 0.781798 0.596429 0.807528 0.109370
S9    S     S_3+6 0.860154 0.225196 0.846405 0.144774
S10   S     S_3+6 0.828193 0.211628 0.145165 0.121598
S11   S     S_3+6 0.259604 0.117381 0.669973 0.117152
S12   S     S_3+6 0.138518 0.762991 0.845778 0.118332
S13   S     S_3+6 0.264242 0.107878 0.322365 0.112338
S14   S     S_3+6 0.356532 0.722490 0.349532 0.124210
S15   S     S_3+6 0.317445 0.697442 0.642474 0.131403
S16   S     S_3+6 0.786482 0.612237 0.318342 0.134417
S17   S     S_3+6 0.601351 0.768365 0.683075 0.084523
S18   S     S_3+6 0.243033 0.867213 0.344629 0.124728
S19   S     S_3+6 0.233427 0.859713 0.654255 0.109450
S20   S     S_3+6 0.829086 0.781347 0.357234 0.113316
S21   S     S_3+6 0.724366 0.898730 0.684920 0.106304
S22   S     S_3+6 0.740541 0.362051 0.845824 0.107200
S23   S     S_3+6 0.770221 0.830076 0.147255 0.090843
S24   S     S_3+6 0.754941 0.377063 0.168243 0.083985
S25   S     S_3+6 0.404676 0.218610 0.696191 0.107497
S26   S     S_3+6 0.407529 0.212001 0.299851 0.115314
S27   S     S_3+6 0.887609 0.738864 0.827506 0.090554
S28   S     S_3+6 0.635906 0.269261 0.653750 0.117401
S29   S     S_3+6 0.635831 0.262849 0.346984 0.113333
S30   S     S_3+6 0.222408 0.402790 0.809156 0.106423
S31   S     S_3+6 0.236698 0.391922 0.176689 0.111605
S32   S     S_3+6 0.761961 0.141881 0.650991 0.104079
Zn1   Zn    Zn3+2 0.000000 0.913260 0.293350 1.163843
Zn2   Zn    Zn3+2 0.413230 0.500000 0.293420 1.126505
Zn3   Zn    Zn3+2 0.586770 0.500000 0.706580 1.131692
Zn4   Zn    Zn3+2 0.586770 0.500000 0.293420 1.131150
Zn5   Zn    Zn3+2 0.000000 0.086780 0.293330 1.099748
Zn6   Zn    Zn3+2 0.000000 0.086780 0.706670 1.105752
Zn7   Zn    Zn3+2 0.500000 0.586780 0.793330 1.121631
Zn8   Zn    Zn3+2 0.500000 0.586780 0.206670 1.100752
Zn9   Zn    Zn3+2 0.000000 0.913260 0.706650 1.135234
Zn10  Zn    Zn3+2 0.500000 0.413260 0.793350 1.134462
Zn11  Zn    Zn3+2 0.500000 0.413260 0.206650 1.129126
Zn12  Zn    Zn3+2 0.913230 0.000000 0.206580 1.161548
Zn13  Zn    Zn3+2 0.913230 1.000000 0.793420 1.169197
Zn14  Zn    Zn3+2 0.086770 0.000000 0.206580 1.106381
Zn15  Zn    Zn3+2 0.086770 1.000000 0.793420 1.121687
Zn16  Zn    Zn3+2 0.413230 0.500000 0.706580 1.148754

loop_
_geom_bond_atom_site_label_1
_geom_bond_atom_site_label_2
_ccdc_geom_bond_type
H9    N14   S    
O136  S4    S    
C35   O73   A    
O11   S11   D    
O78   Zn16  S    
C74   C83   S    
O63   Zn12  S    
O35   Zn1   S    
O61   Zn15  S    
O121  S31   D    
C77   C89   S    
H51   N2    S    
H7    N13   S    
O108  S27   D    
O41   S21   D    
O51   S25   D    
C69   O81   A    
C24   O116  A    
H29   O146  S    
O49   S24   S    
C92   N12   S    
C93   N13   S    
H15   O103  S    
C6    C94   A    
C30   S20   S    
C4    C12   A    
O69   Zn3   S    
C90   S32   S    
O34   S19   D    
O148  S8    D    
C19   C32   A    
O48   S24   D    
C45   C47   A    
C25   C29   A    
C39   C61   S    
C65   O60   A    
C66   O68   A    
C11   C20   A    
O43   S22   D    
C9    S8    S    
C27   C31   A    
C72   O89   A    
O27   S17   D    
O87   Zn3   S    
H44   O45   S    
O131  S3    D    
O92   Zn8   S    
C58   C70   S    
O19   S14   S    
O82   Zn14  S    
O25   S16   D    
O29   S17   S    
O1    Zn1   S    
C5    S4    S    
C80   C92   S    
O73   Zn15  S    
O112  S28   D    
H52   N2    S    
H66   N9    S    
O83   Zn8   S    
C94   S1    S    
C52   N7    S    
C52   C58   A    
C20   C33   A    
O127  Zn6   S    
O116  Zn5   S    
C46   O138  A    
O32   S18   S    
C36   C44   A    
C41   C63   S    
C42   C64   S    
O3    S8    S    
O88   Zn4   S    
C36   S26   S    
C1    O74   A    
C66   O62   A    
C16   C25   A    
O72   Zn7   S    
O74   Zn12  S    
C84   C88   A    
C20   S10   S    
O113  S28   S    
C22   C36   A    
C8    C17   A    
O104  S23   D    
C89   N1    S    
C92   N14   S    
H61   N6    S    
C93   N15   S    
O46   Zn9   S    
C77   C82   A    
H33   O12   S    
O57   Zn9   S    
O114  S29   D    
C25   S15   S    
O14   S13   D    
O130  S2    S    
C35   O127  A    
O64   Zn13  S    
O13   Zn7   S    
C3    S31   S    
O47   S24   D    
C45   N16   S    
O68   Zn2   S    
O146  S7    S    
O70   Zn4   S    
O90   Zn6   S    
C23   S14   S    
C64   O59   A    
C85   C86   A    
C73   O95   A    
O84   Zn15  S    
C74   O96   A    
C33   C42   A    
O60   Zn10  S    
O28   S17   D    
H41   O36   S    
C78   C80   A    
C75   C84   S    
C18   C68   S    
O115  S29   D    
C14   C24   S    
O101  S12   D    
O54   S26   D    
O94   Zn5   S    
C38   C95   A    
H49   N16   S    
C32   C41   A    
C89   C91   S    
O71   Zn14  S    
O72   Zn10  S    
H47   O52   S    
O67   Zn16  S    
H21   O123  S    
O107  S23   S    
C2    C11   A    
H55   N4    S    
H6    N12   S    
O17   S14   D    
H37   O22   S    
C31   S21   S    
C3    C44   A    
O98   S1    D    
O138  Zn7   S    
O85   Zn16  S    
H30   O3    S    
H50   N16   S    
H62   N7    S    
C89   N10   S    
H38   O26   S    
C68   O13   A    
C51   N6    S    
C21   S11   S    
C48   N3    S    
O53   S26   D    
C62   O64   A    
O91   Zn7   S    
C73   O90   A    
H11   N15   S    
H28   O143  S    
C37   C59   S    
C23   C28   A    
C12   C35   S    
O2    Zn8   S    
C10   C90   A    
O72   Zn16  S    
C38   C60   S    
C2    C99   A    
C26   C30   A    
H32   O9    S    
H2    N10   S    
C26   S16   S    
H42   O39   S    
C52   C53   A    
O80   Zn12  S    
C62   O57   A    
C28   S18   S    
C53   C56   A    
O1    Zn5   S    
O129  S2    D    
C34   C43   A    
O39   S20   S    
O99   S1    D    
O33   S19   D    
C49   N4    S    
O96   Zn10  S    
O42   S21   S    
C14   C22   A    
C4    C100  A    
C13   O75   A    
C88   H34   S    
C87   H23   S    
C70   O87   A    
H13   N15   S    
C28   C37   A    
O1    Zn12  S    
H54   N3    S    
O59   Zn11  S    
O7    S10   D    
C99   S29   S    
C76   C91   S    
O75   Zn13  S    
C9    C18   A    
C45   C55   A    
C4    S3    S    
C29   S19   S    
H43   O42   S    
O145  S7    D    
H36   O19   S    
C81   C85   A    
C48   C55   A    
C83   C87   A    
O4    S9    D    
O132  S3    D    
C2    S2    S    
C67   O82   A    
C80   C84   A    
O111  S28   D    
H65   N8    S    
C95   S12   S    
O105  Zn6   S    
H8    N13   S    
C50   N5    S    
C60   O46   A    
O140  S5    S    
O134  S4    D    
O79   Zn2   S    
C75   O92   A    
C27   S17   S    
H4    N11   S    
O20   S15   D    
C74   O91   A    
O128  S2    D    
C31   C40   A    
O12   S11   S    
H25   O133  S    
C78   C83   A    
C71   O88   A    
C19   S9    S    
C8    C96   A    
C59   O65   A    
O81   Zn13  S    
C100  S30   S    
C72   C81   S    
H46   O49   S    
O83   Zn11  S    
O9    S10   S    
O18   S14   D    
C98   S28   S    
O97   Zn11  S    
O135  S4    D    
H45   N1    S    
C50   C58   A    
C7    S6    S    
O26   S16   S    
C43   C100  A    
C16   C46   S    
H35   O16   S    
O55   S26   S    
C70   O85   A    
C21   C34   A    
O30   S18   D    
O1    Zn14  S    
C82   C86   A    
C63   O58   A    
O110  S27   S    
C8    S7    S    
H58   N5    S    
C10   C19   A    
C43   C65   S    
C56   C71   S    
C50   C51   A    
H24   O130  S    
C57   O2    A    
C47   C54   A    
O8    S10   D    
C7    C16   A    
H67   N9    S    
O76   Zn3   S    
O122  S31   D    
C79   O77   A    
O6    S9    S    
C46   O78   A    
C96   S23   S    
C73   C82   S    
C40   C97   A    
C68   O76   A    
H31   O6    S    
O86   Zn2   S    
C57   O79   A    
C9    C97   A    
O83   Zn4   S    
C61   O56   A    
H60   N6    S    
C3    C5    A    
O95   Zn9   S    
O93   Zn1   S    
O77   Zn4   S    
O15   S13   D    
O50   S25   D    
O126  S32   S    
H17   O110  S    
O40   S21   D    
C1    O94   A    
H26   O136  S    
O125  S32   D    
O23   S16   D    
O58   Zn10  S    
C54   C69   S    
H39   O29   S    
C71   O86   A    
O118  S30   D    
C92   C93   S    
H64   N8    S    
H3    N11   S    
O52   S25   S    
O142  S6    D    
H10   N14   S    
C87   C88   A    
O123  S31   S    
O56   Zn1   S    
H20   O120  S    
C49   C54   A    
C13   O105  A    
O22   S15   S    
H48   O55   S    
C44   C66   S    
C1    C11   S    
C17   C79   S    
C69   O84   A    
C67   O80   A    
O65   Zn14  S    
O89   Zn5   S    
O16   S13   S    
C97   S27   S    
C17   C26   A    
C51   C56   A    
H57   N4    S    
O147  S8    D    
C78   C93   S    
C79   O24   A    
H56   N1    S    
H22   O126  S    
C40   C62   S    
O117  S29   S    
C72   O93   A    
O141  S6    D    
C6    C15   A    
O120  S30   S    
C91   N11   S    
C30   C39   A    
O61   Zn6   S    
C15   C23   A    
O66   Zn15  S    
C33   S24   S    
O83   Zn2   S    
C60   O66   A    
C15   C57   S    
C22   S13   S    
C32   S22   S    
H63   N7    S    
O106  S23   D    
C64   O70   A    
O144  S7    D    
O31   S18   D    
C76   C77   A    
O109  S27   D    
O61   Zn13  S    
O62   Zn11  S    
C12   C21   A    
O24   Zn8   S    
O45   S22   S    
C29   C38   A    
C24   O71   A    
C86   H12   S    
O137  S5    D    
O119  S30   D    
H53   N3    S    
C5    C14   A    
H27   O140  S    
H19   O117  S    
O72   Zn3   S    
O100  S1    S    
O124  S32   D    
H14   O100  S    
O139  S5    D    
C65   O67   A    
H5    N12   S    
O102  S12   D    
C47   N2    S    
C85   H1    S    
O10   S11   D    
C48   C49   A    
O103  S12   S    
H18   O113  S    
O36   S19   S    
C18   C27   A    
O44   S22   D    
C10   C13   S    
C76   C81   A    
C55   C67   S    
O61   Zn9   S    
C61   O63   A    
C7    C95   A    
C75   O97   A    
H16   O107  S    
O143  S6    S    
C6    S5    S    
C59   O35   A    
C42   C99   A    
O38   S20   D    
C63   O69   A    
O5    S9    D    
O133  S3    S    
H68   N10   S    
C91   N9    S    
C37   C94   A    
O37   S20   D    
C39   C96   A    
C34   S25   S    
H40   O32   S    
H59   N5    S    
C41   C98   A    
O21   S15   D    
C90   C98   A    
C53   N8    S    
