data_mof_unit_42807.cif
_audit_creation_date              2012-12-10T16:44:49-0500
_audit_creation_method            fapswitch 2.2
_symmetry_space_group_name_H-M    P1
_symmetry_Int_Tables_number       1
_space_group_crystal_system       triclinic
_cell_length_a                    18.399847
_cell_length_b                    18.460939
_cell_length_c                    18.414258
_cell_angle_alpha                 119.77922
_cell_angle_beta                  119.618873
_cell_angle_gamma                 90.327178
_cell_volume                      4450.37978577

loop_
_atom_site_label
_atom_site_type_symbol
_atom_type_description
_atom_site_fract_x
_atom_site_fract_y
_atom_site_fract_z
_atom_type_partial_charge
C1    C     C_R   0.138824 0.361608 0.001141 0.876939
C2    C     C_R   0.553051 0.324385 0.930703 -0.147112
C3    C     C_R   0.606831 0.378217 0.931638 -0.143797
C4    C     C_R   0.863891 0.641679 0.003141 0.729592
C5    C     C_R   0.689785 0.371756 0.954532 -0.160665
C6    C     C_2   0.721724 0.777994 0.942316 -0.353769
C7    C     C_2   0.673523 0.788279 0.980544 0.419897
C8    C     C_2   0.766192 0.710661 0.931775 0.417827
C9    C     C_2   0.818847 0.708842 0.014030 0.289214
C10   C     C_2   0.713137 0.278719 0.445170 -0.235302
C11   C     C_2   0.677190 0.190111 0.386774 0.393663
C12   C     C_R   0.808132 0.121382 0.037314 -0.245554
C13   C     C_2   0.759930 0.330218 0.556512 -0.228031
C14   C     C_2   0.820556 0.306287 0.611880 0.425812
C15   C     C_2   0.337013 0.279358 0.068257 -0.281418
C16   C     C_R   0.138670 0.637402 0.277269 0.763381
C17   C     C_2   0.305002 0.192584 0.994768 -0.379902
C18   C     C_2   0.283614 0.338362 0.065136 0.495606
C19   C     C_2   0.194126 0.305782 0.005695 -0.424746
C20   C     C_2   0.219197 0.763203 0.927366 -0.124527
C21   C     C_2   0.307474 0.794212 0.990488 -0.239774
C22   C     C_2   0.169100 0.700413 0.925741 -0.267777
C23   C     C_R   0.779767 0.185675 0.019623 0.023465
C24   C     C_2   0.194217 0.707756 0.011786 0.368164
C25   C     C_2   0.225209 0.762871 0.557954 -0.262396
C26   C     C_2   0.307649 0.817304 0.614215 -0.307612
C27   C     C_2   0.165771 0.719904 0.447045 0.383515
C28   C     C_R   0.864117 0.361335 0.722778 0.681635
C29   C     C_2   0.196507 0.683528 0.388077 0.215537
C30   C     C_R   0.636145 0.138141 0.277023 0.723669
C31   C     C_R   0.361864 0.862503 0.723329 0.847565
C32   C     C_R   0.636117 0.859155 0.997479 0.746399
C33   C     C_R   0.361373 0.138296 0.999636 0.883308
C34   C     C_R   0.836642 0.242304 0.024152 -0.094399
C35   C     C_R   0.360577 0.858354 0.998161 0.831900
C36   C     C_R   0.640257 0.139671 0.000045 0.788504
C37   C     C_R   0.139788 0.642146 0.002438 0.727827
C38   C     C_R   0.860640 0.360318 0.000727 0.888366
C39   C     C_R   0.922486 0.234703 0.051202 0.368693
C40   C     C_R   0.942190 0.161708 0.053059 0.435388
C41   C     C_R   0.886382 0.107721 0.049859 -0.307606
C42   C     C_3   0.582185 0.657170 0.918002 0.061318
C43   C     C_3   0.501230 0.667207 0.921802 -0.372939
C44   C     C_3   0.516584 0.681786 0.018240 -0.757232
C45   C     C_R   0.696759 0.195272 0.999746 -0.117015
C46   C     C_3   0.755341 0.678219 0.786918 0.118973
C47   C     C_3   0.664698 0.667873 0.703514 -0.362473
C48   C     C_3   0.674857 0.708425 0.652858 -0.966441
C49   C     C_3   0.865882 0.764632 0.184477 0.134666
C50   C     C_3   0.790161 0.698151 0.157282 -0.294135
C51   C     C_3   0.823488 0.671764 0.231556 -0.953692
C52   C     C_3   0.596223 0.124811 0.413439 0.062441
C53   C     C_3   0.597072 0.070859 0.455261 -0.318444
C54   C     C_3   0.507449 0.042471 0.435367 -0.969953
C55   C     C_3   0.865089 0.182238 0.591697 0.177579
C56   C     C_R   0.667219 0.257434 0.978782 0.078186
C57   C     C_3   0.963754 0.199954 0.664505 -0.365559
C58   C     C_3   0.976975 0.137566 0.698099 -0.945693
C59   C     C_3   0.373008 0.454743 0.101507 0.105251
C60   C     C_3   0.402471 0.555462 0.160071 -0.302193
C61   C     C_3   0.449901 0.587982 0.127933 -1.028235
C62   C     C_3   0.054700 0.349494 0.183021 0.106118
C63   C     C_3   0.145760 0.352652 0.201187 -0.291688
C64   C     C_3   0.214877 0.373909 0.306347 -0.979874
C65   C     C_3   0.320970 0.774662 0.177898 0.063829
C66   C     C_3   0.309517 0.801731 0.263929 -0.307136
C67   C     C_R   0.722130 0.312269 0.979931 0.061703
C68   C     C_3   0.376551 0.783462 0.338992 -0.912589
C69   C     C_3   0.062243 0.790496 0.447385 0.088303
C70   C     C_3   0.025606 0.794925 0.507743 -0.329550
C71   C     C_3   0.002453 0.879254 0.548569 -0.977474
C72   C     C_3   0.302273 0.616954 0.419823 0.097844
C73   C     C_3   0.399567 0.629390 0.458459 -0.294888
C74   C     C_3   0.419897 0.543869 0.437437 -0.981455
C75   C     C_3   0.008945 0.104556 0.971547 0.075326
C76   C     C_3   0.092224 0.082134 0.983050 -0.325186
C77   C     C_3   0.081985 0.032705 0.881262 -0.972308
C78   C     C_R   0.806520 0.304963 0.003279 -0.145878
C79   C     C_R   0.582004 0.263861 0.952626 -0.155340
H1    H     H_    0.583742 0.424413 0.913179 0.123941
H2    H     H_    0.595465 0.598594 0.918161 0.145501
H3    H     H_    0.566083 0.641733 0.843789 0.093150
H4    H     H_    0.484547 0.723398 0.917782 0.204396
H5    H     H_    0.443533 0.606094 0.854096 0.166794
H6    H     H_    0.533886 0.626341 0.023748 0.235052
H7    H     H_    0.455181 0.684980 0.015668 0.219523
H8    H     H_    0.570849 0.745034 0.087180 0.288615
H9    H     H_    0.786931 0.638888 0.749896 0.170466
H10   H     H_    0.800817 0.748167 0.840553 0.115410
H11   H     H_    0.624902 0.596403 0.644853 0.225966
H12   H     H_    0.705737 0.314463 0.410978 0.143001
H13   H     H_    0.627981 0.700638 0.736305 0.226904
H14   H     H_    0.714522 0.779965 0.710408 0.267045
H15   H     H_    0.608622 0.701631 0.594153 0.269390
H16   H     H_    0.708046 0.674152 0.615497 0.264127
H17   H     H_    0.884417 0.828559 0.255163 0.138288
H18   H     H_    0.928219 0.748729 0.206265 0.147197
H19   H     H_    0.739184 0.728901 0.160530 0.248762
H20   H     H_    0.757656 0.637320 0.078889 0.227241
H21   H     H_    0.876295 0.642558 0.232411 0.309421
H22   H     H_    0.767865 0.621802 0.207683 0.264050
H23   H     H_    0.743045 0.387994 0.592774 0.125211
H24   H     H_    0.849548 0.730538 0.309330 0.255521
H25   H     H_    0.541461 0.084734 0.330519 0.143380
H26   H     H_    0.583691 0.186681 0.454090 0.131710
H27   H     H_    0.613253 0.010815 0.418210 0.228011
H28   H     H_    0.649093 0.111178 0.538816 0.212722
H29   H     H_    0.490342 0.101450 0.472906 0.265651
H30   H     H_    0.510439 0.003622 0.466781 0.266746
H31   H     H_    0.454792 0.000377 0.352045 0.269873
H32   H     H_    0.838111 0.115795 0.519772 0.173452
H33   H     H_    0.826006 0.177364 0.620822 0.144601
H34   H     H_    0.406194 0.309835 0.132747 0.192260
H35   H     H_    0.996897 0.190553 0.625287 0.214362
H36   H     H_    0.996186 0.269343 0.733108 0.232802
H37   H     H_    0.946373 0.147480 0.739948 0.279195
H38   H     H_    0.048978 0.151472 0.749678 0.256625
H39   H     H_    0.946779 0.067599 0.630789 0.258632
H40   H     H_    0.329394 0.425646 0.018146 0.124345
H41   H     H_    0.432669 0.433707 0.118965 0.134833
H42   H     H_    0.343250 0.576756 0.145149 0.241551
H43   H     H_    0.447678 0.585876 0.243309 0.220776
H44   H     H_    0.509672 0.567729 0.142501 0.275826
H45   H     H_    0.237215 0.159775 0.927893 0.156998
H46   H     H_    0.470869 0.661338 0.172531 0.265607
H47   H     H_    0.404791 0.560490 0.045537 0.263844
H48   H     H_    0.046438 0.325835 0.224732 0.138704
H49   H     H_    0.052095 0.417947 0.216759 0.121495
H50   H     H_    0.141504 0.287877 0.142852 0.257487
H51   H     H_    0.167576 0.403245 0.193598 0.189571
H52   H     H_    0.222891 0.439648 0.367026 0.247904
H53   H     H_    0.279285 0.374049 0.315874 0.270859
H54   H     H_    0.194704 0.322720 0.314116 0.281418
H55   H     H_    0.158526 0.235751 0.959085 0.124628
H56   H     H_    0.111721 0.646156 0.851951 0.134556
H57   H     H_    0.183746 0.780983 0.874271 0.169539
H58   H     H_    0.342631 0.769730 0.036361 0.153391
H59   H     H_    0.386006 0.819206 0.212058 0.151274
H60   H     H_    0.325226 0.706770 0.143499 0.142970
H61   H     H_    0.318644 0.873592 0.305594 0.213861
H62   H     H_    0.241551 0.765237 0.231904 0.236058
H63   H     H_    0.365491 0.711355 0.300117 0.273574
H64   H     H_    0.368482 0.806791 0.402124 0.281938
H65   H     H_    0.445243 0.818867 0.371742 0.247099
H66   H     H_    0.198637 0.752126 0.594245 0.171751
H67   H     H_    0.335189 0.832800 0.581429 0.197254
H68   H     H_    0.012459 0.794770 0.384496 0.147341
H69   H     H_    0.122207 0.849816 0.496739 0.125110
H70   H     H_    0.965307 0.736441 0.457834 0.232262
H71   H     H_    0.075376 0.793601 0.573173 0.219490
H72   H     H_    0.062529 0.938550 0.600895 0.270941
H73   H     H_    0.975840 0.880368 0.591536 0.270232
H74   H     H_    0.951408 0.881908 0.484690 0.257016
H75   H     H_    0.260213 0.559433 0.338313 0.160487
H76   H     H_    0.289105 0.603224 0.465430 0.125791
H77   H     H_    0.415229 0.651165 0.419816 0.233138
H78   H     H_    0.904334 0.055279 0.058308 0.181619
H79   H     H_    0.442472 0.681675 0.541950 0.220560
H80   H     H_    0.405260 0.520698 0.475593 0.262653
H81   H     H_    0.491030 0.555427 0.467239 0.269115
H82   H     H_    0.380010 0.492017 0.353941 0.292839
H83   H     H_    0.998460 0.148640 0.944982 0.173674
H84   H     H_    0.951235 0.041814 0.912966 0.134736
H85   H     H_    0.150166 0.144032 0.038957 0.220709
H86   H     H_    0.105107 0.040165 0.012252 0.236839
H87   H     H_    0.026147 0.969082 0.824989 0.265643
H88   H     H_    0.143770 0.018287 0.892385 0.285784
H89   H     H_    0.770081 0.079480 0.040265 0.183594
H90   H     H_    0.069363 0.073439 0.850568 0.260482
H91   H     H_    0.535848 0.221496 0.946943 0.136927
H92   H     H_    0.488020 0.328572 0.911434 0.127957
H93   H     H_    0.727058 0.413339 0.950496 0.133743
H94   H     H_    0.729663 0.820177 0.919772 0.126702
O1    O     O_3   0.000000 0.500000 0.000000 -0.480720
O2    O     O_R   0.325040 0.054120 0.939900 -0.649806
O3    O     O_R   0.444330 0.884140 0.060080 -0.652830
O4    O     O_R   0.054210 0.325030 0.939940 -0.638494
O5    O     O_R   0.615830 0.175840 0.060080 -0.639182
O6    O     O_R   0.324160 0.884140 0.939910 -0.646118
O7    O     O_R   0.615850 0.055700 0.939930 -0.642145
O8    O     O_R   0.614980 0.885710 0.939940 -0.680749
O9    O     O_R   0.445830 0.174930 0.060060 -0.645830
O10   O     O_R   0.614300 0.054120 0.229160 -0.612586
O11   O     O_R   0.325070 0.885060 0.770830 -0.643908
O12   O     O_R   0.054160 0.614240 0.229150 -0.618290
O13   O     O_R   0.885070 0.614240 0.060060 -0.669015
O14   O     O_R   0.174980 0.614900 0.229170 -0.632836
O15   O     O_R   0.885740 0.445830 0.770840 -0.642428
O16   O     O_R   0.175880 0.615810 0.060090 -0.670009
O17   O     O_R   0.884210 0.324110 0.939920 -0.604969
O18   O     O_R   0.055710 0.615810 0.939920 -0.650842
O19   O     O_R   0.884190 0.444260 0.060070 -0.654353
O20   O     O_3   0.658477 0.732353 0.004832 -0.614428
O21   O     O_3   0.745174 0.643524 0.836057 -0.663062
O22   O     O_3   0.839086 0.780352 0.108582 -0.659447
O23   O     O_R   0.885120 0.325030 0.770840 -0.662420
O24   O     O_3   0.679238 0.145462 0.429761 -0.630241
O25   O     O_3   0.854665 0.244655 0.567058 -0.630915
O26   O     O_3   0.327335 0.429031 0.132468 -0.619696
O27   O     O_3   0.987991 0.297907 0.076516 -0.644488
O28   O     O_3   0.254263 0.787362 0.106460 -0.640579
O29   O     O_3   0.075881 0.708205 0.402664 -0.642283
O30   O     O_3   0.286241 0.695494 0.431799 -0.671864
O31   O     O_3   0.020148 0.147114 0.066581 -0.639583
O32   O     O_R   0.175010 0.445830 0.060100 -0.600293
O33   O     O_R   0.885710 0.614900 0.939900 -0.605646
O34   O     O_3   0.500040 0.999960 0.000000 -0.482434
O35   O     O_R   0.614930 0.174930 0.229160 -0.667110
O36   O     O_R   0.445880 0.885710 0.770850 -0.641125
O37   O     O_R   0.614330 0.885060 0.060100 -0.608465
Zn1   Zn    Zn3+2 0.956610 0.542450 0.085830 0.961944
Zn2   Zn    Zn3+2 0.129220 0.543380 0.085850 0.955673
Zn3   Zn    Zn3+2 0.957530 0.543380 0.914160 0.972355
Zn4   Zn    Zn3+2 0.956640 0.370790 0.914170 0.969736
Zn5   Zn    Zn3+2 0.543440 0.957510 0.914170 0.950034
Zn6   Zn    Zn3+2 0.542510 0.956570 0.085840 0.972528
Zn7   Zn    Zn3+2 0.370820 0.956570 0.914150 0.947254
Zn8   Zn    Zn3+2 0.543410 0.129170 0.085830 0.954532

loop_
_geom_bond_atom_site_label_1
_geom_bond_atom_site_label_2
_ccdc_geom_bond_type
C15   C18   S    
C66   C68   S    
C39   O27   S    
C59   H41   S    
C23   C45   A    
C48   H16   S    
C55   H33   S    
C27   C29   D    
C27   O29   S    
C43   H4    S    
C30   O10   A    
C37   O16   A    
C70   H71   S    
C21   H58   S    
C5    C67   A    
O18   Zn3   S    
C36   O7    A    
C49   C50   S    
C58   H37   S    
C57   H36   S    
C66   H62   S    
C53   C54   S    
C19   H55   S    
C14   O25   S    
C12   C23   A    
C50   H20   S    
O36   Zn5   S    
C56   C79   A    
C48   H15   S    
C74   H80   S    
C75   H83   S    
O1    Zn2   S    
C35   O3    A    
C79   H91   S    
C16   O12   A    
C28   O15   A    
C62   H48   S    
C31   O11   A    
C55   O25   S    
C72   H75   S    
C51   H24   S    
C71   H74   S    
C58   H39   S    
O23   Zn4   S    
C54   H31   S    
C68   H64   S    
C75   H84   S    
C18   C19   D    
C47   H13   S    
C63   H51   S    
C4    O13   A    
C26   H67   S    
C2    C79   A    
C64   H54   S    
C1    O4    A    
C53   H27   S    
C71   H72   S    
C64   H53   S    
C45   C56   A    
C59   O26   S    
C8    C9    D    
C38   O17   A    
C42   H3    S    
O3    Zn6   S    
C68   H63   S    
C61   H47   S    
C7    O20   S    
C44   H8    S    
C1    O32   A    
C2    H92   S    
C13   H23   S    
C63   H50   S    
O14   Zn2   S    
C59   C60   S    
C72   H76   S    
C10   C13   S    
C13   C14   D    
O6    Zn7   S    
C35   O6    A    
C43   H5    S    
O2    Zn7   S    
C69   C70   S    
C67   C78   A    
C17   C33   S    
C44   H7    S    
C3    H1    S    
O34   Zn5   S    
C46   O21   S    
C46   H9    S    
C29   O30   S    
C73   C74   S    
O35   Zn8   S    
C24   O28   S    
C1    C19   S    
C50   H19   S    
C48   H14   S    
C42   H2    S    
O1    Zn1   S    
C40   O31   S    
C32   O8    A    
C76   H86   S    
C36   O5    A    
C76   C77   S    
C11   C30   S    
C24   C37   S    
C39   C40   A    
C46   H10   S    
C6    C8    S    
C49   O22   S    
O32   Zn2   S    
C25   C26   D    
C73   H79   S    
C16   O14   A    
C58   H38   S    
C34   C39   A    
C54   H30   S    
C60   C61   S    
O1    Zn4   S    
C42   O20   S    
C60   H43   S    
C75   C76   S    
C11   O24   S    
O19   Zn1   S    
C70   H70   S    
C62   C63   S    
C32   O37   A    
C53   H28   S    
C17   H45   S    
C47   C48   S    
C31   O36   A    
C64   H52   S    
C75   O31   S    
C23   C34   A    
C30   O35   A    
O12   Zn1   S    
C50   C51   S    
C65   O28   S    
C36   C45   S    
O8    Zn5   S    
C20   H57   S    
C8    O21   S    
O17   Zn4   S    
C70   C71   S    
C72   O30   S    
C41   H78   S    
C65   H59   S    
O33   Zn3   S    
C40   C41   A    
C37   O18   A    
C20   C22   S    
C10   H12   S    
O9    Zn8   S    
C38   O19   A    
C55   C57   S    
C43   C44   S    
C69   H68   S    
C47   H11   S    
C22   C24   D    
C76   H85   S    
C77   H88   S    
C42   C43   S    
C44   H6    S    
C33   O9    A    
C52   C53   S    
C12   C41   A    
C51   H21   S    
C15   C17   D    
C46   C47   S    
C52   H25   S    
O34   Zn8   S    
C59   H40   S    
C7    C32   S    
C55   H32   S    
C15   H34   S    
C26   C31   S    
O4    Zn4   S    
O5    Zn8   S    
O7    Zn5   S    
C72   C73   S    
C3    C5    A    
O16   Zn2   S    
C52   H26   S    
C74   H82   S    
C25   H66   S    
O15   Zn3   S    
C9    O22   S    
C4    O33   A    
C6    C7    D    
C21   C35   S    
C6    H94   S    
C54   H29   S    
C25   C27   S    
C56   C67   A    
C38   C78   S    
C74   H81   S    
C22   H56   S    
C61   H44   S    
O1    Zn3   S    
C69   H69   S    
C2    C3    A    
C77   H87   S    
C62   O27   S    
O10   Zn6   S    
C62   H49   S    
C57   C58   S    
C57   H35   S    
O37   Zn6   S    
C73   H77   S    
O34   Zn6   S    
C28   O23   A    
C5    H93   S    
C68   H65   S    
C65   C66   S    
C49   H17   S    
O11   Zn7   S    
C60   H42   S    
C33   O2    A    
C10   C11   D    
O34   Zn7   S    
C49   H18   S    
C63   C64   S    
C65   H60   S    
C69   O29   S    
C66   H61   S    
C20   C21   D    
C16   C29   S    
C77   H90   S    
C12   H89   S    
C18   O26   S    
C71   H73   S    
C61   H46   S    
C52   O24   S    
C14   C28   S    
C4    C9    S    
O13   Zn1   S    
C34   C78   A    
C51   H22   S    
