data_mof_unit_50475.cif
_audit_creation_date              2012-12-11T15:47:02-0500
_audit_creation_method            fapswitch 2.2
_symmetry_space_group_name_H-M    P1
_symmetry_Int_Tables_number       1
_space_group_crystal_system       triclinic
_cell_length_a                    19.977513
_cell_length_b                    7.248739
_cell_length_c                    13.718776
_cell_angle_alpha                 89.999566
_cell_angle_beta                  102.363837
_cell_angle_gamma                 90.000129
_cell_volume                      1940.5654152

loop_
_atom_site_label
_atom_site_type_symbol
_atom_type_description
_atom_site_fract_x
_atom_site_fract_y
_atom_site_fract_z
_atom_type_partial_charge
O1    O     O_R   0.449560 0.506810 0.599700 -0.531715
O2    O     O_R   0.550440 0.006810 0.400300 -0.531717
O3    O     O_R   0.587960 0.180060 0.595760 -0.545783
O4    O     O_R   0.412040 0.680060 0.404240 -0.545787
C1    C     C_R   0.614982 0.344436 0.616897 0.714298
C2    C     C_R   0.385018 0.844437 0.383102 0.714329
O5    O     O_R   0.452380 0.177430 0.611700 -0.539165
O6    O     O_R   0.547620 0.677430 0.388300 -0.539165
O7    O     O_R   0.413900 0.001890 0.416350 -0.542567
O8    O     O_R   0.586100 0.501890 0.583650 -0.542567
C3    C     C_R   0.436069 0.346563 0.637345 0.703568
C4    C     C_R   0.563935 0.846565 0.362659 0.703549
O9    O     O_3   0.487530 0.337490 0.435890 -0.378173
O10   O     O_3   0.512470 0.837490 0.564110 -0.378171
V1    V     V_3+5 0.502310 0.064660 0.511890 1.476594
V2    V     V_3+5 0.497690 0.564660 0.488110 1.476581
C5    C     C_R   0.613396 0.999689 0.126758 -0.016166
C6    C     C_R   0.386596 0.499748 0.873224 -0.016173
H1    H     H_    0.519040 0.975170 0.178442 0.153977
H2    H     H_    0.480955 0.475246 0.821547 0.154006
H3    H     H_    0.708271 0.116890 0.023251 0.177899
H4    H     H_    0.291710 0.617043 0.976683 0.177888
C7    C     C_R   0.603561 0.864578 0.285123 -0.056692
C8    C     C_R   0.396444 0.364573 0.714884 -0.056725
C9    C     C_R   0.925787 0.753139 0.306795 -0.111419
C10   C     C_R   0.074211 0.253066 0.693226 -0.111458
C11   C     C_R   0.890537 0.749363 0.386130 -0.092633
C12   C     C_R   0.109471 0.249164 0.613909 -0.092593
C13   C     C_R   0.825507 0.835248 0.373885 -0.086043
C14   C     C_R   0.174501 0.335034 0.626131 -0.085953
C15   C     C_R   0.790099 0.884577 0.276152 0.037409
C16   C     C_R   0.209901 0.384503 0.723844 0.037386
C17   C     C_R   0.829320 0.917527 0.203230 0.045585
C18   C     C_R   0.170675 0.417525 0.796752 0.045626
C19   C     C_R   0.717020 0.901158 0.248085 0.099573
C20   C     C_R   0.282980 0.401122 0.751910 0.099519
C21   C     C_R   0.685937 0.980766 0.154182 0.057651
C22   C     C_R   0.314056 0.480807 0.845795 0.057661
C23   C     C_R   0.728294 0.042800 0.091566 -0.133085
C24   C     C_R   0.271693 0.542892 0.908389 -0.133067
C25   C     C_R   0.798040 0.006708 0.114164 -0.148840
C26   C     C_R   0.201949 0.506783 0.885794 -0.148791
C27   C     C_R   0.673890 0.831912 0.308822 -0.166644
C28   C     C_R   0.326120 0.331839 0.691197 -0.166668
C29   C     C_R   0.573863 0.950462 0.195475 -0.216807
C30   C     C_R   0.426134 0.450511 0.804517 -0.216803
C31   C     C_R   0.898007 0.854902 0.219262 -0.142694
C32   C     C_R   0.101989 0.354892 0.780733 -0.142696
H5    H     H_    0.694229 0.757221 0.376864 0.112976
H6    H     H_    0.305796 0.257063 0.623184 0.113034
H7    H     H_    0.827074 0.049537 0.060365 0.172979
H8    H     H_    0.172912 0.549660 0.939580 0.172965
C33   C     C_R   0.210878 0.012256 0.240299 -0.108627
C34   C     C_R   0.789124 0.512256 0.759696 -0.108692
H9    H     H_    0.181173 0.137880 0.234901 0.212824
H10   H     H_    0.818827 0.637881 0.765094 0.212848
C35   C     C_R   0.276172 0.011247 0.303147 -0.093474
C36   C     C_R   0.723829 0.511248 0.696849 -0.093566
H11   H     H_    0.294916 0.136208 0.343096 0.156695
H12   H     H_    0.705084 0.636211 0.656902 0.156684
C37   C     C_R   0.316131 0.850246 0.315330 -0.138459
C38   C     C_R   0.683870 0.350245 0.684665 -0.138491
C39   C     C_R   0.288968 0.690577 0.263945 -0.159341
C40   C     C_R   0.711037 0.190570 0.736043 -0.159262
H13   H     H_    0.318463 0.563938 0.272494 0.175458
H14   H     H_    0.681545 0.063927 0.727489 0.175452
C41   C     C_R   0.224077 0.690089 0.200583 0.370746
C42   C     C_R   0.775929 0.190081 0.799402 0.370786
C43   C     C_R   0.183791 0.853677 0.186398 -0.149341
C44   C     C_R   0.816211 0.353675 0.813594 -0.149334
O11   O     O_R   0.913920 0.203370 0.916260 -0.508142
O12   O     O_R   0.086080 0.703370 0.083740 -0.508132
O13   O     O_R   0.047620 0.535540 0.888290 -0.538309
O14   O     O_R   0.952380 0.035540 0.111710 -0.538310
C45   C     C_R   0.063858 0.367629 0.861924 0.741673
C46   C     C_R   0.936142 0.867628 0.138075 0.741753
O15   O     O_R   0.912040 0.532780 0.904220 -0.536567
O16   O     O_R   0.087960 0.032780 0.095780 -0.536570
O17   O     O_R   0.949550 0.708160 0.099720 -0.538820
O18   O     O_R   0.050450 0.208160 0.900280 -0.538838
C47   C     C_R   0.885226 0.363805 0.883025 0.742273
C48   C     C_R   0.114775 0.863805 0.116972 0.742335
O19   O     O_3   0.012480 0.375300 0.064060 -0.366126
O20   O     O_3   0.987520 0.875300 0.935940 -0.366117
V3    V     V_3+5 0.997690 0.648180 0.988110 1.586961
V4    V     V_3+5 0.002310 0.148180 0.011890 1.586958
Cl1   Cl    Cl    0.197995 0.477726 0.142357 -0.707327
Cl2   Cl    Cl    0.802017 0.977704 0.857607 -0.707317
C49   C     C_2   0.576071 0.065247 0.027260 0.777657
O21   O     O_2   0.594775 0.019495 0.951521 -0.549037
O22   O     O_R   0.516354 0.169564 0.019789 -0.647431
H15   H     H_    0.493490 0.197429 0.948059 0.301916
C50   C     C_2   0.423916 0.565320 0.972722 0.777656
O23   O     O_2   0.405195 0.519618 0.048457 -0.549039
O24   O     O_R   0.483648 0.669580 0.980200 -0.647424
H16   H     H_    0.506509 0.697442 0.051931 0.301912
C51   C     C_2   0.990688 0.647278 0.314554 0.820546
O25   O     O_2   0.993487 0.486121 0.341289 -0.515760
O26   O     O_R   0.047913 0.729869 0.289689 -0.684112
H17   H     H_    0.088684 0.643375 0.298875 0.314169
C52   C     C_2   0.009301 0.147259 0.685477 0.820657
O27   O     O_2   0.006503 0.986055 0.658832 -0.515804
O28   O     O_R   0.952065 0.229958 0.710252 -0.684100
H18   H     H_    0.911288 0.143492 0.701079 0.314239
C53   C     C_2   0.802099 0.913444 0.462156 0.774042
O29   O     O_2   0.814210 0.835325 0.542953 -0.550057
O30   O     O_R   0.766406 0.080930 0.452125 -0.647329
H19   H     H_    0.753179 0.121121 0.516267 0.300443
C54   C     C_2   0.197920 0.413008 0.537826 0.774002
O31   O     O_2   0.185866 0.334632 0.457118 -0.550155
O32   O     O_R   0.233575 0.580547 0.547733 -0.647289
H20   H     H_    0.246825 0.620561 0.483582 0.300438
C55   C     C_2   0.921659 0.655910 0.481351 0.933477
O33   O     O_2   0.981321 0.685901 0.522144 -0.517285
O34   O     O_R   0.882843 0.529503 0.522730 -0.627776
H21   H     H_    0.908581 0.480502 0.589240 0.330214
C56   C     C_2   0.078370 0.155548 0.518736 0.933438
O35   O     O_2   0.018735 0.185624 0.477850 -0.517291
O36   O     O_R   0.117171 0.028871 0.477523 -0.627720
H22   H     H_    0.091441 0.979701 0.411053 0.330232

loop_
_geom_bond_atom_site_label_1
_geom_bond_atom_site_label_2
_ccdc_geom_bond_type
C36   C38   A    
C22   C24   A    
C39   H13   S    
C52   O27   D    
C7    C29   A    
C11   C13   A    
O32   H20   S    
C18   C26   A    
C46   O17   A    
C33   C43   A    
C2    O7    A    
O12   V3    S    
C23   C25   A    
O5    C3    A    
C53   O30   S    
C4    C7    S    
C50   O23   D    
O14   C46   A    
C16   C20   A    
C2    C37   S    
C19   C21   A    
C5    C29   A    
C31   C46   S    
C12   C56   S    
C56   O36   S    
C10   C52   S    
C35   H11   S    
C42   Cl2   S    
C36   H12   S    
O34   H21   S    
C3    C8    S    
C7    C27   A    
C37   C39   A    
C44   C47   S    
C38   C40   A    
C43   C48   S    
C54   O32   S    
O24   H16   S    
H3    C23   S    
O18   V4    S    
O30   H19   S    
C15   C17   A    
C49   O22   S    
C19   C27   A    
C45   O18   A    
C9    C31   A    
C10   C32   A    
O16   V4    S    
C24   C26   A    
O2    C4    A    
O6    V2    S    
C13   C15   A    
O13   C45   A    
C32   C45   S    
C13   C53   S    
C6    C30   A    
C51   O26   S    
C51   O25   D    
C39   C41   A    
C33   H9    S    
C34   H10   S    
C14   C54   S    
C5    C49   S    
O20   V3    S    
O4    C2    A    
O22   H15   S    
C33   C35   A    
C27   H5    S    
O5    V1    S    
C41   C43   A    
C40   H14   S    
O4    V2    S    
O11   V4    S    
O16   C48   A    
O26   H17   S    
C34   C44   A    
O15   C47   A    
O6    C4    A    
H4    C24   S    
O1    V2    S    
C5    C21   A    
O14   V4    S    
O2    V1    S    
O13   V3    S    
C11   C55   S    
C9    C51   S    
C8    C28   A    
C15   C19   A    
C20   C28   A    
C18   C32   A    
C40   C42   A    
O17   V3    S    
O3    V1    S    
C55   O33   D    
C34   C36   A    
C28   H6    S    
C6    C50   S    
C41   Cl1   S    
O3    C1    A    
O36   H22   S    
H1    C29   S    
C35   C37   A    
C9    C11   A    
C53   O29   D    
C10   C12   A    
C8    C30   A    
C12   C14   A    
C6    C22   A    
C17   C25   A    
C1    O8    A    
C21   C23   A    
O8    V2    S    
C56   O35   D    
C14   C16   A    
C50   O24   S    
C17   C31   A    
C20   C22   A    
C1    C38   S    
O7    V1    S    
O12   C48   A    
O15   V3    S    
O19   V4    S    
C52   O28   S    
O9    V2    S    
C26   H8    S    
O28   H18   S    
C42   C44   A    
O10   V1    S    
O1    C3    A    
O11   C47   A    
C49   O21   D    
C54   O31   D    
C25   H7    S    
H2    C30   S    
C16   C18   A    
C55   O34   S    
