data_mof_unit_58399.cif
_audit_creation_date              2013-03-05T16:44:17-0500
_audit_creation_method            fapswitch 2.2
_symmetry_space_group_name_H-M    P1
_symmetry_Int_Tables_number       1
_space_group_crystal_system       triclinic
_cell_length_a                    23.418107
_cell_length_b                    10.806439
_cell_length_c                    9.833051
_cell_angle_alpha                 90.493799
_cell_angle_beta                  89.726864
_cell_angle_gamma                 90.042339
_cell_volume                      2488.29297908

loop_
_atom_site_label
_atom_site_type_symbol
_atom_site_description
_atom_site_fract_x
_atom_site_fract_y
_atom_site_fract_z
_atom_type_partial_charge
O1    O     O_R   0.500010 0.316790 0.614690 -0.622736
O2    O     O_R   0.500000 0.316760 0.385350 -0.569446
C1    C     C_R   0.499289 0.260130 0.499054 0.962199
O3    O     O_R   0.416160 0.499980 0.614700 -0.601815
O4    O     O_R   0.416150 0.499940 0.385360 -0.624608
C2    C     C_R   0.389480 0.498787 0.500261 0.952720
Zn1   Zn    Zn3+2 0.500000 0.500020 0.653130 0.988441
Zn2   Zn    Zn3+2 0.500000 0.499980 0.346870 0.967953
O5    O     O_R   0.500000 0.683240 0.614650 -0.578379
O6    O     O_R   0.499990 0.683210 0.385310 -0.639880
O7    O     O_R   0.583850 0.500060 0.614640 -0.632408
O8    O     O_R   0.583840 0.500020 0.385300 -0.635176
C3    C     C_R   0.500529 0.739463 0.500307 0.928523
C4    C     C_R   0.610746 0.500769 0.499591 0.877620
C5    C     C_R   0.880666 0.620530 0.531668 0.500422
N1    N     N_R   0.852504 0.515467 0.493053 -0.347296
C6    C     C_R   0.880558 0.410678 0.452043 0.598270
C7    C     C_R   0.940462 0.408786 0.446836 -0.154887
C8    C     C_R   0.970263 0.516521 0.488075 -0.085689
C9    C     C_R   0.940205 0.623206 0.530698 0.011930
C10   C     C_R   0.971381 0.303548 0.401629 0.532873
C11   C     C_R   0.031041 0.305363 0.404025 -0.247895
C12   C     C_R   0.060627 0.411500 0.446213 -0.092799
C13   C     C_R   0.030309 0.517623 0.487835 -0.019018
C14   C     C_R   0.059994 0.624557 0.530679 -0.004225
C15   C     C_R   0.029545 0.730317 0.571595 -0.153237
C16   C     C_R   0.970163 0.729712 0.571393 -0.151322
C17   C     C_R   0.120215 0.413942 0.448722 0.548572
N2    N     N_R   0.148236 0.517651 0.493107 -0.350824
C18   C     C_R   0.119653 0.622149 0.533024 0.515082
O9    O     O_2   0.850928 0.721969 0.570353 -0.566953
O10   O     O_2   0.850181 0.309134 0.417381 -0.487182
H1    H     H_    0.053968 0.222614 0.373245 0.209450
O11   O     O_2   0.150114 0.313765 0.406722 -0.535574
O12   O     O_2   0.148939 0.722515 0.576369 -0.537942
H2    H     H_    0.051449 0.813594 0.604468 0.198509
H3    H     H_    0.947849 0.812654 0.604010 0.198523
C19   C     C_R   0.240975 0.589181 0.411372 -0.067862
H4    H     H_    0.219956 0.651247 0.341719 0.161038
C20   C     C_R   0.300046 0.581880 0.412341 -0.252449
H5    H     H_    0.324425 0.641123 0.345343 0.164361
C21   C     C_R   0.327521 0.499958 0.500234 -0.160295
C22   C     C_R   0.295384 0.423778 0.588234 0.269603
C23   C     C_R   0.236017 0.434637 0.588581 -0.145288
H6    H     H_    0.210338 0.376541 0.654104 0.187813
C24   C     C_R   0.208991 0.515549 0.499327 0.235896
C25   C     C_R   0.761776 0.518835 0.371371 0.585393
C26   C     C_R   0.702385 0.511504 0.373635 -0.317189
H7    H     H_    0.679582 0.510946 0.278025 0.175121
C27   C     C_R   0.672980 0.505221 0.498123 -0.104995
C28   C     C_R   0.703419 0.504814 0.620648 -0.222882
H8    H     H_    0.681588 0.500206 0.717837 0.173333
C29   C     C_R   0.762640 0.509278 0.618542 -0.182570
H9    H     H_    0.786084 0.507100 0.713166 0.165510
C30   C     C_R   0.791734 0.515119 0.494363 0.209719
C31   C     C_R   0.495943 0.062714 0.615911 -0.098925
C32   C     C_R   0.498787 0.128445 0.495488 -0.177031
C33   C     C_R   0.503344 0.061502 0.370881 0.529613
C34   C     C_R   0.502653 0.932468 0.373932 -0.302092
H10   H     H_    0.503028 0.882021 0.278229 0.177309
C35   C     C_R   0.501369 0.870240 0.498814 -0.172437
C36   C     C_R   0.499518 0.939030 0.617730 -0.058391
C37   C     C_3   0.497702 0.933069 0.770718 0.918243
C38   C     C_3   0.490865 0.076135 0.767107 0.253883
H11   H     H_    0.526963 0.129884 0.812289 0.026652
C39   C     C_R   0.459584 0.563228 0.072259 0.171145
N3    N     N_R   0.499610 0.499140 0.142800 -0.100785
C40   C     C_R   0.543167 0.444709 0.071116 -0.110046
H12   H     H_    0.577250 0.399033 0.124899 0.147014
C41   C     C_R   0.543212 0.444814 0.926880 -0.173429
H13   H     H_    0.577174 0.398605 0.871549 0.147992
N4    N     N_R   0.499610 0.499180 0.857150 -0.118330
C42   C     C_R   0.459666 0.563532 0.929703 0.261038
C43   C     C_3   0.396567 0.546130 0.923900 -0.482096
C44   C     C_3   0.396527 0.544718 0.078231 -0.506621
H14   H     H_    0.374561 0.628019 0.881125 0.231114
H15   H     H_    0.383778 0.456414 0.877727 0.238569
H16   H     H_    0.374254 0.625712 0.124165 0.199798
H17   H     H_    0.384334 0.453469 0.121069 0.238030
O13   O     O_3   0.943774 0.195687 0.363201 -0.560744
C45   C     C_3   0.944687 0.186563 0.220029 -0.203368
H18   H     H_    0.924565 0.268833 0.172445 0.169606
H19   H     H_    0.919527 0.104090 0.189050 0.197888
H20   H     H_    0.988921 0.173639 0.180707 0.140774
O14   O     O_3   0.503873 0.120745 0.246499 -0.598468
C46   C     C_3   0.558390 0.107402 0.186336 -0.342276
H21   H     H_    0.592712 0.141136 0.255432 0.163124
H22   H     H_    0.560100 0.164393 0.093179 0.179683
H23   H     H_    0.566554 0.010011 0.154566 0.178128
O15   O     O_3   0.447995 0.869921 0.815418 -0.580761
C47   C     C_3   0.444700 0.870427 0.959123 -0.164778
H24   H     H_    0.448624 0.964596 0.003567 0.175116
H25   H     H_    0.478034 0.810255 0.003436 0.162928
H26   H     H_    0.402455 0.833569 0.990105 0.166014
O16   O     O_3   0.548334 0.890317 0.837059 -0.658750
C48   C     C_3   0.599657 0.911763 0.764584 -0.399393
H27   H     H_    0.604340 0.009960 0.734058 0.143349
H28   H     H_    0.602781 0.849199 0.674619 0.191284
H29   H     H_    0.636034 0.889845 0.832023 0.217052
O17   O     O_3   0.434619 0.112902 0.802283 -0.517477
C49   C     C_3   0.435755 0.205398 0.903626 -0.152272
H30   H     H_    0.450805 0.292807 0.859106 0.183251
H31   H     H_    0.462778 0.179522 0.991456 0.144421
H32   H     H_    0.391713 0.220193 0.942253 0.218117
N5    N     N_R   0.321702 0.330468 0.670330 0.200533
O18   O     O_R   0.363771 0.264928 0.621598 -0.354277
O19   O     O_R   0.297750 0.296530 0.783754 -0.394216
O20   O     O_3   0.791047 0.520986 0.249063 -0.603382
C50   C     C_3   0.789846 0.642684 0.198755 -0.321046
H33   H     H_    0.809318 0.709418 0.272036 0.188707
H34   H     H_    0.745585 0.671513 0.173285 0.161009
H35   H     H_    0.815475 0.645667 0.103679 0.203954

loop_
_geom_bond_atom_site_label_1
_geom_bond_atom_site_label_2
_geom_bond_distance
_ccdc_geom_bond_type
C49   H30   1.101465 S    
C7    C10   1.415851 A    
C42   C43   1.490739 S    
C8    C9    1.410783 A    
C45   H18   1.114122 S    
O15   C47   1.414763 S    
C4    C27   1.458175 S    
C29   H9    1.083034 S    
C31   C32   1.387376 A    
Zn1   O7    1.997978 S    
N5    O19   1.301466 A    
C15   C16   1.390640 A    
N2    C18   1.366855 A    
C43   H14   1.111182 S    
C18   O12   1.349852 S    
C17   N2    1.367586 A    
C50   H34   1.112846 S    
O4    C2    1.288506 A    
O13   C45   1.410476 S    
O7    C4    1.292256 A    
C46   H22   1.108753 S    
C5    N1    1.364552 A    
C48   H29   1.109033 S    
C37   O16   1.434671 S    
O20   C50   1.409419 S    
C37   O15   1.418785 S    
C7    C8    1.414311 A    
C22   N5    1.438041 S    
O5    C3    1.282601 A    
O16   C48   1.414349 S    
N1    C6    1.366471 A    
C43   H15   1.108632 S    
C48   H28   1.110932 S    
C12   C13   1.406098 A    
C31   C38   1.496700 S    
C41   H13   1.081524 S    
C26   C27   1.403751 A    
C39   N3    1.361907 A    
C17   O11   1.350331 S    
C34   H10   1.083477 S    
C49   H31   1.110931 S    
C10   C11   1.397565 A    
O3    Zn1   2.001175 S    
C45   H19   1.109286 S    
C23   C24   1.398094 A    
C27   C28   1.402842 A    
C29   C30   1.397324 A    
C5    C9    1.394563 A    
C34   C35   1.405299 A    
C43   C44   1.517751 S    
C28   H8    1.083166 S    
C13   C14   1.410434 A    
O3    C2    1.289673 A    
C50   H35   1.109247 S    
C47   H24   1.107961 S    
C46   H21   1.114028 S    
C40   H12   1.081420 S    
C14   C15   1.402529 A    
O14   C46   1.411484 S    
C39   C42   1.401782 A    
O6    C3    1.279303 A    
N3    C40   1.367542 A    
C28   C29   1.387704 A    
C22   C23   1.395283 A    
C36   C37   1.506670 S    
C47   H25   1.109479 S    
C25   C26   1.393118 A    
Zn2   O8    2.001173 S    
C48   H27   1.110492 S    
C6    C7    1.403672 A    
C12   C17   1.396000 A    
C1    C32   1.423222 S    
C15   H2    1.083226 S    
C20   H5    1.083026 S    
O8    C4    1.290991 A    
C49   H32   1.108610 S    
C31   C36   1.339545 A    
C21   C22   1.413516 A    
C33   O14   1.385361 S    
Zn1   N4    2.006215 S    
C45   H20   1.112443 S    
C23   H6    1.083322 S    
C25   C30   1.401921 A    
C14   C18   1.397650 A    
Zn1   O5    2.018987 S    
C11   H1    1.083501 S    
C26   H7    1.083388 S    
O1    Zn1   2.012616 S    
Zn2   O6    2.012617 S    
O2    Zn2   2.018985 S    
N4    C42   1.361482 A    
C46   H23   1.111694 S    
O4    Zn2   1.997978 S    
C5    O9    1.350080 S    
C9    C16   1.403757 A    
N5    O18   1.300955 A    
N2    C24   1.424578 S    
C38   H11   1.117023 S    
C8    C13   1.406196 A    
C33   C34   1.395067 A    
N1    C30   1.423106 S    
C50   H33   1.113964 S    
C47   H26   1.108510 S    
C19   C20   1.385732 A    
C32   C33   1.421117 A    
C19   H4    1.082972 S    
C16   H3    1.083254 S    
C39   C44   1.490956 S    
C10   O13   1.383103 S    
C20   C21   1.401426 A    
O17   C49   1.405668 S    
O2    C1    1.279233 A    
C35   C36   1.380701 A    
C44   H16   1.110742 S    
C19   C24   1.395331 A    
C37   C38   1.555147 S    
C38   O17   1.416523 S    
C3    C35   1.413563 S    
Zn2   N3    2.006637 S    
C40   C41   1.418283 A    
C25   O20   1.381813 S    
C2    C21   1.451017 S    
C6    O10   1.349474 S    
C11   C12   1.400366 A    
C41   N4    1.368360 A    
O1    C1    1.286952 A    
C44   H17   1.112168 S    
