data_mof_unit_63084.cif
_audit_creation_date              2012-12-10T19:41:36-0500
_audit_creation_method            fapswitch 2.2
_symmetry_space_group_name_H-M    P1
_symmetry_Int_Tables_number       1
_space_group_crystal_system       triclinic
_cell_length_a                    18.265197
_cell_length_b                    30.500159
_cell_length_c                    30.720646
_cell_angle_alpha                 90.0
_cell_angle_beta                  89.226348
_cell_angle_gamma                 89.999984
_cell_volume                      17112.6479285

loop_
_atom_site_label
_atom_site_type_symbol
_atom_type_description
_atom_site_fract_x
_atom_site_fract_y
_atom_site_fract_z
_atom_type_partial_charge
C1    C     C_R   0.499307 0.689783 0.309890 0.875467
C2    C     C_R   0.443611 0.623518 0.595763 0.147554
C3    C     C_R   0.141030 0.750194 0.249972 0.927404
C4    C     C_R   0.358970 0.250194 0.750028 0.927404
C5    C     C_R   0.358970 0.249786 0.250053 0.930729
C6    C     C_R   0.641030 0.249786 0.749946 0.930729
C7    C     C_R   0.641030 0.250194 0.249972 0.927405
C8    C     C_3   0.597089 0.902539 0.186593 -0.483218
C9    C     C_3   0.402867 0.902522 0.813423 -0.483250
C10   C     C_3   0.097152 0.402514 0.186569 -0.483264
C11   C     C_3   0.902842 0.402511 0.813433 -0.483273
C12   C     C_3   0.097142 0.902518 0.686573 -0.483257
C13   C     C_R   0.056392 0.123515 0.404235 0.147557
C14   C     C_3   0.902832 0.902507 0.313437 -0.483279
C15   C     C_3   0.597138 0.402519 0.686575 -0.483253
C16   C     C_3   0.402853 0.402516 0.313429 -0.483262
C17   C     C_R   0.500371 0.939937 0.939905 0.887336
C18   C     C_R   0.499629 0.939937 0.060095 0.887336
C19   C     C_R   0.000371 0.439937 0.939906 0.887340
C20   C     C_R   0.999629 0.439937 0.060095 0.887338
C21   C     C_R   0.000371 0.939936 0.439906 0.887339
C22   C     C_R   0.999629 0.939937 0.560095 0.887339
C23   C     C_R   0.500371 0.439937 0.439905 0.887338
C24   C     C_R   0.943610 0.123517 0.595763 0.147555
C25   C     C_R   0.499629 0.439937 0.560095 0.887338
C26   C     C_R   0.500419 0.560172 0.439803 0.879868
C27   C     C_R   0.499581 0.560172 0.560196 0.879869
C28   C     C_R   0.000419 0.060172 0.439803 0.879869
C29   C     C_R   0.999581 0.060172 0.560196 0.879868
C30   C     C_R   0.000419 0.560172 0.939803 0.879869
C31   C     C_R   0.999581 0.560172 0.060196 0.879869
C32   C     C_R   0.500419 0.060172 0.939803 0.879867
C33   C     C_R   0.499581 0.060172 0.060196 0.879866
C34   C     C_R   0.499740 0.810039 0.190103 0.879951
C35   C     C_R   0.056396 0.623513 0.904232 0.147561
C36   C     C_R   0.500260 0.810039 0.809897 0.879950
C37   C     C_R   0.999740 0.310039 0.190103 0.879948
C38   C     C_R   0.000259 0.310039 0.809897 0.879949
C39   C     C_R   0.999740 0.810039 0.690103 0.879949
C40   C     C_R   0.000259 0.810039 0.309897 0.879948
C41   C     C_R   0.499740 0.310039 0.690103 0.879949
C42   C     C_R   0.500260 0.310039 0.309897 0.879950
C43   C     C_1   0.282416 0.750584 0.250054 -0.191838
C44   C     C_1   0.282416 0.749384 0.750066 -0.196137
C45   C     C_1   0.717584 0.749384 0.249934 -0.196136
C46   C     C_R   0.943614 0.623520 0.095760 0.147552
C47   C     C_1   0.717584 0.750584 0.749946 -0.191838
C48   C     C_1   0.782416 0.250584 0.250054 -0.191838
C49   C     C_1   0.782416 0.249384 0.750066 -0.196137
C50   C     C_1   0.217584 0.249384 0.249934 -0.196137
C51   C     C_1   0.217584 0.250584 0.749946 -0.191839
C52   C     C_1   0.782416 0.750584 0.750054 -0.191838
C53   C     C_1   0.782416 0.749384 0.250066 -0.196136
C54   C     C_1   0.217584 0.749384 0.749934 -0.196137
C55   C     C_1   0.217584 0.750584 0.249946 -0.191838
C56   C     C_1   0.282416 0.250584 0.750054 -0.191838
C57   C     C_R   0.556395 0.123514 0.904233 0.147559
C58   C     C_1   0.282416 0.249384 0.250066 -0.196137
C59   C     C_1   0.717584 0.249384 0.749934 -0.196137
C60   C     C_1   0.717584 0.250584 0.249946 -0.191839
C61   C     C_R   0.555075 0.655886 0.373166 0.110249
C62   C     C_R   0.444928 0.655889 0.626831 0.110254
C63   C     C_R   0.055075 0.155887 0.373167 0.110251
C64   C     C_R   0.944928 0.155889 0.626831 0.110254
C65   C     C_R   0.055078 0.655884 0.873164 0.110246
C66   C     C_R   0.944932 0.655891 0.126829 0.110257
C67   C     C_R   0.555077 0.155885 0.873165 0.110247
C68   C     C_R   0.443613 0.123519 0.095761 0.147552
C69   C     C_R   0.444931 0.155890 0.126829 0.110255
C70   C     C_R   0.500749 0.655975 0.341877 -0.083131
C71   C     C_R   0.499251 0.655975 0.658123 -0.083137
C72   C     C_R   0.000749 0.155975 0.341877 -0.083132
C73   C     C_R   0.999251 0.155975 0.658123 -0.083135
C74   C     C_R   0.000748 0.655975 0.841877 -0.083126
C75   C     C_R   0.999251 0.655975 0.158123 -0.083140
C76   C     C_R   0.500749 0.155975 0.841877 -0.083128
C77   C     C_R   0.499250 0.155975 0.158123 -0.083139
C78   C     C_R   0.452836 0.620216 0.338638 -0.212035
C79   C     C_3   0.578294 0.654820 0.439109 -0.503715
C80   C     C_R   0.547159 0.620214 0.661364 -0.212034
C81   C     C_R   0.952836 0.120216 0.338638 -0.212035
C82   C     C_R   0.047160 0.120214 0.661364 -0.212034
C83   C     C_R   0.952831 0.620218 0.838640 -0.212038
C84   C     C_R   0.047155 0.620212 0.161365 -0.212032
C85   C     C_R   0.452833 0.120217 0.838639 -0.212037
C86   C     C_R   0.547156 0.120212 0.161365 -0.212032
C87   C     C_R   0.452787 0.588085 0.370813 -0.221072
C88   C     C_R   0.547208 0.588083 0.629189 -0.221074
C89   C     C_R   0.952788 0.088085 0.370813 -0.221070
C90   C     C_3   0.421719 0.654824 0.560887 -0.503725
C91   C     C_R   0.047209 0.088083 0.629189 -0.221074
C92   C     C_R   0.952783 0.588087 0.870814 -0.221071
C93   C     C_R   0.047204 0.588082 0.129190 -0.221074
C94   C     C_R   0.452784 0.088086 0.870814 -0.221073
C95   C     C_R   0.547205 0.088082 0.129190 -0.221082
C96   C     C_R   0.502287 0.591324 0.405134 -0.094717
C97   C     C_R   0.497713 0.591324 0.594866 -0.094711
C98   C     C_R   0.002287 0.091324 0.405134 -0.094717
C99   C     C_R   0.997713 0.091324 0.594866 -0.094712
C100  C     C_R   0.002287 0.591324 0.905134 -0.094721
C101  C     C_3   0.078292 0.154820 0.439109 -0.503718
C102  C     C_R   0.997713 0.591324 0.094865 -0.094707
C103  C     C_R   0.502287 0.091324 0.905134 -0.094720
C104  C     C_R   0.497713 0.091324 0.094865 -0.094707
C105  C     C_R   0.500693 0.689783 0.690110 0.875467
C106  C     C_3   0.921717 0.154823 0.560888 -0.503725
C107  C     C_3   0.078304 0.654817 0.939105 -0.503710
C108  C     C_3   0.921729 0.654826 0.060884 -0.503735
C109  C     C_3   0.578300 0.154818 0.939107 -0.503710
C110  C     C_3   0.421726 0.154826 0.060885 -0.503730
C111  C     C_3   0.576571 0.690605 0.404773 -0.470291
C112  C     C_3   0.423442 0.690609 0.595223 -0.470280
C113  C     C_3   0.076569 0.190605 0.404774 -0.470289
C114  C     C_3   0.923440 0.190608 0.595223 -0.470284
C115  C     C_3   0.076581 0.690602 0.904770 -0.470297
C116  C     C_R   0.999307 0.189783 0.309890 0.875466
C117  C     C_3   0.923453 0.690611 0.095220 -0.470276
C118  C     C_3   0.576577 0.190603 0.904771 -0.470293
C119  C     C_3   0.423449 0.190611 0.095220 -0.470276
C120  C     C_R   0.540723 0.879879 0.160198 0.132891
C121  C     C_R   0.459258 0.879872 0.839808 0.132877
C122  C     C_R   0.040750 0.379869 0.160189 0.132871
C123  C     C_R   0.959247 0.379868 0.839812 0.132870
C124  C     C_R   0.040746 0.879870 0.660190 0.132874
C125  C     C_R   0.959243 0.879866 0.339814 0.132867
C126  C     C_R   0.540744 0.379871 0.660191 0.132876
C127  C     C_R   0.000693 0.189783 0.690110 0.875467
C128  C     C_R   0.459252 0.379870 0.339811 0.132873
C129  C     C_R   0.497537 0.842810 0.157403 -0.096840
C130  C     C_R   0.502462 0.842810 0.842597 -0.096820
C131  C     C_R   0.997538 0.342810 0.157403 -0.096811
C132  C     C_R   0.002462 0.342810 0.842597 -0.096807
C133  C     C_R   0.997538 0.842810 0.657403 -0.096815
C134  C     C_R   0.002462 0.842810 0.342597 -0.096803
C135  C     C_R   0.497538 0.342810 0.657403 -0.096817
C136  C     C_R   0.502462 0.342810 0.342597 -0.096813
C137  C     C_R   0.452299 0.837845 0.120964 -0.211612
C138  C     C_R   0.999307 0.689783 0.809890 0.875468
C139  C     C_R   0.547720 0.837853 0.879027 -0.211619
C140  C     C_R   0.952272 0.337856 0.120976 -0.211622
C141  C     C_R   0.047731 0.337857 0.879023 -0.211624
C142  C     C_R   0.952276 0.837854 0.620974 -0.211620
C143  C     C_R   0.047735 0.837858 0.379021 -0.211626
C144  C     C_R   0.452278 0.337853 0.620973 -0.211620
C145  C     C_R   0.547726 0.337855 0.379025 -0.211622
C146  C     C_R   0.451864 0.870347 0.088734 -0.218367
C147  C     C_R   0.548155 0.870354 0.911258 -0.218357
C148  C     C_R   0.951836 0.370357 0.088746 -0.218351
C149  C     C_R   0.000693 0.689783 0.190110 0.875467
C150  C     C_R   0.048166 0.370358 0.911253 -0.218351
C151  C     C_R   0.951841 0.870356 0.588744 -0.218352
C152  C     C_R   0.048171 0.870360 0.411251 -0.218349
C153  C     C_R   0.451843 0.370355 0.588743 -0.218354
C154  C     C_R   0.548161 0.370356 0.411255 -0.218353
C155  C     C_R   0.498407 0.906886 0.092469 -0.097643
C156  C     C_R   0.501593 0.906886 0.907531 -0.097664
C157  C     C_R   0.998407 0.406886 0.092469 -0.097673
C158  C     C_R   0.001593 0.406886 0.907530 -0.097675
C159  C     C_R   0.998407 0.906886 0.592469 -0.097668
C160  C     C_R   0.499307 0.189783 0.809890 0.875467
C161  C     C_R   0.001593 0.906886 0.407530 -0.097680
C162  C     C_R   0.498407 0.406886 0.592469 -0.097666
C163  C     C_R   0.501593 0.406886 0.407531 -0.097670
C164  C     C_R   0.542265 0.910153 0.128604 0.132169
C165  C     C_R   0.457716 0.910145 0.871403 0.132178
C166  C     C_R   0.042292 0.410142 0.128594 0.132182
C167  C     C_R   0.957706 0.410141 0.871407 0.132185
C168  C     C_R   0.042287 0.910144 0.628595 0.132179
C169  C     C_R   0.957702 0.910139 0.371409 0.132186
C170  C     C_R   0.542286 0.410145 0.628596 0.132179
C171  C     C_R   0.500693 0.189783 0.190110 0.875467
C172  C     C_R   0.457710 0.410143 0.371405 0.132181
C173  C     C_3   0.598242 0.937611 0.150460 -0.497444
C174  C     C_3   0.401715 0.937594 0.849556 -0.497402
C175  C     C_3   0.098304 0.437586 0.150437 -0.497387
C176  C     C_3   0.901690 0.437583 0.849566 -0.497385
C177  C     C_3   0.098294 0.937590 0.650440 -0.497395
C178  C     C_3   0.901680 0.937579 0.349570 -0.497375
C179  C     C_3   0.598290 0.437592 0.650442 -0.497401
C180  C     C_3   0.401700 0.437587 0.349562 -0.497392
C181  C     C_R   0.358970 0.750194 0.250028 0.927407
C182  C     C_R   0.556393 0.623515 0.404234 0.147558
C183  C     C_R   0.358970 0.749786 0.750053 0.930729
C184  C     C_R   0.641030 0.749786 0.249947 0.930732
C185  C     C_R   0.641030 0.750194 0.749972 0.927405
C186  C     C_R   0.858970 0.250194 0.250028 0.927404
C187  C     C_R   0.858970 0.249786 0.750053 0.930728
C188  C     C_R   0.141030 0.249786 0.249946 0.930729
C189  C     C_R   0.141030 0.250194 0.749972 0.927404
C190  C     C_R   0.858970 0.750194 0.750028 0.927403
C191  C     C_R   0.858970 0.749786 0.250053 0.930728
C192  C     C_R   0.141030 0.749786 0.749946 0.930728
H1    H     H_    0.413249 0.618450 0.312740 0.155780
H2    H     H_    0.586707 0.561619 0.630421 0.156372
H3    H     H_    0.913285 0.061622 0.369582 0.156374
H4    H     H_    0.086708 0.061619 0.630420 0.156372
H5    H     H_    0.913278 0.561626 0.869586 0.156379
H6    H     H_    0.086700 0.561616 0.130423 0.156368
H7    H     H_    0.413280 0.061625 0.869584 0.156378
H8    H     H_    0.586702 0.061617 0.130423 0.156372
H9    H     H_    0.535476 0.658696 0.464879 0.191619
H10   H     H_    0.365776 0.647987 0.548808 0.211110
H11   H     H_    0.634238 0.647980 0.451185 0.211110
H12   H     H_    0.586742 0.618446 0.687264 0.155783
H13   H     H_    0.464541 0.658698 0.535119 0.191619
H14   H     H_    0.035474 0.158696 0.464880 0.191619
H15   H     H_    0.865773 0.147986 0.548810 0.211111
H16   H     H_    0.134236 0.147981 0.451186 0.211110
H17   H     H_    0.964538 0.158697 0.535119 0.191620
H18   H     H_    0.035490 0.658694 0.964878 0.191619
H19   H     H_    0.865787 0.647992 0.048803 0.211112
H20   H     H_    0.134249 0.647975 0.951179 0.211110
H21   H     H_    0.964554 0.658699 0.035117 0.191621
H22   H     H_    0.535485 0.158695 0.964878 0.191619
H23   H     H_    0.913250 0.118450 0.312740 0.155780
H24   H     H_    0.365783 0.147990 0.048805 0.211111
H25   H     H_    0.634246 0.147977 0.951181 0.211110
H26   H     H_    0.464550 0.158699 0.035118 0.191620
H27   H     H_    0.532620 0.715235 0.410598 0.216980
H28   H     H_    0.368496 0.704471 0.602923 0.203709
H29   H     H_    0.631518 0.704465 0.397070 0.203710
H30   H     H_    0.467397 0.715237 0.589400 0.216978
H31   H     H_    0.032618 0.215235 0.410598 0.216979
H32   H     H_    0.868493 0.204470 0.602924 0.203710
H33   H     H_    0.131516 0.204466 0.397071 0.203710
H34   H     H_    0.086744 0.118447 0.687263 0.155783
H35   H     H_    0.967394 0.215236 0.589401 0.216979
H36   H     H_    0.032634 0.715234 0.910596 0.216981
H37   H     H_    0.868507 0.704476 0.102918 0.203710
H38   H     H_    0.131529 0.704460 0.897065 0.203710
H39   H     H_    0.967410 0.715238 0.089399 0.216979
H40   H     H_    0.532629 0.215234 0.910597 0.216980
H41   H     H_    0.368503 0.204475 0.102920 0.203709
H42   H     H_    0.631526 0.204462 0.897067 0.203710
H43   H     H_    0.467406 0.215238 0.089399 0.216978
H44   H     H_    0.417293 0.809392 0.117693 0.161877
H45   H     H_    0.913242 0.618453 0.812743 0.155778
H46   H     H_    0.582741 0.809404 0.882293 0.161866
H47   H     H_    0.917244 0.309410 0.117713 0.161861
H48   H     H_    0.082760 0.309412 0.882285 0.161860
H49   H     H_    0.917252 0.809407 0.617710 0.161864
H50   H     H_    0.082768 0.809415 0.382281 0.161857
H51   H     H_    0.417255 0.309406 0.617708 0.161865
H52   H     H_    0.582752 0.309409 0.382288 0.161863
H53   H     H_    0.416683 0.866626 0.060860 0.159267
H54   H     H_    0.583350 0.866638 0.939126 0.159277
H55   H     H_    0.916634 0.366644 0.060880 0.159282
H56   H     H_    0.086735 0.618443 0.187266 0.155786
H57   H     H_    0.083370 0.366646 0.939117 0.159284
H58   H     H_    0.916642 0.866641 0.560877 0.159279
H59   H     H_    0.083378 0.866649 0.439114 0.159286
H60   H     H_    0.416646 0.366640 0.560876 0.159278
H61   H     H_    0.583362 0.366643 0.439121 0.159281
H62   H     H_    0.650697 0.938892 0.131738 0.211894
H63   H     H_    0.424026 0.969840 0.838949 0.198604
H64   H     H_    0.575909 0.969854 0.161064 0.198608
H65   H     H_    0.349268 0.938866 0.868287 0.211892
H66   H     H_    0.150747 0.438853 0.131701 0.211892
H67   H     H_    0.413244 0.118452 0.812742 0.155779
H68   H     H_    0.923989 0.469832 0.838957 0.198603
H69   H     H_    0.076002 0.469834 0.161046 0.198599
H70   H     H_    0.849248 0.438849 0.868303 0.211892
H71   H     H_    0.150739 0.938860 0.631707 0.211892
H72   H     H_    0.923974 0.969829 0.338959 0.198601
H73   H     H_    0.075987 0.969837 0.661048 0.198602
H74   H     H_    0.849240 0.938843 0.368308 0.211892
H75   H     H_    0.650736 0.438862 0.631710 0.211892
H76   H     H_    0.424005 0.469836 0.338953 0.198602
H77   H     H_    0.575981 0.469839 0.661050 0.198602
H78   H     H_    0.586738 0.118444 0.187266 0.155786
H79   H     H_    0.349257 0.438856 0.368296 0.211892
H80   H     H_    0.648723 0.883383 0.188522 0.200697
H81   H     H_    0.425334 0.914571 0.781818 0.212831
H82   H     H_    0.574600 0.914585 0.218194 0.212830
H83   H     H_    0.351241 0.883357 0.811503 0.200698
H84   H     H_    0.148774 0.383345 0.188485 0.200698
H85   H     H_    0.925296 0.414563 0.781826 0.212834
H86   H     H_    0.074694 0.414565 0.218176 0.212832
H87   H     H_    0.851221 0.383340 0.811519 0.200699
H88   H     H_    0.148766 0.883351 0.688491 0.200698
H89   H     H_    0.413284 0.561623 0.369583 0.156375
H90   H     H_    0.925282 0.914560 0.281828 0.212833
H91   H     H_    0.074679 0.914568 0.718179 0.212832
H92   H     H_    0.851214 0.883335 0.311524 0.200699
H93   H     H_    0.648763 0.383354 0.688494 0.200698
H94   H     H_    0.425312 0.414566 0.281822 0.212832
H95   H     H_    0.574673 0.414569 0.718180 0.212831
H96   H     H_    0.351230 0.383347 0.311512 0.200699
O1    O     O_R   0.500000 0.730040 0.321660 -0.625570
O2    O     O_R   0.500000 0.678320 0.730060 -0.622767
O3    O     O_R   1.000000 0.178320 0.269940 -0.622765
O4    O     O_R   1.000000 0.178320 0.730060 -0.622767
O5    O     O_R   0.000000 0.678320 0.769940 -0.622766
O6    O     O_R   0.000000 0.678320 0.230060 -0.622768
O7    O     O_R   0.500000 0.178320 0.769940 -0.622766
O8    O     O_R   0.500000 0.178320 0.230060 -0.622768
O9    O     O_R   0.392670 0.775850 0.275850 -0.617640
O10   O     O_R   0.392670 0.775850 0.724150 -0.623206
O11   O     O_R   0.607330 0.775850 0.275850 -0.623208
O12   O     O_R   0.500000 0.730040 0.678340 -0.625570
O13   O     O_R   0.607330 0.775850 0.724150 -0.617638
O14   O     O_R   0.892670 0.275850 0.275850 -0.617638
O15   O     O_R   0.892670 0.275850 0.724150 -0.623206
O16   O     O_R   0.107330 0.275850 0.275850 -0.623206
O17   O     O_R   0.107330 0.275850 0.724150 -0.617638
O18   O     O_R   0.892670 0.775850 0.775850 -0.617638
O19   O     O_R   0.892670 0.775850 0.224150 -0.623205
O20   O     O_R   0.107330 0.775850 0.775850 -0.623206
O21   O     O_R   0.107330 0.775850 0.224150 -0.617637
O22   O     O_R   0.392670 0.275850 0.775850 -0.617638
O23   O     O_R   0.000000 0.230040 0.321660 -0.625570
O24   O     O_R   0.392670 0.275850 0.224150 -0.623206
O25   O     O_R   0.607330 0.275850 0.775850 -0.623206
O26   O     O_R   0.607330 0.275850 0.224150 -0.617638
O27   O     O_R   0.392690 0.724130 0.224130 -0.623655
O28   O     O_R   0.392690 0.724130 0.775870 -0.616408
O29   O     O_R   0.607310 0.724130 0.224130 -0.616406
O30   O     O_R   0.607310 0.724130 0.775870 -0.623656
O31   O     O_R   0.892690 0.224130 0.224130 -0.623655
O32   O     O_R   0.892690 0.224130 0.775870 -0.616408
O33   O     O_R   0.107310 0.224130 0.224130 -0.616407
O34   O     O_R   0.000000 0.230040 0.678340 -0.625570
O35   O     O_R   0.107310 0.224130 0.775870 -0.623656
O36   O     O_R   0.892690 0.724130 0.724130 -0.623656
O37   O     O_R   0.892690 0.724130 0.275870 -0.616408
O38   O     O_R   0.107310 0.724130 0.724130 -0.616407
O39   O     O_R   0.107310 0.724130 0.275870 -0.623656
O40   O     O_R   0.392690 0.224130 0.724130 -0.623656
O41   O     O_R   0.392690 0.224130 0.275870 -0.616408
O42   O     O_R   0.607310 0.224130 0.724130 -0.616407
O43   O     O_R   0.607310 0.224130 0.275870 -0.623656
O44   O     O_R   0.500000 0.821650 0.230050 -0.622281
O45   O     O_R   0.000000 0.730040 0.821660 -0.625570
O46   O     O_R   0.500000 0.821650 0.769950 -0.622280
O47   O     O_R   0.000000 0.321650 0.230050 -0.622279
O48   O     O_R   0.000000 0.321650 0.769950 -0.622279
O49   O     O_R   0.000000 0.821650 0.730050 -0.622280
O50   O     O_R   1.000000 0.821650 0.269950 -0.622279
O51   O     O_R   0.500000 0.321650 0.730050 -0.622280
O52   O     O_R   0.500000 0.321650 0.269950 -0.622280
O53   O     O_R   0.500000 0.769930 0.178330 -0.624958
O54   O     O_R   0.500000 0.769930 0.821670 -0.624955
O55   O     O_R   0.000000 0.269930 0.178330 -0.624953
O56   O     O_R   0.000000 0.730040 0.178340 -0.625570
O57   O     O_R   1.000000 0.269930 0.821670 -0.624953
O58   O     O_R   1.000000 0.769930 0.678330 -0.624954
O59   O     O_R   1.000000 0.769930 0.321670 -0.624952
O60   O     O_R   0.500000 0.269930 0.678330 -0.624955
O61   O     O_R   0.500000 0.269930 0.321670 -0.624954
O62   O     O_R   0.439370 0.954170 0.954170 -0.625916
O63   O     O_R   0.439370 0.954170 0.045830 -0.622305
O64   O     O_R   0.560630 0.954170 0.954170 -0.622308
O65   O     O_R   0.560630 0.954170 0.045830 -0.625915
O66   O     O_R   0.939370 0.454170 0.954170 -0.625916
O67   O     O_R   0.500000 0.230040 0.821660 -0.625569
O68   O     O_R   0.939370 0.454170 0.045830 -0.622309
O69   O     O_R   0.060630 0.454170 0.954170 -0.622311
O70   O     O_R   0.060630 0.454170 0.045830 -0.625916
O71   O     O_R   0.939370 0.954170 0.454170 -0.625916
O72   O     O_R   0.939370 0.954170 0.545830 -0.622309
O73   O     O_R   0.060630 0.954170 0.454170 -0.622311
O74   O     O_R   0.060630 0.954170 0.545830 -0.625916
O75   O     O_R   0.439370 0.454170 0.454170 -0.625916
O76   O     O_R   0.439370 0.454170 0.545830 -0.622308
O77   O     O_R   0.560630 0.454170 0.454170 -0.622310
O78   O     O_R   0.500000 0.230040 0.178340 -0.625570
O79   O     O_R   0.560630 0.454170 0.545830 -0.625916
O80   O     O_R   0.439410 0.545780 0.454170 -0.625703
O81   O     O_R   0.439410 0.545780 0.545830 -0.618581
O82   O     O_R   0.560590 0.545780 0.454170 -0.618581
O83   O     O_R   0.560590 0.545780 0.545830 -0.625702
O84   O     O_R   0.939410 0.045780 0.454170 -0.625703
O85   O     O_R   0.939410 0.045780 0.545830 -0.618580
O86   O     O_R   0.060590 0.045780 0.454170 -0.618580
O87   O     O_R   0.060590 0.045780 0.545830 -0.625702
O88   O     O_R   0.939410 0.545780 0.954170 -0.625703
O89   O     O_R   0.500000 0.678320 0.269940 -0.622765
O90   O     O_R   0.939410 0.545780 0.045830 -0.618580
O91   O     O_R   0.060590 0.545780 0.954170 -0.618581
O92   O     O_R   0.060590 0.545780 0.045830 -0.625702
O93   O     O_R   0.439410 0.045780 0.954170 -0.625703
O94   O     O_R   0.439410 0.045780 0.045830 -0.618581
O95   O     O_R   0.560590 0.045780 0.954170 -0.618582
O96   O     O_R   0.560590 0.045780 0.045830 -0.625701
Zn1   Zn    Zn3+2 0.500000 0.784520 0.284530 0.952392
Zn2   Zn    Zn3+2 0.500000 0.715450 0.784540 0.958470
Zn3   Zn    Zn3+2 1.000000 0.215450 0.215460 0.958474
Zn4   Zn    Zn3+2 0.000000 0.215450 0.784540 0.958472
Zn5   Zn    Zn3+2 1.000000 0.715450 0.715460 0.958473
Zn6   Zn    Zn3+2 1.000000 0.715450 0.284540 0.958472
Zn7   Zn    Zn3+2 0.500000 0.215450 0.715460 0.958472
Zn8   Zn    Zn3+2 0.500000 0.215450 0.284540 0.958471
Zn9   Zn    Zn3+2 0.419100 0.999980 0.000000 0.951810
Zn10  Zn    Zn3+2 0.580900 0.999980 0.000000 0.951810
Zn11  Zn    Zn3+2 0.919100 0.499980 0.000000 0.951805
Zn12  Zn    Zn3+2 0.500000 0.784520 0.715470 0.952395
Zn13  Zn    Zn3+2 0.080900 0.499980 0.000000 0.951805
Zn14  Zn    Zn3+2 0.919100 0.999980 0.500000 0.951805
Zn15  Zn    Zn3+2 0.080900 0.999980 0.500000 0.951805
Zn16  Zn    Zn3+2 0.419100 0.499980 0.500000 0.951807
Zn17  Zn    Zn3+2 0.580900 0.499980 0.500000 0.951807
Zn18  Zn    Zn3+2 0.000000 0.284520 0.284530 0.952397
Zn19  Zn    Zn3+2 0.000000 0.284520 0.715470 0.952398
Zn20  Zn    Zn3+2 0.000000 0.784520 0.784530 0.952398
Zn21  Zn    Zn3+2 1.000000 0.784520 0.215470 0.952400
Zn22  Zn    Zn3+2 0.500000 0.284520 0.784530 0.952396
Zn23  Zn    Zn3+2 0.500000 0.284520 0.215470 0.952395
Zn24  Zn    Zn3+2 0.500000 0.715450 0.215460 0.958471

loop_
_geom_bond_atom_site_label_1
_geom_bond_atom_site_label_2
_ccdc_geom_bond_type
C32   O93   A    
C3    O39   A    
C83   H45   S    
O94   Zn9   S    
O37   Zn6   S    
C101  C113  S    
C7    C60   S    
O35   Zn4   S    
C160  O67   A    
C190  O36   A    
C74   C83   A    
C174  H65   S    
O27   Zn24  S    
C126  C135  A    
O57   Zn4   S    
C30   O88   A    
C124  C133  A    
C185  O13   A    
C57   C67   A    
C187  O15   A    
C184  O11   A    
C22   C159  S    
C26   O80   A    
O17   Zn19  S    
C42   C136  S    
C127  O34   A    
C2    C90   S    
C131  C140  A    
C114  H35   S    
C124  C168  A    
O48   Zn19  S    
C57   C109  S    
C79   H9    S    
O16   Zn18  S    
C9    C121  S    
C15   H95   S    
O95   Zn10  S    
C125  C169  A    
C12   H88   S    
C88   C97   A    
O12   Zn12  S    
C4    C56   S    
C33   O94   A    
O33   Zn3   S    
C109  C118  S    
C40   O59   A    
C5    O41   A    
C11   C123  S    
C29   C99   S    
C137  C146  A    
C30   O91   A    
O78   Zn23  S    
C107  H20   S    
O93   Zn9   S    
C69   C119  S    
O13   Zn12  S    
C82   C91   A    
C191  O37   A    
C25   O76   A    
C78   H1    S    
C142  C151  A    
C110  H24   S    
C171  O78   A    
C36   C130  S    
C90   H13   S    
C5    O24   A    
C113  H33   S    
C13   C63   A    
C77   C171  S    
O25   Zn22  S    
C149  O56   A    
C1    O1    A    
C164  C173  S    
C68   C110  S    
C163  C172  A    
O45   Zn20  S    
C176  H70   S    
C31   O92   A    
O5    Zn5   S    
O3    Zn3   S    
O65   Zn10  S    
O26   Zn23  S    
O1    Zn1   S    
C27   C97   S    
C10   C122  S    
O46   Zn12  S    
O73   Zn15  S    
C79   C182  S    
C47   C52   T    
C189  O35   A    
C1    C70   S    
O89   Zn24  S    
C181  O9    A    
O80   Zn16  S    
C36   O54   A    
C177  H71   S    
O53   Zn24  S    
C80   C88   A    
C178  H72   S    
O9    Zn1   S    
C6    O25   A    
C19   O66   A    
C15   H93   S    
C84   C93   A    
C23   O77   A    
C67   C118  S    
C180  H79   S    
C35   C107  S    
C86   C95   A    
C63   C113  S    
C129  C137  A    
O19   Zn21  S    
C76   C85   A    
C33   O96   A    
C45   C184  S    
C151  C159  A    
C90   H10   S    
C154  H61   S    
C78   C87   A    
C91   H4    S    
C15   C179  S    
C123  C132  A    
C33   C104  S    
C69   C77   A    
C20   O68   A    
C121  C130  A    
C50   C188  S    
C107  H18   S    
C171  O8    A    
C82   H34   S    
C146  H53   S    
C11   C176  S    
C54   C192  S    
C5    C58   S    
C9    H81   S    
O90   Zn11  S    
O79   Zn17  S    
C75   C84   A    
C89   H3    S    
C30   C100  S    
C4    O40   A    
C94   H7    S    
C113  H31   S    
C143  H50   S    
O69   Zn13  S    
C119  H41   S    
C31   O90   A    
C46   C108  S    
O38   Zn5   S    
C64   C73   A    
C6    O42   A    
C183  O10   A    
C152  C161  A    
C161  C169  A    
C134  C143  A    
C45   C53   T    
C36   O46   A    
C87   C96   A    
C65   C115  S    
C186  O14   A    
C111  H27   S    
C180  H76   S    
C141  C150  A    
C151  H58   S    
C26   C96   S    
C64   C114  S    
C120  C129  A    
C34   C129  S    
C109  H22   S    
O28   Zn2   S    
C68   C69   A    
C17   O62   A    
C175  H66   S    
C165  C174  S    
C40   C134  S    
C43   C181  S    
C148  H55   S    
C21   O73   A    
C65   C74   A    
C37   C131  S    
C38   C132  S    
C126  C170  A    
O44   Zn1   S    
C38   O57   A    
C107  C115  S    
O91   Zn13  S    
C112  H28   S    
O88   Zn11  S    
C183  O28   A    
C85   H67   S    
O24   Zn23  S    
C37   O47   A    
C44   C183  S    
C14   C178  S    
O84   Zn14  S    
C145  C154  A    
C43   C55   T    
C105  O12   A    
C24   C106  S    
C35   C100  A    
C41   O51   A    
O71   Zn14  S    
C122  C131  A    
C41   C135  S    
C22   O72   A    
C132  C141  A    
C28   O84   A    
C19   C158  S    
C108  C117  S    
C9    H83   S    
C108  H21   S    
C10   H84   S    
C110  C119  S    
C178  H74   S    
C127  O4    A    
C121  C165  A    
C39   O58   A    
C49   C59   T    
O81   Zn16  S    
C89   C98   A    
C84   H56   S    
C8    H80   S    
C175  H69   S    
C81   H23   S    
C75   C149  S    
C117  H37   S    
C62   C71   A    
C148  C157  A    
O6    Zn6   S    
O29   Zn24  S    
C109  H25   S    
C101  H14   S    
C120  C164  A    
C116  O23   A    
C44   C54   T    
C20   O70   A    
C39   O49   A    
C7    O43   A    
C91   C99   A    
C22   O74   A    
C29   O85   A    
C16   C180  S    
C61   C70   A    
C26   O82   A    
O87   Zn15  S    
O56   Zn21  S    
O30   Zn2   S    
O76   Zn16  S    
O61   Zn8   S    
O22   Zn22  S    
C17   O64   A    
C74   C138  S    
C92   C100  A    
C166  C175  S    
C46   C66   A    
C128  C136  A    
O64   Zn10  S    
C35   C65   A    
O18   Zn20  S    
C168  C177  S    
C10   C175  S    
O55   Zn3   S    
C115  H38   S    
C4    O22   A    
C37   O55   A    
C146  C155  A    
C147  H54   S    
C95   H8    S    
C66   C117  S    
C158  C167  A    
O70   Zn13  S    
C47   C185  S    
C72   C81   A    
C51   C189  S    
O51   Zn22  S    
C81   C89   A    
C172  C180  S    
C181  O27   A    
C24   C64   A    
C28   O86   A    
C139  H46   S    
C38   O48   A    
C138  O5    A    
C130  C139  A    
C6    C59   S    
C11   H87   S    
O47   Zn18  S    
C179  H77   S    
C57   C103  A    
C153  H60   S    
O15   Zn19  S    
C50   C58   T    
C31   C102  S    
C41   O60   A    
C160  O7    A    
C106  H15   S    
O43   Zn8   S    
C176  H68   S    
O40   Zn7   S    
O7    Zn7   S    
C14   H92   S    
C73   C127  S    
C106  H17   S    
C117  H39   S    
C140  H47   S    
C145  H52   S    
C21   O71   A    
C189  O17   A    
C101  H16   S    
C42   O61   A    
O8    Zn8   S    
C162  C170  A    
C173  H62   S    
C133  C142  A    
C32   C103  S    
C52   C190  S    
C137  H44   S    
C147  C156  A    
C53   C191  S    
C32   O95   A    
C143  C152  A    
C138  O45   A    
C94   C103  A    
C141  H48   S    
C20   C157  S    
C71   C105  S    
C192  O20   A    
O92   Zn13  S    
O60   Zn7   S    
C16   H94   S    
C73   C82   A    
C39   C133  S    
C28   C98   S    
C150  C158  A    
O77   Zn17  S    
C68   C104  A    
O82   Zn17  S    
C96   C182  A    
C93   C102  A    
C72   C116  S    
C153  C162  A    
O85   Zn14  S    
C115  H36   S    
C125  C134  A    
C18   O63   A    
C80   H12   S    
O59   Zn6   S    
C156  C165  A    
C66   C75   A    
O50   Zn21  S    
C149  O6    A    
C12   H91   S    
C62   C112  S    
C63   C72   A    
O62   Zn9   S    
C17   C156  S    
C11   H85   S    
C18   C155  S    
C27   O83   A    
C34   O53   A    
C179  H75   S    
C122  C166  A    
C70   C78   A    
C24   C99   A    
C90   C112  S    
C23   O75   A    
C140  C148  A    
O39   Zn6   S    
O74   Zn15  S    
O14   Zn18  S    
C14   H90   S    
C83   C92   A    
C46   C102  A    
C139  C147  A    
C14   C125  S    
C106  C114  S    
C27   O81   A    
O36   Zn5   S    
O66   Zn11  S    
C177  H73   S    
O4    Zn4   S    
C188  O16   A    
C173  H64   S    
C144  H51   S    
C13   C98   A    
C191  O19   A    
C159  C168  A    
C51   C56   T    
C111  H29   S    
C144  C153  A    
O96   Zn10  S    
C105  O2    A    
C184  O29   A    
O32   Zn4   S    
C118  H40   S    
C15   C126  S    
C49   C187  S    
O31   Zn3   S    
C16   H96   S    
C136  C145  A    
C123  C167  A    
C12   C177  S    
C185  O30   A    
O20   Zn20  S    
O21   Zn21  S    
C3    O21   A    
C187  O32   A    
C3    C55   S    
C2    C97   A    
C71   C80   A    
C48   C60   T    
C23   C163  S    
O67   Zn22  S    
C1    O89   A    
O63   Zn9   S    
C21   C161  S    
C25   O79   A    
O10   Zn12  S    
C88   H2    S    
C154  C163  A    
O11   Zn1   S    
C86   H78   S    
O86   Zn15  S    
O58   Zn5   S    
C8    C173  S    
O54   Zn2   S    
O23   Zn18  S    
C34   O44   A    
C87   H89   S    
C48   C186  S    
O68   Zn11  S    
C192  O38   A    
C29   O87   A    
C85   C94   A    
C118  H42   S    
C12   C124  S    
O41   Zn8   S    
C25   C162  S    
O49   Zn20  S    
O42   Zn7   S    
C9    C174  S    
C10   H86   S    
C16   C128  S    
O2    Zn2   S    
O34   Zn19  S    
C135  C144  A    
C7    O26   A    
C77   C86   A    
C128  C172  A    
C79   H11   S    
O72   Zn14  S    
C13   C101  S    
C92   H5    S    
C61   C111  S    
C169  C178  S    
C108  H19   S    
C95   C104  A    
C8    C120  S    
C150  H57   S    
C119  H43   S    
C76   C160  S    
C170  C179  S    
C112  H30   S    
C61   C182  A    
C157  C166  A    
C190  O18   A    
C18   O65   A    
C155  C164  A    
C142  H49   S    
O83   Zn17  S    
C116  O3    A    
C79   C111  S    
C114  H32   S    
C93   H6    S    
C188  O33   A    
C110  H26   S    
C19   O69   A    
O52   Zn23  S    
C40   O50   A    
C174  H63   S    
C42   O52   A    
C186  O31   A    
C67   C76   A    
O75   Zn16  S    
C152  H59   S    
C8    H82   S    
C2    C62   A    
C167  C176  S    
