data_mof_unit_38013.cif
_audit_creation_date              2012-12-10T17:48:54-0500
_audit_creation_method            fapswitch 2.2
_symmetry_space_group_name_H-M    P1
_symmetry_Int_Tables_number       1
_space_group_crystal_system       triclinic
_cell_length_a                    10.778284
_cell_length_b                    14.920545
_cell_length_c                    15.275823
_cell_angle_alpha                 63.713522
_cell_angle_beta                  108.174492
_cell_angle_gamma                 100.234685
_cell_volume                      2090.4468427

loop_
_atom_site_label
_atom_site_type_symbol
_atom_type_description
_atom_site_fract_x
_atom_site_fract_y
_atom_site_fract_z
_atom_type_partial_charge
C1    C     C_R   0.479064 0.119729 0.313387 0.845523
C2    C     C_R   0.487111 0.363026 0.081712 0.055070
C3    C     C_R   0.486538 0.325031 0.010712 0.034480
C4    C     C_R   0.259820 0.003456 0.495083 0.871342
C5    C     C_R   0.496917 0.469062 0.053108 -0.003550
C6    C     C_R   0.508577 0.534599 0.954639 -0.002705
C7    C     C_R   0.523683 0.493735 0.891535 -0.230249
C8    C     C_R   0.505913 0.391650 0.915422 0.332752
C9    C     C_R   0.494290 0.512347 0.118576 -0.248285
C10   C     C_R   0.511073 0.615923 0.090623 0.450754
C11   C     C_R   0.528345 0.679856 0.994356 -0.027743
C12   C     C_3   0.879932 0.995103 0.506063 -0.066479
C13   C     C_R   0.510898 0.640220 0.922515 -0.058468
C14   C     C_R   0.557724 0.783214 0.966418 -0.098551
C15   C     C_R   0.560073 0.847152 0.867639 -0.276855
C16   C     C_R   0.517413 0.880474 0.686246 0.885568
C17   C     C_R   0.487601 0.708169 0.819112 0.428568
C18   C     C_R   0.767812 0.322155 0.567623 -0.318125
C19   C     C_R   0.716137 0.223676 0.599925 0.533020
C20   C     C_R   0.500751 0.284051 0.515530 0.433873
C21   C     C_R   0.551166 0.377107 0.520517 -0.051285
C22   C     C_R   0.684098 0.399894 0.524528 0.033195
C23   C     C_3   0.956302 0.902013 0.595255 0.319797
C24   C     C_R   0.473023 0.454287 0.503218 0.182904
C25   C     C_R   0.522322 0.554807 0.469821 0.190525
C26   C     C_R   0.645789 0.576014 0.449736 0.018887
C27   C     C_R   0.730111 0.499490 0.485186 -0.134272
C28   C     C_R   0.740783 0.995813 0.505598 0.880409
C29   C     C_R   0.350403 0.434046 0.523751 -0.094769
C30   C     C_R   0.263585 0.510418 0.483088 -0.163447
C31   C     C_R   0.309823 0.610372 0.444547 0.018570
C32   C     C_R   0.444946 0.630794 0.456021 -0.172349
C33   C     C_R   0.227671 0.689882 0.405032 0.335696
C34   C     C_3   0.955765 0.092218 0.510489 -0.376883
C35   C     C_R   0.284369 0.784241 0.397424 -0.126192
C36   C     C_R   0.496942 0.718623 0.471083 0.518666
C37   C     C_3   0.020318 0.990191 0.400573 0.286551
C38   C     C_3   0.879997 0.996787 0.403373 -0.495061
C39   C     C_3   0.099377 0.911036 0.590264 -0.547573
C40   C     C_3   0.093888 0.096758 0.501154 -0.291166
C41   C     C_3   0.121267 0.002300 0.494774 -0.071714
C42   C     C_3   0.287409 0.656645 0.743551 0.041697
C43   C     C_3   0.210362 0.640562 0.648782 -0.325789
C44   C     C_3   0.066683 0.612531 0.647092 -0.832245
C45   C     C_R   0.471960 0.189372 0.207256 -0.065451
C46   C     C_3   0.036433 0.715609 0.278673 0.044330
C47   C     C_3   0.943800 0.796032 0.251626 -0.327155
C48   C     C_3   0.875695 0.840618 0.138559 -0.745485
C49   C     C_R   0.522631 0.811174 0.792472 -0.138592
C50   C     C_R   0.471543 0.220741 0.038323 -0.060145
C51   C     C_R   0.464025 0.153997 0.135188 -0.216366
C52   C     C_R   0.480751 0.293073 0.179706 -0.145175
Cu1   Cu    Cu3+1 0.465900 0.918260 0.475680 1.065160
Cu2   Cu    Cu3+1 0.534100 0.081740 0.524320 1.088223
H1    H     H_    0.028618 0.913819 0.407629 0.100032
H2    H     H_    0.581264 0.815837 0.020526 0.220690
H3    H     H_    0.829875 0.518091 0.479211 0.149266
H4    H     H_    0.221473 0.844932 0.370243 0.194940
H5    H     H_    0.164159 0.491490 0.489731 0.184942
H6    H     H_    0.872552 0.337823 0.586793 0.193433
H7    H     H_    0.835067 0.066569 0.340854 0.217941
H8    H     H_    0.679893 0.651828 0.411261 0.201032
H9    H     H_    0.322425 0.359365 0.571611 0.224482
H10   H     H_    0.818145 0.934389 0.389144 0.221498
H11   H     H_    0.121580 0.841532 0.589607 0.154313
H12   H     H_    0.960480 0.096899 0.581784 0.274259
H13   H     H_    0.911327 0.834355 0.584454 0.174558
H14   H     H_    0.165378 0.107724 0.566595 0.241474
H15   H     H_    0.101731 0.160462 0.430146 0.279231
H16   H     H_    0.904432 0.159299 0.447776 0.180539
H17   H     H_    0.816858 0.808674 0.811427 0.367329
H18   H     H_    0.453424 0.486484 0.690130 0.339672
H19   H     H_    0.246777 0.720473 0.743328 0.160663
H20   H     H_    0.274969 0.587806 0.811155 0.175436
H21   H     H_    0.217352 0.710514 0.581044 0.235299
H22   H     H_    0.253337 0.579936 0.645743 0.224951
H23   H     H_    0.170101 0.917859 0.658215 0.228775
H24   H     H_    0.021888 0.671000 0.652079 0.263674
H25   H     H_    0.057037 0.539816 0.711459 0.270254
H26   H     H_    0.012985 0.605543 0.575303 0.275396
H27   H     H_    0.395364 0.786670 0.157802 0.368879
H28   H     H_    0.185162 0.096316 0.195427 0.381512
H29   H     H_    0.792392 0.600574 0.669770 0.384173
H30   H     H_    0.809895 0.983279 0.812595 0.375357
H31   H     H_    0.156324 0.335626 0.401574 0.380341
H32   H     H_    0.978901 0.654982 0.257937 0.187544
H33   H     H_    0.108171 0.748043 0.231697 0.152353
H34   H     H_    0.585423 0.925751 0.849475 0.214476
H35   H     H_    0.869328 0.762941 0.295301 0.260221
H36   H     H_    0.999750 0.856770 0.272539 0.236459
H37   H     H_    0.948480 0.880039 0.094263 0.260710
H38   H     H_    0.804562 0.895158 0.122044 0.282855
H39   H     H_    0.822474 0.780821 0.114733 0.247904
H40   H     H_    0.468776 0.188711 0.986729 0.217994
H41   H     H_    0.456532 0.074426 0.154543 0.176177
H42   H     H_    0.486207 0.317231 0.237406 0.185848
H43   H     H_    0.552852 0.541442 0.823235 0.244283
H44   H     H_    0.479536 0.467672 0.192404 0.214028
N1    N     N_R   0.585360 0.204570 0.560800 -0.294276
N2    N     N_R   0.414550 0.795430 0.439160 -0.255501
O1    O     O_R   0.455060 0.022100 0.338110 -0.568500
O2    O     O_2   0.021245 0.960064 0.750763 -0.228317
O3    O     O_3   0.805727 0.849846 0.738014 -0.500946
O4    O     O_2   0.623093 0.282772 0.866521 -0.202615
O5    O     O_2   0.385936 0.294483 0.797280 -0.304866
O6    O     O_3   0.533583 0.448385 0.718320 -0.478671
O7    O     O_3   0.420754 0.676170 0.743621 -0.601543
O8    O     O_2   0.437727 0.587092 0.254943 -0.273197
O9    O     O_2   0.627865 0.700319 0.219200 -0.377626
O10   O     O_3   0.396572 0.762131 0.107504 -0.516033
O11   O     O_2   0.935416 0.053120 0.198354 -0.285544
O12   O     O_R   0.512640 0.160150 0.379180 -0.563451
O13   O     O_2   0.040218 0.182084 0.258202 -0.250162
O14   O     O_3   0.186669 0.055664 0.267497 -0.549316
O15   O     O_2   0.751039 0.764245 0.489602 -0.420704
O16   O     O_2   0.670150 0.760054 0.624367 -0.222088
O17   O     O_3   0.702195 0.594553 0.629135 -0.510706
O18   O     O_2   0.954731 0.161302 0.714942 -0.271697
O19   O     O_2   0.793824 0.158480 0.798519 -0.245611
O20   O     O_3   0.775447 0.019588 0.738364 -0.464438
O21   O     O_2   0.353093 0.398638 0.333632 -0.288883
O22   O     O_2   0.316302 0.225455 0.367498 -0.235082
O23   O     O_R   0.288900 0.930980 0.479450 -0.609649
O24   O     O_3   0.220829 0.290637 0.460334 -0.617688
O25   O     O_3   0.093387 0.673279 0.384576 -0.627644
O26   O     O_R   0.346480 0.069030 0.520520 -0.538675
O27   O     O_R   0.487360 0.839850 0.620820 -0.492489
O28   O     O_R   0.544940 0.977900 0.661890 -0.540532
O29   O     O_R   0.653520 0.930970 0.479480 -0.524035
O30   O     O_R   0.711100 0.069020 0.520550 -0.579035
O31   O     O_2   0.035203 0.783598 0.792915 -0.304679
S1    S     S_3+6 0.957314 0.874960 0.722830 0.021493
S2    S     S_3+6 0.511596 0.350804 0.823883 0.011968
S3    S     S_3+6 0.495209 0.665021 0.172987 -0.035336
S4    S     S_3+6 0.043869 0.074598 0.277530 -0.007206
S5    S     S_3+6 0.657660 0.712892 0.554024 -0.013633
S6    S     S_3+6 0.813047 0.139704 0.714792 0.057977
S7    S     S_3+6 0.348346 0.296238 0.417056 0.000305

loop_
_geom_bond_atom_site_label_1
_geom_bond_atom_site_label_2
_ccdc_geom_bond_type
H27   O10   S    
C14   H2    S    
C29   H9    S    
C9    H44   S    
C39   H11   S    
C46   O25   S    
C1    C45   S    
C40   H15   S    
C34   H12   S    
C7    C8    A    
C39   C41   S    
Cu1   Cu2   S    
O3    S1    S    
O8    S3    D    
Cu2   O26   S    
C12   C23   S    
C26   C27   A    
C37   C38   S    
C12   C28   S    
C35   H4    S    
C34   C40   S    
C39   H23   S    
O24   S7    S    
O2    S1    D    
C18   C19   A    
C17   O7    S    
C1    O12   A    
C30   C31   A    
C11   C14   A    
C4    C41   S    
C45   C51   A    
C23   H13   S    
H31   O24   S    
C28   O29   A    
C20   S7    S    
C24   C29   A    
Cu1   O27   S    
O6    S2    S    
C47   C48   S    
Cu1   O1    S    
C48   H37   S    
O14   S4    S    
C31   C33   A    
O18   S6    D    
C42   O7    S    
C34   H16   S    
H30   O20   S    
C38   H7    S    
C25   C32   A    
O9    S3    D    
O15   S5    D    
C12   C38   S    
C47   H35   S    
C36   S5    S    
C37   S4    S    
C3    C50   A    
C38   H10   S    
Cu1   N2    S    
C43   H21   S    
Cu2   O30   S    
C42   H20   S    
C48   H39   S    
O19   S6    D    
C44   H26   S    
C16   C49   S    
O22   S7    D    
C3    C8    A    
C27   H3    S    
C17   C49   A    
C19   N1    A    
C50   H40   S    
C45   C52   A    
C25   C26   A    
Cu2   O28   S    
C4    O23   A    
O21   S7    D    
C43   C44   S    
C5    C9    A    
C29   C30   A    
C31   C32   A    
C19   S6    S    
C30   H5    S    
C33   O25   S    
C50   C51   A    
Cu2   O12   S    
C36   N2    A    
C24   C25   A    
C16   O28   A    
H28   O14   S    
C2    C52   A    
C18   H6    S    
C40   C41   S    
H18   O6    S    
C22   C27   A    
C40   H14   S    
C47   H36   S    
Cu2   N1    S    
O10   S3    S    
C2    C5    A    
Cu1   O29   S    
C42   C43   S    
C12   C34   S    
C35   N2    A    
C1    O1    A    
O5    S2    D    
C46   H33   S    
C9    C10   A    
C43   H22   S    
H17   O3    S    
C46   C47   S    
C42   H19   S    
C7    H43   S    
C8    S2    S    
C18   C22   A    
C44   H25   S    
C10   S3    S    
C32   C36   A    
O13   S4    D    
C6    C7    A    
O16   S5    D    
C4    O26   A    
C13   C17   A    
O4    S2    D    
H29   O17   S    
C44   H24   S    
C2    C3    A    
C26   H8    S    
C6    C13   A    
C11   C13   A    
O11   S4    D    
C5    C6    A    
C20   N1    A    
C23   C39   S    
C33   C35   A    
C23   S1    S    
C52   H42   S    
C28   O30   A    
C15   C49   A    
C37   C41   S    
C16   O27   A    
C10   C11   A    
C37   H1    S    
Cu1   O23   S    
C20   C21   A    
C48   H38   S    
C21   C24   A    
C14   C15   A    
O20   S6    S    
C21   C22   A    
O17   S5    S    
O31   S1    D    
C51   H41   S    
C15   H34   S    
C46   H32   S    
