data_mof_unit_30502.cif
_audit_creation_date              2012-12-11T16:51:26-0500
_audit_creation_method            fapswitch 2.2
_symmetry_space_group_name_H-M    P1
_symmetry_Int_Tables_number       1
_space_group_crystal_system       triclinic
_cell_length_a                    24.544927
_cell_length_b                    17.243157
_cell_length_c                    15.541308
_cell_angle_alpha                 90.264973
_cell_angle_beta                  129.558258
_cell_angle_gamma                 89.711391
_cell_volume                      5071.09227292

loop_
_atom_site_label
_atom_site_type_symbol
_atom_type_description
_atom_site_fract_x
_atom_site_fract_y
_atom_site_fract_z
_atom_type_partial_charge
Br1   Br    Br    0.683102 0.014948 0.504199 -0.575845
Br2   Br    Br    0.156431 0.897708 0.169316 -0.499701
Br3   Br    Br    0.183103 0.514948 0.504200 -0.575844
Br4   Br    Br    0.656431 0.397708 0.169316 -0.499701
Br5   Br    Br    0.083656 0.970308 0.276877 -0.580297
Br6   Br    Br    0.914704 0.920871 0.736809 -0.610880
Br7   Br    Br    0.583656 0.470308 0.276877 -0.580297
Br8   Br    Br    0.414704 0.420871 0.736809 -0.610880
C1    C     C_R   0.843920 0.866170 0.225690 0.070333
C2    C     C_R   0.137521 0.185818 0.496604 -0.003549
C3    C     C_R   0.336954 0.663699 0.499406 0.056770
C4    C     C_R   0.637521 0.685818 0.496603 -0.003550
C5    C     C_R   0.852461 0.130789 0.137843 0.125695
C6    C     C_R   0.148291 0.126801 0.865541 0.119631
C7    C     C_R   0.352461 0.630789 0.137843 0.125696
C8    C     C_R   0.648291 0.626801 0.865541 0.119631
C9    C     C_R   0.736739 0.861144 0.539501 0.121115
C10   C     C_R   0.228033 0.846841 0.394622 0.120329
C11   C     C_R   0.236739 0.361144 0.539502 0.121115
C12   C     C_R   0.155623 0.864879 0.771384 0.074836
C13   C     C_R   0.728033 0.346841 0.394622 0.120329
C14   C     C_R   0.767885 0.839077 0.493857 0.064774
C15   C     C_R   0.240914 0.871633 0.492773 0.044314
C16   C     C_R   0.267885 0.339077 0.493857 0.064773
C17   C     C_R   0.740914 0.371634 0.492773 0.044314
C18   C     C_R   0.751963 0.766028 0.442554 -0.203107
C19   C     C_R   0.305056 0.847091 0.594630 -0.177901
C20   C     C_R   0.251963 0.266029 0.442554 -0.203106
C21   C     C_R   0.805056 0.347091 0.594630 -0.177901
C22   C     C_R   0.206999 0.216567 0.440915 -0.190748
C23   C     C_R   0.343920 0.366170 0.225690 0.070333
C24   C     C_R   0.838321 0.280061 0.597290 -0.194248
C25   C     C_R   0.706999 0.716567 0.440915 -0.190748
C26   C     C_R   0.338321 0.780061 0.597290 -0.194248
C27   C     C_R   0.177464 0.240230 0.489986 0.054864
C28   C     C_R   0.809482 0.239659 0.497661 0.073661
C29   C     C_R   0.677464 0.740230 0.489986 0.054864
C30   C     C_R   0.309481 0.739659 0.497661 0.073661
C31   C     C_R   0.192759 0.313271 0.537151 0.089510
C32   C     C_R   0.759729 0.279300 0.398029 0.105074
C33   C     C_R   0.692759 0.813272 0.537150 0.089511
C34   C     C_R   0.655623 0.364879 0.771384 0.074836
C35   C     C_R   0.259729 0.779300 0.398029 0.105074
C36   C     C_3   0.679125 0.868838 0.595082 -0.593955
C37   C     C_3   0.197817 0.753960 0.284319 -0.628333
C38   C     C_3   0.179125 0.368837 0.595083 -0.593955
C39   C     C_3   0.697817 0.253960 0.284319 -0.628334
C40   C     C_R   0.114411 0.910520 0.404647 0.251024
C41   C     C_R   0.885172 0.899436 0.591708 0.291908
C42   C     C_R   0.614411 0.410520 0.404647 0.251024
C43   C     C_R   0.385172 0.399436 0.591708 0.291907
C44   C     C_3   0.729532 0.924016 0.597917 0.213106
C45   C     C_R   0.898985 0.130587 0.593036 -0.102413
C46   C     C_3   0.163672 0.829209 0.275950 0.266276
C47   C     C_3   0.229532 0.424016 0.597918 0.213106
C48   C     C_3   0.663672 0.329209 0.275950 0.266277
C49   C     C_2   0.158955 0.759219 0.887525 -0.028101
C50   C     C_2   0.841681 0.759307 0.110967 -0.010452
C51   C     C_2   0.658955 0.259219 0.887525 -0.028101
C52   C     C_2   0.341680 0.259307 0.110967 -0.010452
C53   C     C_2   0.183787 0.697567 0.867819 0.037251
C54   C     C_2   0.816646 0.699051 0.132278 0.031058
C55   C     C_2   0.683787 0.197567 0.867819 0.037251
C56   C     C_R   0.085524 0.143170 0.405325 -0.085801
C57   C     C_2   0.316646 0.199051 0.132278 0.031058
C58   C     C_2   0.803326 0.158020 0.022132 -0.193043
C59   C     C_2   0.197446 0.154813 0.981359 -0.166396
C60   C     C_2   0.303326 0.658020 0.022132 -0.193043
C61   C     C_2   0.697446 0.654812 0.981359 -0.166395
C62   C     C_2   0.733710 0.145033 0.959930 -0.151151
C63   C     C_2   0.267492 0.144528 0.042374 -0.145536
C64   C     C_2   0.233710 0.645032 0.959930 -0.151150
C65   C     C_2   0.767492 0.644528 0.042374 -0.145536
C66   C     C_R   0.189108 0.903358 0.588375 -0.158237
C67   C     C_R   0.398985 0.630587 0.593036 -0.102413
C68   C     C_R   0.811563 0.899077 0.407358 -0.207895
C69   C     C_R   0.689108 0.403358 0.588375 -0.158237
C70   C     C_R   0.311563 0.399077 0.407358 -0.207895
C71   C     C_R   0.063505 0.862799 0.769094 -0.109632
C72   C     C_R   0.937016 0.863597 0.229840 -0.130241
C73   C     C_R   0.563505 0.362799 0.769094 -0.109632
C74   C     C_R   0.437016 0.363597 0.229840 -0.130240
C75   C     C_R   0.874235 0.825706 0.188023 0.036757
C76   C     C_R   0.125792 0.824415 0.809140 0.028939
C77   C     C_R   0.374235 0.325706 0.188023 0.036757
C78   C     C_R   0.585524 0.643170 0.405325 -0.085800
C79   C     C_R   0.625792 0.324414 0.809140 0.028938
C80   C     C_R   0.183924 0.895433 0.494289 -0.006924
C81   C     C_R   0.816904 0.885504 0.498616 0.022892
C82   C     C_R   0.683924 0.395433 0.494289 -0.006924
C83   C     C_R   0.316903 0.385504 0.498616 0.022893
C84   C     C_R   0.819752 0.123142 0.407128 0.056484
C85   C     C_R   0.163724 0.142430 0.590510 0.056417
C86   C     C_R   0.319752 0.623142 0.407128 0.056484
C87   C     C_R   0.663724 0.642430 0.590510 0.056417
C88   C     C_R   0.922431 0.108624 0.197555 -0.127064
C89   C     C_R   0.836954 0.163699 0.499406 0.056770
C90   C     C_R   0.077275 0.108241 0.802818 -0.121504
C91   C     C_R   0.422431 0.608624 0.197555 -0.127064
C92   C     C_R   0.577275 0.608241 0.802818 -0.121504
C93   C     C_R   0.167356 0.106172 0.802335 -0.119313
C94   C     C_R   0.833709 0.111663 0.201801 -0.119145
C95   C     C_R   0.667356 0.606172 0.802336 -0.119314
C96   C     C_R   0.333709 0.611663 0.201801 -0.119145
H1    H     H_    0.196994 0.159316 0.404498 0.170322
H2    H     H_    0.168983 0.704681 0.284602 0.197145
H3    H     H_    0.200596 0.347972 0.678985 0.181494
H4    H     H_    0.668983 0.204681 0.284602 0.197145
H5    H     H_    0.779037 0.935865 0.683621 0.153735
H6    H     H_    0.114106 0.819232 0.262562 0.111681
H7    H     H_    0.279038 0.435864 0.683622 0.153735
H8    H     H_    0.614106 0.319232 0.262562 0.111681
H9    H     H_    0.713026 0.107507 0.988937 0.134265
H10   H     H_    0.288905 0.107148 0.014032 0.128203
H11   H     H_    0.213026 0.607507 0.988937 0.134265
H12   H     H_    0.882353 0.257317 0.677895 0.128712
H13   H     H_    0.788905 0.607148 0.014032 0.128203
H14   H     H_    0.823269 0.195686 0.991894 0.134752
H15   H     H_    0.177009 0.192285 0.011465 0.131099
H16   H     H_    0.323269 0.695685 0.991894 0.134753
H17   H     H_    0.677009 0.692285 0.011466 0.131098
H18   H     H_    0.237579 0.908961 0.672985 0.118635
H19   H     H_    0.762985 0.901656 0.322310 0.139001
H20   H     H_    0.737580 0.408961 0.672985 0.118636
H21   H     H_    0.262985 0.401656 0.322310 0.139001
H22   H     H_    0.029267 0.847470 0.787030 0.169659
H23   H     H_    0.696994 0.659316 0.404499 0.170322
H24   H     H_    0.972380 0.849414 0.212988 0.145500
H25   H     H_    0.529267 0.347470 0.787030 0.169659
H26   H     H_    0.472380 0.349414 0.212987 0.145500
H27   H     H_    0.950275 0.105129 0.164895 0.139788
H28   H     H_    0.048091 0.106762 0.833252 0.129555
H29   H     H_    0.450275 0.605129 0.164895 0.139788
H30   H     H_    0.548091 0.606762 0.833252 0.129555
H31   H     H_    0.220521 0.100289 0.832005 0.108079
H32   H     H_    0.781235 0.113389 0.175751 0.103885
H33   H     H_    0.720521 0.600288 0.832005 0.108079
H34   H     H_    0.382352 0.757317 0.677895 0.128712
H35   H     H_    0.281235 0.613389 0.175751 0.103886
H36   H     H_    0.927485 0.144580 0.679853 0.110105
H37   H     H_    0.058336 0.156502 0.318747 0.128400
H38   H     H_    0.427485 0.644580 0.679853 0.110105
H39   H     H_    0.558336 0.656502 0.318747 0.128400
H40   H     H_    0.775698 0.746541 0.406584 0.142457
H41   H     H_    0.323628 0.870891 0.673622 0.126216
H42   H     H_    0.275698 0.246542 0.406583 0.142457
H43   H     H_    0.823628 0.370891 0.673622 0.126216
H44   H     H_    0.759881 0.811756 0.193710 0.099988
H45   H     H_    0.623148 0.888448 0.540490 0.239646
H46   H     H_    0.740645 0.869089 0.089867 0.106618
H47   H     H_    0.235490 0.808423 0.791795 0.105482
H48   H     H_    0.259929 0.861427 0.902968 0.105579
H49   H     H_    0.259881 0.311756 0.193710 0.099988
H50   H     H_    0.240645 0.369089 0.089867 0.106618
H51   H     H_    0.735490 0.308423 0.791795 0.105482
H52   H     H_    0.759929 0.361427 0.902968 0.105579
H53   H     H_    0.210814 0.677219 0.770974 0.124824
H54   H     H_    0.137396 0.631793 0.730104 0.133472
H55   H     H_    0.789774 0.682236 0.229871 0.111888
H56   H     H_    0.209929 0.748520 0.226722 0.238605
H57   H     H_    0.863600 0.636220 0.272303 0.132103
H58   H     H_    0.710814 0.177219 0.770974 0.124824
H59   H     H_    0.637396 0.131793 0.730104 0.133472
H60   H     H_    0.289774 0.182236 0.229871 0.111888
H61   H     H_    0.363600 0.136220 0.272303 0.132103
H62   H     H_    0.200593 0.815912 0.031453 0.157273
H63   H     H_    0.122477 0.772186 0.972319 0.150166
H64   H     H_    0.846030 0.816624 0.000426 0.125917
H65   H     H_    0.861452 0.720926 0.010365 0.109993
H66   H     H_    0.700593 0.315912 0.031453 0.157274
H67   H     H_    0.123148 0.388447 0.540490 0.239646
H68   H     H_    0.622477 0.272186 0.972319 0.150166
H69   H     H_    0.346029 0.316624 0.000426 0.125917
H70   H     H_    0.361452 0.220926 0.010365 0.109993
H71   H     H_    0.722901 0.083669 0.336981 0.150495
H72   H     H_    0.752051 0.056119 0.270792 0.094934
H73   H     H_    0.269547 0.153138 0.689665 0.117111
H74   H     H_    0.230594 0.208041 0.727074 0.106204
H75   H     H_    0.222901 0.583669 0.336981 0.150495
H76   H     H_    0.252051 0.556119 0.270792 0.094933
H77   H     H_    0.769547 0.653139 0.689665 0.117111
H78   H     H_    0.709929 0.248520 0.226722 0.238605
H79   H     H_    0.730592 0.708041 0.727074 0.106204
H80   H     H_    0.700595 0.847972 0.678984 0.181494
N1    N     N_R   0.888400 0.921830 0.294620 -0.055442
N2    N     N_R   0.874350 0.922400 0.443380 -0.058512
N3    N     N_R   0.625650 0.422400 0.556620 -0.056787
N4    N     N_R   0.374350 0.422400 0.443380 -0.058512
N5    N     N_R   0.054230 0.922730 0.705400 -0.045527
N6    N     N_R   0.945770 0.922730 0.294600 -0.040679
N7    N     N_R   0.554230 0.422730 0.705400 -0.045527
N8    N     N_R   0.445770 0.422730 0.294600 -0.040679
N9    N     N_R   0.873790 0.077030 0.443380 -0.062820
N10   N     N_R   0.126210 0.077030 0.556620 -0.051523
N11   N     N_R   0.373790 0.577030 0.443380 -0.062820
N12   N     N_R   0.111600 0.921830 0.705380 -0.056393
N13   N     N_R   0.626210 0.577030 0.556620 -0.051523
N14   N     N_R   0.945200 0.076700 0.294600 -0.039536
N15   N     N_R   0.054800 0.076700 0.705400 -0.045348
N16   N     N_R   0.445200 0.576700 0.294600 -0.039536
N17   N     N_R   0.554800 0.576700 0.705400 -0.045348
N18   N     N_R   0.111030 0.077600 0.705380 -0.050987
N19   N     N_R   0.888970 0.077600 0.294620 -0.053002
N20   N     N_R   0.611030 0.577600 0.705380 -0.050987
N21   N     N_R   0.388970 0.577600 0.294620 -0.053002
N22   N     N_R   0.919490 0.077280 0.556590 -0.046641
N23   N     N_R   0.388400 0.421830 0.294620 -0.055442
N24   N     N_R   0.080510 0.077280 0.443410 -0.032911
N25   N     N_R   0.419490 0.577280 0.556590 -0.046641
N26   N     N_R   0.580510 0.577280 0.443410 -0.032911
N27   N     N_3   0.771033 0.864881 0.176396 -0.227676
N28   N     N_3   0.227523 0.860886 0.815902 -0.225973
N29   N     N_3   0.271033 0.364881 0.176396 -0.227676
N30   N     N_3   0.727523 0.360886 0.815902 -0.225973
N31   N     N_3   0.164488 0.684482 0.760190 -0.203202
N32   N     N_3   0.836007 0.688651 0.240324 -0.207799
N33   N     N_3   0.664488 0.184482 0.760190 -0.203202
N34   N     N_R   0.611600 0.421830 0.705380 -0.056393
N35   N     N_3   0.336007 0.188651 0.240324 -0.207799
N36   N     N_3   0.171339 0.765504 0.990940 -0.208290
N37   N     N_3   0.829406 0.762976 0.007260 -0.211505
N38   N     N_3   0.671339 0.265504 0.990940 -0.208290
N39   N     N_3   0.329406 0.262976 0.007260 -0.211505
N40   N     N_3   0.749646 0.104067 0.309651 -0.223432
N41   N     N_3   0.230719 0.153153 0.698447 -0.226410
N42   N     N_3   0.249646 0.604067 0.309651 -0.223432
N43   N     N_3   0.730718 0.653154 0.698447 -0.226410
N44   N     N_R   0.079940 0.922160 0.443410 -0.062756
N45   N     N_R   0.920060 0.922160 0.556590 -0.069159
N46   N     N_R   0.579940 0.422160 0.443410 -0.062756
N47   N     N_R   0.420060 0.422160 0.556590 -0.069159
N48   N     N_R   0.125650 0.922400 0.556620 -0.056787
Ni1   Ni    Ni4+2 0.882160 0.999430 0.370180 0.203379
Ni2   Ni    Ni4+2 0.117840 0.999430 0.629820 0.215087
Ni3   Ni    Ni4+2 0.382160 0.499430 0.370180 0.203379
Ni4   Ni    Ni4+2 0.617840 0.499430 0.629820 0.215087
Ni5   Ni    Ni4+2 0.012460 0.999430 0.370180 0.266434
Ni6   Ni    Ni4+2 0.987540 0.999430 0.629820 0.262817
Ni7   Ni    Ni4+2 0.512460 0.499430 0.370180 0.266434
Ni8   Ni    Ni4+2 0.487540 0.499430 0.629820 0.262817

loop_
_geom_bond_atom_site_label_1
_geom_bond_atom_site_label_2
_ccdc_geom_bond_type
C50   C54   D    
C32   C39   S    
N1    Ni1   S    
N15   Ni6   S    
N16   N21   A    
C23   C77   A    
C3    C30   S    
C45   H36   S    
C85   N10   A    
N25   Ni8   S    
H64   N37   S    
H49   N29   S    
N23   Ni3   S    
N1    N6    A    
N2    N45   A    
H77   N43   S    
C88   N14   A    
N6    Ni5   S    
C64   H11   S    
C46   H6    S    
C17   C82   S    
N12   Ni2   S    
C90   N15   A    
N7    N34   A    
C24   C28   A    
C51   N38   S    
N11   N25   A    
C21   C24   A    
C1    N1    A    
C93   N18   A    
C95   H33   S    
C71   C76   A    
C40   N44   A    
C2    C27   S    
C56   H37   S    
C25   H23   S    
C38   H67   S    
C91   H29   S    
C58   H14   S    
C4    C29   S    
C95   N20   A    
C73   N7    A    
H74   N41   S    
N13   N26   A    
C18   C25   A    
C71   N5    A    
C43   C83   A    
H66   N38   S    
N3    N46   A    
Br3   C47   S    
C42   C82   A    
H65   N37   S    
C91   N16   A    
C84   C89   A    
N15   N18   A    
C6    C59   S    
C40   C80   A    
C54   C65   S    
C61   C65   D    
C28   C89   S    
N9    N22   A    
C15   C19   A    
C7    C96   A    
C74   H26   S    
N4    N47   A    
C36   H80   S    
N3    Ni4   S    
C19   H41   S    
C68   C81   A    
N2    Ni1   S    
C74   N8    A    
C61   H17   S    
C36   C44   S    
H48   N28   S    
H58   N33   S    
C19   C26   A    
Br4   C48   S    
C41   N45   A    
N11   Ni3   S    
N46   Ni7   S    
C37   H56   S    
C72   N6    A    
N10   Ni2   S    
H50   N29   S    
C18   H40   S    
N5    Ni6   S    
C9    C44   S    
N9    Ni1   S    
N13   Ni4   S    
C92   H30   S    
C78   H39   S    
C6    C90   A    
C51   C79   S    
C5    C58   S    
C93   H31   S    
C62   H9    S    
C17   C21   A    
Br5   C40   S    
C69   C82   A    
H53   N31   S    
C9    C33   A    
C39   H78   S    
H47   N28   S    
H70   N39   S    
C5    C88   A    
C43   N47   A    
C86   N11   A    
C78   N26   A    
C84   N40   S    
C65   H13   S    
C87   N43   S    
C66   N48   A    
C84   N9    A    
Br2   C46   S    
H44   N27   S    
H79   N43   S    
C57   N35   S    
C10   C46   S    
C8    C92   A    
C6    C93   A    
C72   H24   S    
C2    C85   A    
C45   C89   A    
H54   N31   S    
C57   C63   S    
N10   N24   A    
C26   H34   S    
C25   C29   A    
C10   C15   A    
C63   H10   S    
N47   Ni8   S    
C52   C57   D    
C38   C47   S    
H51   N30   S    
C27   C31   A    
C94   N19   A    
C23   N23   A    
C34   N30   S    
N14   Ni5   S    
N18   Ni2   S    
C56   N24   A    
C92   N17   A    
C8    C95   A    
C73   H25   S    
C55   C62   S    
C28   C32   A    
C60   C64   D    
C38   H3    S    
N48   Ni2   S    
C45   N22   A    
C49   C76   S    
N22   Ni6   S    
C96   N21   A    
C24   H12   S    
C35   C37   S    
Br8   C43   S    
C36   H45   S    
C73   C79   A    
N4    Ni3   S    
C11   C31   A    
C52   N39   S    
C1    C75   A    
C31   C38   S    
H59   N33   S    
H60   N35   S    
C53   C64   S    
C66   H18   S    
H57   N32   S    
C37   C46   S    
C15   C80   S    
C88   H27   S    
C22   H1    S    
H52   N30   S    
C69   N3    A    
N17   N20   A    
H76   N42   S    
C4    C87   A    
C70   N4    A    
H69   N39   S    
C16   C83   S    
H62   N36   S    
H63   N36   S    
N44   N48   A    
C68   N2    A    
C37   H2    S    
C3    C86   A    
N17   Ni8   S    
C50   N37   S    
C11   C47   S    
N7    Ni8   S    
C13   C17   A    
C67   N25   A    
C20   H42   S    
H55   N32   S    
H72   N40   S    
C47   H7    S    
C26   C30   A    
C68   H19   S    
C54   N32   S    
C71   H22   S    
C2    C56   A    
C8    C61   S    
C16   C20   A    
Br7   C42   S    
C41   C81   A    
C87   N13   A    
N8    Ni7   S    
N24   Ni5   S    
C21   H43   S    
C13   C48   S    
C52   C77   S    
C49   C53   D    
C23   N29   S    
C49   N36   S    
C70   C83   A    
C74   C77   A    
C22   C27   A    
C51   C55   D    
C9    C14   A    
C96   H35   S    
C4    C78   A    
H46   N27   S    
C55   N33   S    
H75   N42   S    
C12   C76   A    
C11   C16   A    
C5    C94   A    
N16   Ni7   S    
N34   Ni4   S    
N44   Ni5   S    
N20   Ni4   S    
C69   H20   S    
C3    C67   A    
C50   C75   S    
N26   Ni7   S    
C67   H38   S    
C7    C91   A    
N5    N12   A    
C58   C62   D    
H71   N40   S    
N21   Ni3   S    
C44   H5    S    
C1    N27   S    
C7    C60   S    
C20   C22   A    
C72   C75   A    
C33   C36   S    
C14   C81   S    
C12   N12   A    
C42   N46   A    
C59   C63   D    
C12   N28   S    
Br6   C41   S    
C29   C33   A    
Br1   C44   S    
C94   H32   S    
N8    N23   A    
H68   N38   S    
C86   N42   S    
H73   N41   S    
N19   Ni1   S    
C85   N41   S    
C30   C35   A    
C60   H16   S    
C39   H4    S    
C14   C18   A    
H61   N35   S    
C90   H28   S    
N14   N19   A    
C34   C79   A    
C53   N31   S    
C66   C80   A    
N45   Ni6   S    
C10   C35   A    
C70   H21   S    
C59   H15   S    
C48   H8    S    
C34   N34   A    
C39   C48   S    
C13   C32   A    
