data_mof_unit_25781.cif
_audit_creation_date              2012-12-10T17:52:24-0500
_audit_creation_method            fapswitch 2.2
_symmetry_space_group_name_H-M    P1
_symmetry_Int_Tables_number       1
_space_group_crystal_system       triclinic
_cell_length_a                    19.08269
_cell_length_b                    10.630004
_cell_length_c                    9.915917
_cell_angle_alpha                 89.95324
_cell_angle_beta                  90.268625
_cell_angle_gamma                 91.737421
_cell_volume                      2010.4872842

loop_
_atom_site_label
_atom_site_type_symbol
_atom_type_description
_atom_site_fract_x
_atom_site_fract_y
_atom_site_fract_z
_atom_type_partial_charge
C1    C     C_R   0.501750 0.260723 0.500092 0.850190
C2    C     C_R   0.289754 0.473022 0.497323 -0.074501
C3    C     C_R   0.929082 0.423839 0.490349 0.288642
C4    C     C_R   0.069866 0.407208 0.487689 0.318584
C5    C     C_R   0.816560 0.428151 0.615015 -0.137046
C6    C     C_R   0.745256 0.450424 0.618250 -0.180474
C7    C     C_R   0.710263 0.485685 0.500089 -0.029688
C8    C     C_R   0.747328 0.499902 0.379224 -0.172804
C9    C     C_R   0.818486 0.478207 0.376085 -0.141650
C10   C     C_R   0.853593 0.441840 0.493784 0.084183
C11   C     C_R   0.619296 0.137630 0.625351 -0.279455
C12   C     C_R   0.365380 0.496047 0.499594 0.861364
C13   C     C_R   0.674333 0.075015 0.686066 -0.217743
C14   C     C_R   0.674410 0.944072 0.686083 0.699708
C15   C     C_R   0.619453 0.875371 0.625190 -0.299951
C16   C     C_R   0.562812 0.937489 0.564417 0.008926
C17   C     C_R   0.562712 0.069373 0.564554 0.105266
C18   C     C_R   0.506567 0.128705 0.499893 -0.058916
C19   C     C_R   0.453611 0.061771 0.431893 -0.215926
C20   C     C_R   0.453736 0.933245 0.431694 -0.191986
C21   C     C_R   0.506790 0.872049 0.499542 -0.064421
C22   C     C_R   0.408287 0.334649 0.139375 -0.169456
C23   C     C_R   0.502042 0.739463 0.499928 0.877090
C24   C     C_R   0.362777 0.253589 0.069002 -0.180952
C25   C     C_R   0.362619 0.253684 0.929421 -0.166490
C26   C     C_R   0.408020 0.334748 0.859412 -0.156132
C27   C     C_R   0.454730 0.418535 0.927382 0.166168
C28   C     C_R   0.454795 0.418534 0.071948 0.176749
C29   C     C_R   0.543347 0.577847 0.071804 -0.106046
C30   C     C_R   0.543345 0.577801 0.928702 -0.105632
C31   C     C_R   0.634590 0.498831 0.500226 0.836748
C32   C     C_R   0.250493 0.482181 0.615495 -0.190187
C33   C     C_R   0.178963 0.454271 0.612576 -0.173312
C34   C     C_R   0.146095 0.415846 0.491871 0.028255
C35   C     C_R   0.186195 0.400605 0.374397 0.184101
C36   C     C_R   0.257333 0.431109 0.377722 -0.226012
H1    H     H_    0.274801 0.512311 0.709475 0.172590
H2    H     H_    0.622220 0.239273 0.624879 0.178539
H3    H     H_    0.717349 0.128414 0.732006 0.171794
H4    H     H_    0.622447 0.773963 0.624384 0.168832
H5    H     H_    0.411557 0.881089 0.381077 0.156216
H6    H     H_    0.578772 0.641478 0.125766 0.153894
H7    H     H_    0.405255 0.329122 0.246267 0.195377
H8    H     H_    0.327387 0.190401 0.123318 0.165480
H9    H     H_    0.327138 0.190468 0.874845 0.162550
H10   H     H_    0.404884 0.328860 0.752459 0.203601
H11   H     H_    0.148933 0.466919 0.703764 0.174392
H12   H     H_    0.578751 0.641425 0.875181 0.160788
H13   H     H_    0.287376 0.419439 0.286616 0.174617
H14   H     H_    0.842583 0.400952 0.707354 0.158387
H15   H     H_    0.717398 0.437694 0.712439 0.159264
H16   H     H_    0.721312 0.526871 0.286734 0.160289
H17   H     H_    0.845818 0.489695 0.281204 0.160568
H18   H     H_    0.411349 0.109303 0.381391 0.141373
N1    N     N_R   0.035367 0.451442 0.378874 -0.121098
N2    N     N_R   0.966206 0.458872 0.379786 -0.156452
N3    N     N_R   0.963519 0.379065 0.599457 -0.161797
N4    N     N_R   0.032868 0.371279 0.598338 -0.158528
N5    N     N_R   0.499340 0.498800 0.142780 -0.122105
N6    N     N_R   0.499320 0.498720 0.857170 -0.123661
O1    O     O_R   0.500000 0.316780 0.614690 -0.639081
O2    O     O_R   0.499990 0.316750 0.385360 -0.627494
O3    O     O_R   0.398140 0.500000 0.614700 -0.633110
O4    O     O_R   0.398130 0.499970 0.385370 -0.634898
O5    O     O_R   0.500010 0.683250 0.614640 -0.611109
O6    O     O_R   0.500000 0.683220 0.385310 -0.609054
O7    O     O_R   0.601870 0.500030 0.614630 -0.627457
O8    O     O_R   0.601860 0.500000 0.385300 -0.613108
Zn1   Zn    Zn3+2 0.500000 0.500020 0.653130 0.938802
Zn2   Zn    Zn3+2 0.500000 0.499980 0.346870 0.946295
F1    F     F_    0.728373 0.883327 0.743773 -0.660348
I1    I     I_    0.145950 0.324893 0.190056 -0.351542

loop_
_geom_bond_atom_site_label_1
_geom_bond_atom_site_label_2
_ccdc_geom_bond_type
O1    Zn1   S    
C11   H2    S    
N1    N2    A    
C16   C21   A    
C29   C30   A    
O4    Zn2   S    
C6    H15   S    
C9    C10   A    
C8    H16   S    
C35   C36   A    
O3    Zn1   S    
C2    C12   S    
C32   C33   A    
C23   O5    A    
C33   H11   S    
C17   C18   A    
C1    C18   S    
C5    C10   A    
C3    C10   S    
C22   C28   A    
C32   H1    S    
C1    O2    A    
C31   O7    A    
C11   C13   A    
N3    N4    A    
O6    Zn2   S    
N6    Zn1   S    
O5    Zn1   S    
C2    C32   A    
C3    N3    A    
C19   H18   S    
C30   H12   S    
C24   H8    S    
C35   I1    S    
C33   C34   A    
C6    C7    A    
C4    C34   S    
C27   N6    A    
C21   C23   S    
C4    N1    A    
C26   C27   A    
C5    C6    A    
C29   H6    S    
C22   C24   A    
C15   H4    S    
C13   H3    S    
C7    C31   S    
C26   H10   S    
N5    Zn2   S    
C23   O6    A    
C15   C16   A    
C20   C21   A    
C25   H9    S    
C5    H14   S    
C7    C8    A    
C9    H17   S    
C24   C25   A    
O2    Zn2   S    
O8    Zn2   S    
C34   C35   A    
C3    N2    A    
C28   N5    A    
C2    C36   A    
C27   C28   A    
C12   O3    A    
C12   O4    A    
C29   N5    A    
C14   C15   A    
C18   C19   A    
C30   N6    A    
C13   C14   A    
C4    N4    A    
C25   C26   A    
C14   F1    S    
C31   O8    A    
C22   H7    S    
C11   C17   A    
C36   H13   S    
C19   C20   A    
C16   C17   A    
C20   H5    S    
C8    C9    A    
O7    Zn1   S    
C1    O1    A    
