data_mof_unit_59335.cif
_audit_creation_date              2012-12-10T18:22:33-0500
_audit_creation_method            fapswitch 2.2
_symmetry_space_group_name_H-M    P1
_symmetry_Int_Tables_number       1
_space_group_crystal_system       triclinic
_cell_length_a                    23.50961
_cell_length_b                    10.789577
_cell_length_c                    9.602766
_cell_angle_alpha                 92.769148
_cell_angle_beta                  89.98994
_cell_angle_gamma                 93.741156
_cell_volume                      2427.78577859

loop_
_atom_site_label
_atom_site_type_symbol
_atom_type_description
_atom_site_fract_x
_atom_site_fract_y
_atom_site_fract_z
_atom_type_partial_charge
C1    C     C_R   0.498208 0.259546 0.496564 0.784771
C2    C     C_R   0.709027 0.564527 0.582718 0.051386
C3    C     C_R   0.233700 0.499169 0.607526 0.179838
C4    C     C_R   0.765968 0.531837 0.598611 0.162239
C5    C     C_R   0.208067 0.530454 0.482300 0.204222
C6    C     C_R   0.788572 0.447435 0.499353 0.178551
C7    C     C_3   0.548587 0.058015 0.557901 0.130196
C8    C     C_3   0.453791 0.942237 0.442681 0.082773
C9    C     C_3   0.547285 0.961843 0.432457 0.108640
C10   C     C_3   0.455093 0.037520 0.568501 0.096586
C11   C     C_3   0.502972 0.878157 0.509823 -0.207152
C12   C     C_R   0.502241 0.740327 0.503501 0.769754
C13   C     C_3   0.499019 0.121728 0.490604 -0.201725
C14   C     C_3   0.504441 0.973931 0.635716 0.142349
C15   C     C_3   0.498100 0.025533 0.364657 0.153082
C16   C     C_R   0.390808 0.500420 0.499727 0.808266
C17   C     C_R   0.608726 0.499041 0.499893 0.833365
C18   C     C_3   0.506304 0.611093 0.055717 0.697014
C19   C     C_3   0.493524 0.388697 0.944209 0.681145
C20   C     C_3   0.459047 0.561707 0.953224 0.053570
C21   C     C_3   0.540678 0.437891 0.046424 0.008958
C22   C     C_3   0.547423 0.549762 0.954009 0.055653
C23   C     C_R   0.242869 0.559875 0.367221 0.078792
C24   C     C_3   0.452539 0.449509 0.046615 0.031667
C25   C     C_R   0.875551 0.556312 0.427219 0.559166
C26   C     C_R   0.120497 0.399847 0.475700 0.541093
C27   C     C_R   0.880024 0.356928 0.521102 0.571680
C28   C     C_R   0.116106 0.618524 0.457642 0.579531
C29   C     C_R   0.939670 0.363378 0.505797 -0.126226
C30   C     C_R   0.056357 0.605205 0.445931 -0.128034
C31   C     C_R   0.967860 0.476080 0.467151 -0.132301
C32   C     C_R   0.028174 0.487692 0.465414 -0.125530
C33   C     C_R   0.935689 0.577521 0.432984 -0.083287
C34   C     C_R   0.751505 0.375963 0.406632 0.077947
C35   C     C_R   0.060278 0.382549 0.484935 -0.081300
C36   C     C_R   0.971318 0.260652 0.530367 0.588738
C37   C     C_R   0.024582 0.707353 0.418626 0.586222
C38   C     C_R   0.030877 0.266362 0.514734 -0.002926
C39   C     C_R   0.964773 0.695223 0.409023 0.021310
C40   C     C_3   0.410829 0.632730 0.893619 -0.343244
C41   C     C_3   0.390812 0.734038 0.993526 -0.878598
C42   C     C_3   0.588244 0.364420 0.103157 -0.242803
C43   C     C_3   0.611662 0.272662 0.995970 -0.887331
C44   C     C_3   0.604595 0.605676 0.902194 -0.348027
C45   C     C_R   0.302265 0.563046 0.383661 0.478820
C46   C     C_3   0.639472 0.680437 0.016011 -0.874117
C47   C     C_3   0.396594 0.391601 0.104549 -0.302807
C48   C     C_3   0.363600 0.299071 0.004580 -0.909610
C49   C     C_3   0.060351 0.147250 0.537894 -0.236932
C50   C     C_3   0.086127 0.148374 0.684111 -0.745550
C51   C     C_3   0.934370 0.812835 0.384024 -0.319724
C52   C     C_3   0.907095 0.863478 0.517814 -0.679210
C53   C     C_3   0.217937 0.582541 0.225614 -0.335809
C54   C     C_3   0.197465 0.459931 0.150221 -0.841105
C55   C     C_3   0.773216 0.288326 0.293671 -0.308088
C56   C     C_R   0.692738 0.389734 0.415857 0.466702
C57   C     C_3   0.774135 0.348442 0.153086 -0.817654
C58   C     C_3   0.308975 0.369356 0.702099 -0.414282
C59   C     C_3   0.270985 0.248466 0.690429 -0.799100
C60   C     C_3   0.694296 0.695757 0.624745 -0.415662
C61   C     C_3   0.726494 0.787326 0.530812 -0.804316
C62   C     C_3   0.200125 0.506030 0.743158 -0.407861
C63   C     C_3   0.196443 0.641295 0.795070 -0.827300
C64   C     C_3   0.802799 0.587704 0.719390 -0.378204
C65   C     C_3   0.782810 0.533339 0.856115 -0.846065
C66   C     C_3   0.598828 0.905817 0.361228 -0.397124
C67   C     C_R   0.327292 0.508226 0.496840 -0.251301
C68   C     C_3   0.633127 0.995934 0.270846 -0.843031
C69   C     C_3   0.402798 0.084381 0.645244 -0.363687
C70   C     C_3   0.370687 0.982856 0.726233 -0.861466
C71   C     C_3   0.598650 0.141854 0.620947 -0.329002
C72   C     C_3   0.654551 0.079861 0.634979 -0.858015
C73   C     C_3   0.402076 0.864094 0.379872 -0.273898
C74   C     C_3   0.348256 0.934471 0.363623 -0.807564
C75   C     C_3   0.504288 0.947477 0.790466 -0.350628
C76   C     C_3   0.561628 0.912609 0.842114 -0.850899
C77   C     C_3   0.500221 0.046973 0.208945 -0.349246
C78   C     C_R   0.671036 0.485721 0.499440 -0.230934
C79   C     C_3   0.444577 0.086191 0.153497 -0.875564
C80   C     C_R   0.290712 0.463899 0.603465 0.036745
Cu1   Cu    Cu3+1 0.500010 0.499990 0.643150 0.932074
Cu2   Cu    Cu3+1 0.499990 0.500010 0.356850 0.974114
F1    F     F_    0.944027 0.152758 0.568840 -0.667938
F2    F     F_    0.051976 0.820390 0.400397 -0.659151
F3    F     F_    0.512140 0.729365 0.116630 -0.724907
F4    F     F_    0.487525 0.270553 0.882956 -0.723875
F5    F     F_    0.335612 0.618116 0.287440 -0.735861
F6    F     F_    0.656670 0.311293 0.339086 -0.743221
H1    H     H_    0.352826 0.774364 0.949577 0.237498
H2    H     H_    0.571439 0.312396 0.191717 0.271613
H3    H     H_    0.615295 0.755588 0.064261 0.288728
H4    H     H_    0.652609 0.620559 0.098862 0.255079
H5    H     H_    0.678637 0.724265 0.970206 0.236676
H6    H     H_    0.630254 0.530407 0.859019 0.217103
H7    H     H_    0.596033 0.666447 0.817205 0.221702
H8    H     H_    0.381126 0.301805 0.898213 0.287388
H9    H     H_    0.364319 0.202957 0.038564 0.261322
H10   H     H_    0.317954 0.319072 0.005052 0.240680
H11   H     H_    0.405663 0.343657 0.199966 0.228040
H12   H     H_    0.379203 0.694483 0.093588 0.328869
H13   H     H_    0.369011 0.467713 0.132122 0.271876
H14   H     H_    0.115769 0.231278 0.705430 0.247195
H15   H     H_    0.051664 0.148855 0.763249 0.249774
H16   H     H_    0.109855 0.063646 0.694766 0.253035
H17   H     H_    0.029919 0.064203 0.526577 0.252383
H18   H     H_    0.092058 0.128310 0.455645 0.250653
H19   H     H_    0.878956 0.791544 0.566554 0.230217
H20   H     H_    0.940849 0.896783 0.594160 0.269814
H21   H     H_    0.881335 0.942477 0.493873 0.280455
H22   H     H_    0.964153 0.888270 0.347040 0.239693
H23   H     H_    0.424839 0.809147 0.010839 0.277183
H24   H     H_    0.903188 0.797948 0.297519 0.232168
H25   H     H_    0.234015 0.401661 0.129171 0.256308
H26   H     H_    0.165291 0.407582 0.212505 0.277168
H27   H     H_    0.177198 0.478678 0.050027 0.235949
H28   H     H_    0.182320 0.644499 0.234954 0.230509
H29   H     H_    0.250016 0.630394 0.158312 0.242754
H30   H     H_    0.730982 0.375230 0.124866 0.273174
H31   H     H_    0.804008 0.432646 0.157151 0.267860
H32   H     H_    0.788679 0.281779 0.071011 0.241269
H33   H     H_    0.816712 0.261051 0.315893 0.213343
H34   H     H_    0.425131 0.677063 0.797508 0.242573
H35   H     H_    0.745591 0.200618 0.286705 0.227123
H36   H     H_    0.225462 0.264161 0.708755 0.269697
H37   H     H_    0.275312 0.202296 0.585386 0.267465
H38   H     H_    0.284236 0.185428 0.770372 0.239067
H39   H     H_    0.352527 0.341518 0.680471 0.219690
H40   H     H_    0.307969 0.411380 0.808644 0.205202
H41   H     H_    0.773043 0.777498 0.532656 0.278956
H42   H     H_    0.711606 0.771257 0.421263 0.258980
H43   H     H_    0.719735 0.883887 0.566558 0.238116
H44   H     H_    0.648171 0.708499 0.613372 0.180459
H45   H     H_    0.374306 0.566176 0.866850 0.215203
H46   H     H_    0.705461 0.719100 0.735276 0.216332
H47   H     H_    0.239912 0.685376 0.815359 0.250398
H48   H     H_    0.174717 0.694664 0.717376 0.286480
H49   H     H_    0.171732 0.645623 0.893467 0.244143
H50   H     H_    0.156567 0.461222 0.730178 0.206285
H51   H     H_    0.219957 0.457527 0.827414 0.209961
H52   H     H_    0.737772 0.552234 0.877416 0.253025
H53   H     H_    0.786754 0.431190 0.851146 0.269523
H54   H     H_    0.809598 0.575672 0.943344 0.255425
H55   H     H_    0.848197 0.567678 0.706511 0.206406
H56   H     H_    0.626339 0.320246 0.901447 0.251868
H57   H     H_    0.802223 0.690296 0.728436 0.207326
H58   H     H_    0.614677 0.994373 0.164439 0.244664
H59   H     H_    0.633817 0.091684 0.317137 0.317708
H60   H     H_    0.677587 0.967714 0.261089 0.244752
H61   H     H_    0.626347 0.874462 0.443850 0.204606
H62   H     H_    0.584599 0.822516 0.295508 0.260661
H63   H     H_    0.324615 0.998583 0.730101 0.247155
H64   H     H_    0.375382 0.888832 0.677242 0.255439
H65   H     H_    0.386660 0.984968 0.835095 0.246577
H66   H     H_    0.416509 0.162534 0.718929 0.255831
H67   H     H_    0.648311 0.228627 0.041424 0.267161
H68   H     H_    0.374013 0.121550 0.568430 0.192923
H69   H     H_    0.682301 0.134611 0.712267 0.251464
H70   H     H_    0.647556 0.984297 0.669898 0.254037
H71   H     H_    0.677514 0.077851 0.534279 0.272309
H72   H     H_    0.607119 0.222969 0.555785 0.226369
H73   H     H_    0.585143 0.178349 0.724344 0.235568
H74   H     H_    0.358103 0.032336 0.338121 0.239180
H75   H     H_    0.321257 0.887872 0.279119 0.265168
H76   H     H_    0.322858 0.933027 0.460853 0.261407
H77   H     H_    0.414986 0.824762 0.277021 0.256090
H78   H     H_    0.578500 0.198049 0.968059 0.279925
H79   H     H_    0.391372 0.784988 0.446950 0.208457
H80   H     H_    0.581730 0.852645 0.762360 0.250067
H81   H     H_    0.589951 0.996689 0.867091 0.253012
H82   H     H_    0.555368 0.862704 0.938968 0.285350
H83   H     H_    0.491826 0.030683 0.852184 0.250023
H84   H     H_    0.472279 0.870228 0.807122 0.219359
H85   H     H_    0.414023 0.004802 0.133866 0.253336
H86   H     H_    0.426245 0.153239 0.228526 0.259151
H87   H     H_    0.452568 0.129643 0.053182 0.298773
H88   H     H_    0.534231 0.119435 0.190060 0.220932
H89   H     H_    0.623551 0.429458 0.141714 0.240502
H90   H     H_    0.510941 0.960442 0.150909 0.257505
N1    N     N_R   0.849438 0.451444 0.479185 -0.453997
N2    N     N_R   0.146725 0.516547 0.469205 -0.442005
N3    N     N_3   0.500040 0.499970 0.858290 -0.268957
N4    N     N_3   0.499960 0.500030 0.141710 -0.269189
O1    O     O_R   0.500030 0.316850 0.620870 -0.523373
O2    O     O_2   0.153462 0.302371 0.474544 -0.566037
O3    O     O_2   0.852486 0.257468 0.576748 -0.486424
O4    O     O_2   0.143657 0.732286 0.458681 -0.492806
O5    O     O_R   0.499970 0.683150 0.379130 -0.512158
O6    O     O_R   0.500000 0.316860 0.379090 -0.595536
O7    O     O_R   0.500000 0.683140 0.620910 -0.601919
O8    O     O_R   0.417890 0.499960 0.620920 -0.610711
O9    O     O_R   0.582110 0.500040 0.379080 -0.558432
O10   O     O_R   0.417870 0.499970 0.379140 -0.540155
O11   O     O_R   0.582130 0.500030 0.620860 -0.604994
O12   O     O_2   0.842677 0.638769 0.371408 -0.573720

loop_
_geom_bond_atom_site_label_1
_geom_bond_atom_site_label_2
_ccdc_geom_bond_type
C66   C68   S    
C55   H33   S    
C34   C56   A    
C51   H24   S    
C23   C45   A    
C64   H57   S    
C27   C29   A    
C70   H65   S    
C73   C74   S    
C79   H85   S    
C17   O11   A    
Cu1   N3    S    
C73   H79   S    
C19   F4    S    
C60   H44   S    
Cu1   Cu2   S    
C1    O1    A    
C47   H11   S    
C38   C49   S    
C53   C54   S    
C17   O9    A    
C59   H38   S    
C50   H16   S    
C71   H72   S    
C29   C36   A    
C33   C39   A    
C72   H71   S    
C47   H13   S    
C45   F5    S    
C27   N1    A    
C66   H62   S    
C22   N3    S    
C7    C71   S    
C74   H75   S    
C20   C40   S    
C11   C14   S    
C53   H29   S    
C56   F6    S    
C12   O7    A    
C18   N4    S    
C42   H89   S    
C54   H25   S    
C56   C78   A    
C27   O3    S    
C9    C66   S    
C17   C78   S    
C16   O10   A    
C39   C51   S    
C65   H52   S    
C7    C14   S    
C22   C44   S    
C20   C24   S    
C52   H19   S    
C28   C30   A    
C45   C67   A    
C58   H40   S    
C31   C33   A    
C37   F2    S    
C62   H51   S    
C48   H8    S    
C68   H60   S    
C53   H28   S    
C58   C80   S    
C57   H31   S    
C58   H39   S    
C21   C22   S    
C63   H49   S    
C79   H86   S    
C19   N3    S    
C43   H56   S    
C76   H81   S    
C2    C60   S    
C43   H67   S    
C3    C80   A    
C44   C46   S    
C23   C53   S    
C77   C79   S    
C21   N4    S    
C55   H35   S    
C18   F3    S    
C67   C80   A    
C24   N4    S    
C51   C52   S    
C69   H68   S    
C32   C35   A    
C79   H87   S    
C35   C38   A    
C70   H64   S    
C66   H61   S    
C73   H77   S    
C10   C14   S    
C74   H74   S    
C49   H17   S    
C46   H3    S    
C72   H70   S    
C12   O5    A    
C72   H69   S    
C6    C34   A    
C30   C37   A    
Cu2   O6    S    
C60   C61   S    
C42   H2    S    
C63   H47   S    
C2    C4    A    
C75   C76   S    
C5    N2    S    
C62   C63   S    
C48   H9    S    
C28   O4    S    
C65   H53   S    
C47   C48   S    
C5    C23   A    
C13   C15   S    
C7    C13   S    
C54   H27   S    
C41   H12   S    
C34   C55   S    
C16   C67   S    
C62   H50   S    
C76   H82   S    
C28   N2    A    
Cu1   O7    S    
C68   H59   S    
C16   O8    A    
C61   H42   S    
C57   H32   S    
C4    C6    A    
C40   C41   S    
C1    O6    A    
Cu2   O9    S    
C50   H14   S    
C77   H88   S    
C26   N2    A    
C9    C11   S    
C75   H83   S    
C43   H78   S    
C8    C10   S    
C1    C13   S    
C42   C43   S    
Cu1   O1    S    
C60   H46   S    
C68   H58   S    
C2    C78   A    
C3    C62   S    
C59   H36   S    
C7    C9    S    
Cu2   N4    S    
C71   H73   S    
C6    N1    S    
Cu2   O10   S    
C41   H1    S    
C18   C22   S    
C24   C47   S    
C31   C32   A    
C70   H63   S    
C69   H66   S    
C3    C5    A    
C10   C13   S    
C51   H22   S    
C11   C12   S    
C25   N1    A    
C49   H18   S    
C64   H55   S    
C61   H41   S    
C8    C15   S    
C40   H34   S    
C40   H45   S    
C4    C64   S    
C77   H90   S    
Cu2   O5    S    
C64   C65   S    
C74   H76   S    
C55   C57   S    
C19   C24   S    
C58   C59   S    
C71   C72   S    
C29   C31   A    
C44   H7    S    
C59   H37   S    
C14   C75   S    
C30   C32   A    
C65   H54   S    
C15   C77   S    
C46   H5    S    
C52   H21   S    
C8    C11   S    
C54   H26   S    
C36   C38   A    
C8    C73   S    
C76   H80   S    
C18   C20   S    
C48   H10   S    
C9    C15   S    
C69   C70   S    
Cu1   O8    S    
C44   H6    S    
C61   H43   S    
Cu1   O11   S    
C21   C42   S    
C10   C69   S    
C26   C35   A    
C50   H15   S    
C46   H4    S    
C52   H20   S    
C37   C39   A    
C49   C50   S    
C41   H23   S    
C75   H84   S    
C20   N3    S    
C63   H48   S    
C36   F1    S    
C25   O12   S    
C25   C33   A    
C57   H30   S    
C19   C21   S    
C26   O2    S    
