data_mof_unit_46287.cif
_audit_creation_date              2013-03-05T16:48:41-0500
_audit_creation_method            fapswitch 2.2
_symmetry_space_group_name_H-M    P1
_symmetry_Int_Tables_number       1
_space_group_crystal_system       triclinic
_cell_length_a                    27.856863
_cell_length_b                    8.936829
_cell_length_c                    8.073631
_cell_angle_alpha                 89.995197
_cell_angle_beta                  90.001548
_cell_angle_gamma                 90.000341
_cell_volume                      2009.94674729

loop_
_atom_site_label
_atom_site_type_symbol
_atom_site_description
_atom_site_fract_x
_atom_site_fract_y
_atom_site_fract_z
_atom_type_partial_charge
O1    O     O_R   0.500000 0.285350 0.636850 -0.613391
O2    O     O_R   0.500000 0.714650 0.363150 -0.613389
O3    O     O_R   0.500000 0.714650 0.636850 -0.613367
O4    O     O_R   0.500000 0.285350 0.363150 -0.613366
C1    C     C_R   0.499999 0.217862 0.500004 0.940113
C2    C     C_R   0.500000 0.782137 0.499996 0.940117
O5    O     O_R   0.428760 0.500000 0.636860 -0.613151
O6    O     O_R   0.571240 0.500000 0.363140 -0.613115
O7    O     O_R   0.571240 0.500000 0.636860 -0.613115
O8    O     O_R   0.428760 0.500000 0.363140 -0.613148
C3    C     C_R   0.405596 0.499997 0.499998 0.877175
C4    C     C_R   0.594409 0.500000 0.500002 0.877094
Zn1   Zn    Zn3+2 0.500000 0.500000 0.682780 1.026839
Zn2   Zn    Zn3+2 0.500000 0.500000 0.317220 1.026841
C5    C     C_R   0.176546 0.368360 0.525877 0.525643
C6    C     C_R   0.823470 0.631578 0.525825 0.525677
C7    C     C_R   0.176544 0.631572 0.474003 0.525647
C8    C     C_R   0.823468 0.368336 0.474189 0.525680
O9    O     O_2   0.201463 0.241252 0.553720 -0.529971
O10   O     O_2   0.798553 0.758707 0.553520 -0.529935
O11   O     O_2   0.201460 0.758683 0.446158 -0.529968
O12   O     O_2   0.798549 0.241208 0.446496 -0.529933
N1    N     N_R   0.200354 0.499968 0.499944 -0.354674
N2    N     N_R   0.799661 0.499958 0.500008 -0.354680
C9    C     C_R   0.276531 0.557723 0.636884 -0.010870
C10   C     C_R   0.723484 0.442571 0.637103 -0.010928
C11   C     C_R   0.276537 0.442225 0.363053 -0.010869
C12   C     C_R   0.723485 0.557365 0.362906 -0.010927
C13   C     C_R   0.326837 0.560800 0.636438 -0.092466
C14   C     C_R   0.673178 0.439608 0.636715 -0.092443
C15   C     C_R   0.326842 0.439155 0.363533 -0.092461
C16   C     C_R   0.673179 0.560362 0.363297 -0.092433
C17   C     C_R   0.251699 0.499975 0.499959 0.205634
C18   C     C_R   0.748317 0.499961 0.500004 0.205767
C19   C     C_R   0.101053 0.499962 0.499942 -0.053521
C20   C     C_R   0.898961 0.499957 0.499994 -0.053513
C21   C     C_R   0.126403 0.365243 0.522951 -0.021478
C22   C     C_R   0.873613 0.634686 0.522925 -0.021476
C23   C     C_R   0.126401 0.634683 0.476926 -0.021478
C24   C     C_R   0.873611 0.365227 0.477076 -0.021480
C25   C     C_R   0.101270 0.231246 0.543836 -0.125671
C26   C     C_R   0.898748 0.768681 0.543759 -0.125665
C27   C     C_R   0.101266 0.768675 0.456035 -0.125672
C28   C     C_R   0.898745 0.231231 0.456237 -0.125665
C29   C     C_R   0.352498 0.499986 0.499991 -0.151240
C30   C     C_R   0.647515 0.499992 0.500005 -0.151328
H1    H     H_    0.119980 0.126909 0.565867 0.189170
H2    H     H_    0.880039 0.873021 0.565759 0.189143
H3    H     H_    0.119975 0.873014 0.433989 0.189165
H4    H     H_    0.880034 0.126891 0.434252 0.189147
C31   C     C_R   0.974765 0.362288 0.491670 0.048688
C32   C     C_R   0.025249 0.637627 0.491595 0.048690
C33   C     C_R   0.974766 0.637626 0.508275 0.048690
C34   C     C_R   0.025249 0.362290 0.508317 0.048688
C35   C     C_R   0.949650 0.499957 0.499980 0.074507
C36   C     C_R   0.050365 0.499959 0.499951 0.074507
C37   C     C_R   0.948511 0.229407 0.464639 -0.217793
C38   C     C_R   0.051500 0.770504 0.464482 -0.217816
C39   C     C_R   0.948515 0.770506 0.535330 -0.217799
C40   C     C_R   0.051503 0.229413 0.535406 -0.217810
H5    H     H_    0.965786 0.123254 0.443211 0.134035
H6    H     H_    0.034223 0.876655 0.443026 0.134064
H7    H     H_    0.965791 0.876657 0.556756 0.134039
H8    H     H_    0.034229 0.123258 0.556857 0.134060
C41   C     C_1   0.499999 0.065155 0.500006 -0.170832
C42   C     C_1   0.499999 0.934845 0.499994 -0.170833
N3    N     N_1   0.500000 0.500000 0.073640 -0.015867
N4    N     N_1   0.500000 0.500000 0.926360 -0.015868
C43   C     C_1   0.351416 0.369115 0.225051 0.237410
N5    N     N_1   0.370854 0.313181 0.114459 -0.170186
C44   C     C_1   0.648618 0.629786 0.224391 0.237677
N6    N     N_1   0.629192 0.685206 0.113454 -0.170266
C45   C     C_1   0.351405 0.630804 0.774959 0.237414
N7    N     N_1   0.370837 0.686708 0.885587 -0.170186
C46   C     C_1   0.648614 0.370218 0.775632 0.237674
N8    N     N_1   0.629184 0.314828 0.886578 -0.170267
C47   C     C_1   0.249785 0.385905 0.221994 0.231299
N9    N     N_1   0.228415 0.340873 0.109621 -0.160369
C48   C     C_1   0.750250 0.613423 0.221741 0.231201
N10   N     N_1   0.771631 0.658256 0.109294 -0.160467
C49   C     C_1   0.249773 0.614025 0.777932 0.231283
N11   N     N_1   0.228398 0.659041 0.890299 -0.160371
C50   C     C_1   0.750247 0.386504 0.778272 0.231207
N12   N     N_1   0.771627 0.341664 0.890720 -0.160466

loop_
_geom_bond_atom_site_label_1
_geom_bond_atom_site_label_2
_geom_bond_distance
_ccdc_geom_bond_type
C38   H6    1.077751 S    
C10   C50   1.451121 S    
C45   N7    1.157771 T    
C19   C23   1.408071 A    
O3    C2    1.258758 A    
C49   N11   1.157368 T    
C33   C39   1.411652 A    
C34   C40   1.411668 A    
C47   N9    1.157360 T    
C11   C17   1.402493 A    
O5    C3    1.279579 A    
C7    N1    1.366386 A    
C2    C42   1.364720 S    
C21   C25   1.397358 A    
O1    C1    1.258789 A    
C19   C21   1.408075 A    
C22   C26   1.397348 A    
C13   C45   1.452780 S    
C7    C23   1.397309 A    
C12   C48   1.451121 S    
C8    C24   1.397302 A    
C5    C21   1.397303 A    
C20   C24   1.408074 A    
O7    Zn1   2.018863 S    
C27   C38   1.388097 A    
C10   C18   1.402402 A    
N1    C17   1.430291 S    
Zn2   N3    1.966575 S    
C31   C37   1.411655 A    
O3    Zn1   1.953772 S    
C6    O10   1.350043 S    
C5    N1    1.366387 A    
C12   C18   1.402409 A    
C6    N2    1.366372 A    
C9    C49   1.451112 S    
O2    C2    1.258789 A    
C16   C44   1.452783 S    
C33   C35   1.416940 A    
C9    C13   1.401636 A    
C34   C36   1.416952 A    
C11   C15   1.401630 A    
N3    N4    1.189084 T    
C12   C16   1.401641 A    
C4    C30   1.479372 S    
O8    Zn2   2.018866 S    
C27   H3    1.082936 S    
C23   C27   1.397360 A    
N2    C18   1.430263 S    
C13   C29   1.421295 A    
C5    O9    1.350054 S    
C46   N8    1.157708 T    
C15   C43   1.452786 S    
C50   N12   1.157338 T    
O5    Zn1   2.018846 S    
C28   C37   1.388102 A    
O6    C4    1.279636 A    
C25   H1    1.082934 S    
C26   H2    1.082918 S    
C32   C38   1.411662 A    
C1    C41   1.364720 S    
C10   C14   1.401640 A    
C8    N2    1.366371 A    
C3    C29   1.479144 S    
O1    Zn1   1.953834 S    
C32   C33   1.412723 A    
C28   H4    1.082914 S    
O6    Zn2   2.018844 S    
C19   C36   1.412003 A    
C8    O12   1.350046 S    
C16   C30   1.421388 A    
C14   C30   1.421408 A    
C25   C40   1.388095 A    
O4    C1    1.258758 A    
C11   C47   1.451115 S    
C26   C39   1.388097 A    
C37   H5    1.077733 S    
C39   H7    1.077732 S    
C40   H8    1.077751 S    
C31   C34   1.412735 A    
C20   C22   1.408073 A    
C44   N6    1.157711 T    
C20   C35   1.412031 A    
C14   C46   1.452790 S    
C31   C35   1.416941 A    
O4    Zn2   1.953773 S    
C43   N5    1.157766 T    
O2    Zn2   1.953833 S    
O7    C4    1.279642 A    
C7    O11   1.350054 S    
O8    C3    1.279582 A    
C48   N10   1.157349 T    
C24   C28   1.397345 A    
C41   C42   1.164559 T    
C15   C29   1.421309 A    
C9    C17   1.402500 A    
C32   C36   1.416949 A    
C6    C22   1.397302 A    
Zn1   N4    1.966575 S    
