data_mof_unit_10041.cif
_audit_creation_date              2012-12-10T18:59:15-0500
_audit_creation_method            fapswitch 2.2
_symmetry_space_group_name_H-M    P1
_symmetry_Int_Tables_number       1
_space_group_crystal_system       triclinic
_cell_length_a                    10.830191
_cell_length_b                    10.858543
_cell_length_c                    9.555153
_cell_angle_alpha                 90.002915
_cell_angle_beta                  88.622537
_cell_angle_gamma                 91.05193
_cell_volume                      1123.17276757

loop_
_atom_site_label
_atom_site_type_symbol
_atom_type_description
_atom_site_fract_x
_atom_site_fract_y
_atom_site_fract_z
_atom_type_partial_charge
C1    C     C_R   0.497354 0.262266 0.499744 0.916187
C2    C     C_R   0.056831 0.493685 0.635491 -0.011203
C3    C     C_R   0.127082 0.517491 0.509757 -0.048764
C4    C     C_R   0.066172 0.530213 0.383015 -0.170812
C5    C     C_R   0.939204 0.517577 0.379082 -0.209300
C6    C     C_R   0.871765 0.478821 0.498128 -0.055578
C7    C     C_R   0.475213 0.063066 0.623606 -0.012317
C8    C     C_R   0.484411 0.128908 0.498238 -0.337577
C9    C     C_R   0.474925 0.063465 0.371158 0.557486
C10   C     C_R   0.474167 0.935182 0.371290 0.514352
C11   C     C_R   0.483747 0.870381 0.498427 -0.387382
C12   C     C_R   0.262171 0.508749 0.502693 0.819296
C13   C     C_R   0.474629 0.936099 0.623737 0.136874
C14   C     C_3   0.551459 0.931200 0.751173 0.200491
C15   C     C_3   0.551943 0.071191 0.751225 -0.363767
C16   C     C_R   0.557276 0.593195 0.071913 0.204117
C17   C     C_R   0.432488 0.415982 0.077784 0.699895
C18   C     C_R   0.432163 0.414645 0.930006 0.342882
C19   C     C_R   0.556933 0.593573 0.924640 0.243517
C20   C     C_3   0.690335 0.629891 0.915706 -0.469299
C21   C     C_3   0.690584 0.628606 0.074283 -0.464017
C22   C     C_R   0.497247 0.737604 0.499784 0.870081
C23   C     C_R   0.737313 0.489762 0.498866 0.832728
C24   C     C_R   0.101203 0.510649 0.773441 0.430265
C25   C     C_R   0.040885 0.448844 0.885899 -0.312631
C26   C     C_R   0.935057 0.377974 0.863389 -0.255031
C27   C     C_R   0.879952 0.380132 0.733178 0.593872
C28   C     C_R   0.934513 0.449757 0.621957 -0.088612
Cu1   Cu    Cu3+1 0.499990 0.499980 0.640670 1.022045
Cu2   Cu    Cu3+1 0.500010 0.500020 0.359330 1.049204
H1    H     H_    0.116551 0.552107 0.286583 0.170254
H2    H     H_    0.643411 0.889428 0.732137 0.082614
H3    H     H_    0.500845 0.111885 0.841745 0.279436
H4    H     H_    0.645059 0.112183 0.729268 0.217385
H5    H     H_    0.748768 0.557726 0.868387 0.221596
H6    H     H_    0.705908 0.723207 0.870864 0.194420
H7    H     H_    0.747919 0.554110 0.116039 0.199154
H8    H     H_    0.706048 0.721176 0.121047 0.224966
H9    H     H_    0.075305 0.456417 0.991112 0.177741
H10   H     H_    0.891794 0.326675 0.949071 0.192729
H11   H     H_    0.894237 0.538215 0.282462 0.154036
N1    N     N_R   0.500790 0.500930 0.147930 -0.298212
N2    N     N_R   0.500790 0.500890 0.852020 -0.262241
O1    O     O_R   0.500000 0.319640 0.618810 -0.565449
O2    O     O_R   0.500010 0.319680 0.381230 -0.485608
O3    O     O_R   0.319640 0.499980 0.618820 -0.574568
O4    O     O_R   0.319650 0.500020 0.381230 -0.561044
O5    O     O_R   0.499990 0.680320 0.618770 -0.557309
O6    O     O_R   0.500000 0.680360 0.381190 -0.526583
O7    O     O_R   0.680350 0.499980 0.618770 -0.553374
O8    O     O_R   0.680360 0.500020 0.381180 -0.612276
F1    F     F_    0.362814 0.331722 0.150287 -0.564269
O9    O     O_3   0.363519 0.321718 0.870363 -0.678344
H12   H     H_    0.337880 0.348727 0.778112 0.369664
O10   O     O_3   0.191341 0.599027 0.798910 -0.683126
H13   H     H_    0.209463 0.599759 0.900186 0.321902
F2    F     F_    0.777109 0.309399 0.714786 -0.682936
F3    F     F_    0.474187 0.121992 0.245690 -0.561269
F4    F     F_    0.471479 0.876064 0.246071 -0.615987
O11   O     O_3   0.483912 0.880930 0.864930 -0.633505
H14   H     H_    0.539657 0.885787 0.945700 0.363201

loop_
_geom_bond_atom_site_label_1
_geom_bond_atom_site_label_2
_ccdc_geom_bond_type
C22   O5    A    
O10   H13   S    
C15   H4    S    
Cu1   Cu2   S    
C1    C8    S    
C14   O11   S    
C9    C10   A    
Cu2   O2    S    
C23   O8    A    
C19   C20   S    
Cu1   O3    S    
Cu2   O8    S    
C26   H10   S    
C20   C21   S    
C7    C15   S    
C17   C18   A    
C7    C8    A    
O9    H12   S    
C25   H9    S    
C24   O10   S    
C4    C5    A    
C11   C13   A    
C1    O2    A    
C26   C27   A    
C16   C21   S    
C12   O4    A    
C6    C23   S    
C17   F1    S    
Cu2   O6    S    
C19   N2    A    
C2    C3    A    
Cu2   N1    S    
Cu1   O7    S    
C22   O6    A    
Cu1   O1    S    
C2    C24   A    
C5    C6    A    
C6    C28   A    
C4    H1    S    
C10   C11   A    
Cu1   O5    S    
C3    C4    A    
C20   H6    S    
C16   N1    A    
Cu2   O4    S    
C7    C13   A    
C21   H7    S    
C24   C25   A    
C11   C22   S    
C12   O3    A    
C9    F3    S    
C27   F2    S    
C17   N1    A    
C18   N2    A    
C27   C28   A    
C5    H11   S    
C14   C15   S    
O11   H14   S    
C23   O7    A    
C2    C28   A    
C3    C12   S    
C1    O1    A    
C18   O9    S    
C25   C26   A    
C13   C14   S    
C20   H5    S    
C10   F4    S    
C15   H3    S    
Cu1   N2    S    
C21   H8    S    
C14   H2    S    
C8    C9    A    
C16   C19   A    
