data_mof_unit_7441.cif
_audit_creation_date              2013-03-05T15:49:44-0500
_audit_creation_method            fapswitch 2.2
_symmetry_space_group_name_H-M    P1
_symmetry_Int_Tables_number       1
_space_group_crystal_system       triclinic
_cell_length_a                    12.081593
_cell_length_b                    12.835974
_cell_length_c                    13.087818
_cell_angle_alpha                 86.226575
_cell_angle_beta                  113.674837
_cell_angle_gamma                 94.699137
_cell_volume                      1851.37577479

loop_
_atom_site_label
_atom_site_type_symbol
_atom_site_description
_atom_site_fract_x
_atom_site_fract_y
_atom_site_fract_z
_atom_type_partial_charge
O1    O     O_R   0.579910 0.341070 0.505280 -0.630067
O2    O     O_R   0.388440 0.353740 0.492580 -0.614541
C1    C     C_R   0.475436 0.300092 0.495979 0.938037
O3    O     O_R   0.643280 0.490550 0.663120 -0.625957
O4    O     O_R   0.451810 0.503220 0.650420 -0.608342
C2    C     C_R   0.567638 0.500712 0.708458 0.836142
Zn1   Zn    Zn3+2 0.627850 0.491540 0.508480 1.007845
Zn2   Zn    Zn3+2 0.372150 0.508460 0.491520 1.011595
O5    O     O_R   0.611560 0.646260 0.507420 -0.565395
O6    O     O_R   0.420090 0.658930 0.494720 -0.630497
O7    O     O_R   0.548190 0.496780 0.349580 -0.589596
O8    O     O_R   0.356720 0.509450 0.336880 -0.554819
C3    C     C_R   0.524033 0.700174 0.502585 0.816296
C4    C     C_R   0.432914 0.505296 0.290884 0.956756
C5    C     C_R   0.287740 0.621936 0.999781 -0.228004
H1    H     H_    0.302168 0.699368 0.811266 0.161650
H2    H     H_    0.212307 0.667781 0.947992 0.195123
C6    C     C_R   0.393414 0.521697 0.170194 -0.148916
C7    C     C_R   0.718389 0.455667 0.896297 -0.158666
C8    C     C_R   0.749587 0.441770 0.010359 -0.066658
C9    C     C_R   0.671897 0.471223 0.056662 -0.116868
C10   C     C_R   0.564411 0.521061 0.989562 0.108779
C11   C     C_R   0.544835 0.550815 0.878579 0.096561
C12   C     C_R   0.474407 0.540751 0.027826 0.102183
C13   C     C_R   0.378145 0.604161 0.962664 0.104480
C14   C     C_R   0.372591 0.647717 0.860552 -0.151265
C15   C     C_R   0.455132 0.621518 0.818824 -0.148300
C16   C     C_R   0.475304 0.495500 0.127405 -0.211030
C17   C     C_R   0.293504 0.580235 0.103248 0.290561
C18   C     C_R   0.613559 0.506572 0.829386 -0.126792
H3    H     H_    0.542154 0.441141 0.175799 0.165068
H4    H     H_    0.774004 0.423682 0.859965 0.175398
H5    H     H_    0.699492 0.456291 0.145288 0.162894
H6    H     H_    0.831216 0.403511 0.062216 0.188109
H7    H     H_    0.447926 0.657038 0.739263 0.156860
C19   C     C_R   0.541998 0.812149 0.509344 -0.165172
C20   C     C_R   0.455918 0.189466 0.485478 -0.188989
C21   C     C_R   0.355059 0.038771 0.380918 -0.195388
C22   C     C_R   0.357135 0.144537 0.397011 0.268304
C23   C     C_R   0.547247 0.129716 0.559102 -0.246240
C24   C     C_R   0.545398 0.023099 0.545414 0.112036
C25   C     C_R   0.448782 0.977163 0.452927 0.061929
C26   C     C_R   0.449432 0.871680 0.433110 -0.069634
C27   C     C_R   0.639508 0.856764 0.600709 -0.103634
C28   C     C_R   0.640975 0.963448 0.619270 -0.035564
H8    H     H_    0.281924 0.007782 0.308125 0.227649
H9    H     H_    0.622455 0.169172 0.624602 0.184601
N1    N     N_R   0.798200 0.480260 0.519790 -0.152948
N2    N     N_R   0.201820 0.519740 0.480210 -0.136816
C29   C     C_R   0.013018 0.603405 0.395103 -0.139352
C30   C     C_R   0.132652 0.592020 0.407681 0.003702
C31   C     C_R   0.155819 0.454807 0.543548 0.088055
C32   C     C_R   0.034576 0.461726 0.533695 0.012770
C33   C     C_R   0.963393 0.540249 0.462634 -0.057119
C34   C     C_R   0.846968 0.552744 0.464118 0.414452
C35   C     C_R   0.863770 0.400515 0.581696 -0.050021
C36   C     C_R   0.982398 0.391349 0.592058 -0.243461
H10   H     H_    0.824772 0.344789 0.625520 0.155610
H11   H     H_    0.031536 0.327590 0.644342 0.185904
H12   H     H_    0.170081 0.638993 0.356185 0.200050
N3    N     N_R   0.197270 0.596626 0.137203 0.197922
O9    O     O_R   0.142908 0.516658 0.167876 -0.343860
O10   O     O_R   0.145797 0.685308 0.112647 -0.367176
C37   C     C_2   0.731951 0.788932 0.682500 0.506639
H13   H     H_    0.704478 0.712670 0.708386 0.047700
O11   O     O_2   0.839599 0.816066 0.719042 -0.541273
C38   C     C_2   0.737498 0.009744 0.720341 0.415654
H14   H     H_    0.832029 0.006946 0.734526 0.136613
O12   O     O_2   0.711561 0.049243 0.789600 -0.545979
N4    N     N_R   0.263507 0.205706 0.318010 0.214126
O13   O     O_R   0.151353 0.168724 0.280855 -0.349086
O14   O     O_R   0.291551 0.288580 0.268605 -0.378106
N5    N     N_R   0.789267 0.648847 0.422993 0.218465
O15   O     O_R   0.841545 0.735574 0.471129 -0.382761
O16   O     O_R   0.690756 0.652178 0.332605 -0.350718
C39   C     C_2   0.942715 0.674336 0.302210 0.567217
H15   H     H_    0.982218 0.751094 0.291280 0.113357
O17   O     O_2   0.844890 0.644566 0.231959 -0.530542
C40   C     C_2   0.234402 0.379226 0.624477 0.449829
H16   H     H_    0.265657 0.314790 0.596160 0.091270
O18   O     O_2   0.262865 0.387682 0.724385 -0.565625
C41   C     C_2   0.355501 0.821049 0.332699 0.449651
H17   H     H_    0.383266 0.773726 0.282328 0.076838
O19   O     O_2   0.247701 0.825277 0.310882 -0.559508

loop_
_geom_bond_atom_site_label_1
_geom_bond_atom_site_label_2
_geom_bond_distance
_ccdc_geom_bond_type
N1    C34   1.381813 A    
C23   H9    1.083145 S    
C24   C25   1.421915 A    
C4    C6    1.460964 S    
C7    C8    1.387971 A    
C32   C33   1.413069 A    
C27   C37   1.492613 S    
Zn1   O7    1.908020 S    
C14   C15   1.386476 A    
C29   C33   1.431574 A    
C39   O17   1.219743 D    
C21   C25   1.409727 A    
C20   C23   1.386252 A    
C21   C22   1.384160 A    
O7    C4    1.302469 A    
C36   H11   1.081722 S    
C9    H5    1.078865 S    
C35   C36   1.398484 A    
Zn1   O5    2.010291 S    
N5    O15   1.301007 A    
N3    O10   1.301203 A    
O5    C3    1.289009 A    
N2    C30   1.354338 A    
C28   C38   1.487934 S    
N4    O13   1.301407 A    
C11   C15   1.413099 A    
C31   C40   1.473955 S    
C8    H6    1.082753 S    
C9    C10   1.418855 A    
N5    O16   1.299519 A    
O3    Zn1   1.955784 S    
C7    H4    1.083347 S    
C5    C17   1.400027 A    
H1    C14   1.083942 S    
C17   N3    1.435578 S    
C38   H14   1.084278 S    
C11   C18   1.407515 A    
C6    C16   1.389172 A    
C12   C13   1.417592 A    
C3    C19   1.439098 S    
O3    C2    1.292087 A    
C40   O18   1.221172 D    
C32   C36   1.414030 A    
C15   H7    1.082090 S    
C13   C14   1.392428 A    
O1    C1    1.288771 A    
C37   O11   1.220513 D    
C29   C39   1.476551 S    
Zn2   O8    1.955784 S    
N2    C31   1.376181 A    
C29   C30   1.406385 A    
C6    C17   1.414883 A    
C39   H15   1.085463 S    
C23   C24   1.389081 A    
C2    C18   1.456715 S    
O8    C4    1.292253 A    
C41   O19   1.221312 D    
C10   C12   1.412831 A    
C19   C27   1.412073 A    
C25   C26   1.396498 A    
C31   C32   1.427687 A    
N1    C35   1.356479 A    
C33   C34   1.436646 A    
O1    Zn1   1.968633 S    
C16   H3    1.078736 S    
O2    Zn2   2.010292 S    
C27   C28   1.403881 A    
C12   C16   1.387826 A    
O6    C3    1.289318 A    
O4    Zn2   1.908020 S    
C5    H2    1.084231 S    
Zn1   N1    2.019899 S    
O2    C1    1.287592 A    
C20   C22   1.401032 A    
C37   H13   1.084717 S    
O4    C2    1.298774 A    
C22   N4    1.436827 S    
C35   H10   1.081867 S    
N3    O9    1.301230 A    
C21   H8    1.078352 S    
C5    C13   1.400912 A    
C40   H16   1.080709 S    
C34   N5    1.431630 S    
C8    C9    1.391506 A    
C1    C20   1.426768 S    
Zn2   O6    1.968630 S    
C41   H17   1.086183 S    
C26   C41   1.493697 S    
C24   C28   1.415995 A    
C10   C11   1.406240 A    
C19   C26   1.404863 A    
N4    O14   1.300330 A    
C30   H12   1.081136 S    
C38   O12   1.221288 D    
C7    C18   1.402657 A    
Zn2   N2    2.019659 S    
