data_mof_unit_29480.cif
_audit_creation_date              2012-12-10T18:44:09-0500
_audit_creation_method            fapswitch 2.2
_symmetry_space_group_name_H-M    P1
_symmetry_Int_Tables_number       1
_space_group_crystal_system       triclinic
_cell_length_a                    18.124816
_cell_length_b                    18.123592
_cell_length_c                    22.121271
_cell_angle_alpha                 114.262119
_cell_angle_beta                  114.229755
_cell_angle_gamma                 89.951748
_cell_volume                      5916.81281226

loop_
_atom_site_label
_atom_site_type_symbol
_atom_type_description
_atom_site_fract_x
_atom_site_fract_y
_atom_site_fract_z
_atom_type_partial_charge
Br1   Br    Br    0.406424 0.638600 0.455024 -0.520663
Br2   Br    Br    0.593576 0.361400 0.544976 -0.520671
Br3   Br    Br    0.670976 0.625512 0.060782 -0.489352
Br4   Br    Br    0.329024 0.374488 0.939218 -0.489285
Br5   Br    Br    0.432385 0.610449 0.619693 -0.386313
Br6   Br    Br    0.567614 0.389551 0.380306 -0.386308
Br7   Br    Br    0.952392 0.183396 0.063633 -0.529209
Br8   Br    Br    0.047787 0.816672 0.936378 -0.528786
C1    C     C_R   0.349762 0.349766 0.699471 0.831125
C2    C     C_1   0.889466 0.889242 0.778724 -0.104067
C3    C     C_3   0.081746 0.009195 0.024502 0.378991
C4    C     C_3   0.918241 0.990791 0.975510 0.378788
C5    C     C_3   0.036260 0.037478 0.073457 -0.179760
C6    C     C_3   0.963732 0.962493 0.926547 -0.179683
C7    C     C_1   0.077053 0.077590 0.154563 0.181258
C8    C     C_1   0.922945 0.922394 0.845440 0.181192
C9    C     C_3   0.037896 0.503912 0.566646 0.605611
C10   C     C_3   0.962104 0.496088 0.433354 0.605614
C11   C     C_3   0.943549 0.478414 0.518472 -0.319649
C12   C     C_R   0.650238 0.650234 0.300529 0.831124
C13   C     C_3   0.056451 0.521586 0.481528 -0.319649
C14   C     C_3   0.949198 0.551469 0.500584 -0.103424
C15   C     C_3   0.050802 0.448531 0.499416 -0.103421
C16   C     C_R   0.150267 0.150305 0.300609 0.807006
C17   C     C_R   0.849733 0.849696 0.699392 0.807000
C18   C     C_3   0.043663 0.577793 0.550113 -0.268583
C19   C     C_3   0.956337 0.422207 0.449887 -0.268583
C20   C     C_3   0.569589 0.551064 0.024629 0.342445
C21   C     C_3   0.430412 0.448936 0.975371 0.342444
C22   C     C_3   0.550670 0.456885 0.975152 -0.229681
C23   C     C_3   0.562894 0.539600 0.567352 0.419939
C24   C     C_3   0.449330 0.543114 0.024848 -0.229678
C25   C     C_1   0.389552 0.389574 0.778891 -0.095700
C26   C     C_1   0.610448 0.610426 0.221109 -0.095704
C27   C     C_3   0.482570 0.557621 0.975281 -0.224460
C28   C     C_3   0.517430 0.442379 0.024719 -0.224464
C29   C     C_3   0.463559 0.463543 0.926811 0.068301
C30   C     C_3   0.536441 0.536456 0.073189 0.068303
C31   C     C_1   0.422995 0.423003 0.845667 0.027098
C32   C     C_1   0.577005 0.576997 0.154333 0.027099
C33   C     C_3   0.077486 0.008240 0.551512 -0.274872
C34   C     C_3   0.437105 0.460400 0.432648 0.419939
C35   C     C_3   0.922514 0.991760 0.448487 -0.274890
C36   C     C_3   0.021805 0.927625 0.483246 0.613159
C37   C     C_3   0.978194 0.072375 0.516753 0.613161
C38   C     C_3   0.948486 0.949102 0.499835 -0.099396
C39   C     C_3   0.051513 0.050898 0.500165 -0.099398
C40   C     C_R   0.391718 0.108469 0.499963 0.923551
C41   C     C_R   0.608282 0.891531 0.500037 0.923551
C42   C     C_3   0.003009 0.030454 0.568370 -0.326437
C43   C     C_3   0.996991 0.969546 0.431630 -0.326451
C44   C     C_3   0.529918 0.063925 0.567140 0.459794
C45   C     C_3   0.024998 0.046673 0.975710 0.376130
C46   C     C_3   0.470083 0.936075 0.432861 0.459774
C47   C     C_3   0.573042 0.038871 0.516864 0.448711
C48   C     C_3   0.426959 0.961130 0.483136 0.448732
C49   C     C_3   0.551095 0.948534 0.500510 -0.211661
C50   C     C_3   0.448906 0.051466 0.499490 -0.211654
C51   C     C_3   0.507620 0.973567 0.551805 -0.446122
C52   C     C_3   0.492380 0.026433 0.448195 -0.446171
C53   C     C_R   0.108235 0.391620 0.499982 0.868816
C54   C     C_R   0.891765 0.608380 0.500018 0.868816
C55   C     C_R   0.108361 0.108432 0.500184 0.864636
C56   C     C_3   0.974987 0.953287 0.024296 0.376243
C57   C     C_R   0.891638 0.891568 0.499816 0.864629
C58   C     C_R   0.391546 0.391795 0.500126 0.957031
C59   C     C_R   0.608454 0.608205 0.499874 0.957036
C60   C     C_3   0.471922 0.544453 0.548973 0.185232
C61   C     C_3   0.528077 0.455547 0.451027 0.185234
C62   C     C_3   0.459780 0.555152 0.479934 0.106313
C63   C     C_3   0.540220 0.444848 0.520066 0.106314
C64   C     C_3   0.551167 0.550573 0.499012 -0.309204
C65   C     C_3   0.448833 0.449427 0.500988 -0.309202
C66   C     C_3   0.111224 0.846072 0.454385 -0.255487
C67   C     C_3   0.978980 0.075280 0.024182 0.062165
C68   C     C_3   0.888764 0.153923 0.545597 -0.255487
C69   C     C_3   0.653790 0.152988 0.537858 -0.205474
C70   C     C_3   0.346207 0.847012 0.462137 -0.205299
C71   C     C_3   0.625892 0.125856 0.690018 -0.232545
C72   C     C_3   0.374159 0.874189 0.309968 -0.232415
C73   C     C_3   0.635621 0.558341 0.688241 -0.157816
C74   C     C_3   0.364378 0.441659 0.311758 -0.157820
C75   C     C_3   0.101194 0.165537 0.998010 -0.179491
C76   C     C_3   0.898470 0.834736 0.002166 -0.181916
C77   C     C_3   0.803531 0.009816 0.997389 -0.183549
C78   C     C_3   0.021026 0.924697 0.975832 0.062269
C79   C     C_3   0.196492 0.990329 0.002655 -0.182085
C80   C     C_3   0.057883 0.560056 0.687509 -0.235360
C81   C     C_3   0.942119 0.439947 0.312492 -0.235382
C82   C     C_1   0.110534 0.110751 0.221278 -0.104031
H1    H     H_    0.592179 0.421660 0.954123 0.180741
H2    H     H_    0.485016 0.048890 0.406715 0.199302
H3    H     H_    0.897172 0.462560 0.534185 0.180241
H4    H     H_    0.102828 0.537440 0.465815 0.180240
H5    H     H_    0.078113 0.641805 0.591399 0.186705
H6    H     H_    0.921887 0.358195 0.408601 0.186702
H7    H     H_    0.166108 0.889374 0.505715 0.168742
H8    H     H_    0.101733 0.859791 0.407406 0.157825
H9    H     H_    0.124358 0.782909 0.439902 0.200953
H10   H     H_    0.898227 0.140172 0.592554 0.157803
H11   H     H_    0.833884 0.110640 0.494251 0.168751
H12   H     H_    0.407821 0.578340 0.045877 0.180748
H13   H     H_    0.875644 0.217091 0.560101 0.200949
H14   H     H_    0.630003 0.193914 0.576174 0.210183
H15   H     H_    0.617840 0.147705 0.481212 0.191178
H16   H     H_    0.718424 0.182747 0.558611 0.177219
H17   H     H_    0.382160 0.852295 0.518782 0.191128
H18   H     H_    0.369989 0.806083 0.423818 0.210209
H19   H     H_    0.281573 0.817257 0.441389 0.177201
H20   H     H_    0.676461 0.111602 0.673497 0.181740
H21   H     H_    0.607941 0.077443 0.702793 0.170915
H22   H     H_    0.650398 0.184893 0.741799 0.194444
H23   H     H_    0.531519 0.395361 0.045642 0.183288
H24   H     H_    0.392239 0.922469 0.297114 0.170963
H25   H     H_    0.323630 0.888663 0.326514 0.181646
H26   H     H_    0.349538 0.815106 0.258226 0.194447
H27   H     H_    0.672322 0.509092 0.684829 0.192122
H28   H     H_    0.574127 0.535591 0.681102 0.168738
H29   H     H_    0.668679 0.610021 0.745020 0.185615
H30   H     H_    0.425872 0.464409 0.318898 0.168743
H31   H     H_    0.327677 0.490908 0.315171 0.192122
H32   H     H_    0.331320 0.389978 0.254980 0.185613
H33   H     H_    0.146053 0.163328 0.049518 0.181597
H34   H     H_    0.468481 0.604639 0.954358 0.183290
H35   H     H_    0.064439 0.213202 0.011422 0.211824
H36   H     H_    0.137634 0.185096 0.975378 0.185287
H37   H     H_    0.934647 0.787118 0.987051 0.211901
H38   H     H_    0.852275 0.837816 0.951616 0.182216
H39   H     H_    0.863581 0.814481 0.025624 0.186071
H40   H     H_    0.801311 0.075568 0.010826 0.210452
H41   H     H_    0.841317 0.003944 0.048907 0.181304
H42   H     H_    0.739561 0.976760 0.974555 0.179965
H43   H     H_    0.158649 0.996100 0.951099 0.181384
H44   H     H_    0.198855 0.924612 0.989289 0.210060
H45   H     H_    0.141466 0.015213 0.592874 0.184700
H46   H     H_    0.260412 0.023497 0.025479 0.179838
H47   H     H_    0.991049 0.542403 0.670304 0.154307
H48   H     H_    0.073020 0.624186 0.696194 0.161803
H49   H     H_    0.092882 0.559185 0.741682 0.210705
H50   H     H_    0.926987 0.375816 0.303807 0.161794
H51   H     H_    0.008954 0.457604 0.329697 0.154315
H52   H     H_    0.907119 0.440817 0.258318 0.210697
H53   H     H_    0.858534 0.984786 0.407126 0.184693
H54   H     H_    0.003692 0.054503 0.623587 0.173598
H55   H     H_    0.996308 0.945497 0.376413 0.173596
H56   H     H_    0.514980 0.951108 0.593283 0.199308
O1    O     O_3   0.250010 0.250010 0.500010 -0.523174
O2    O     O_R   0.893710 0.832180 0.664370 -0.638823
O3    O     O_R   0.332200 0.393690 0.664400 -0.622273
O4    O     O_R   0.667800 0.606310 0.335600 -0.622271
O5    O     O_R   0.229300 0.167820 0.335610 -0.622252
O6    O     O_R   0.770700 0.832180 0.664390 -0.622245
O7    O     O_R   0.358130 0.123520 0.543120 -0.605160
O8    O     O_R   0.641870 0.876480 0.456880 -0.605173
O9    O     O_R   0.080390 0.314990 0.456920 -0.648430
O10   O     O_R   0.919610 0.685010 0.543080 -0.648425
O11   O     O_R   0.185040 0.123520 0.543150 -0.648114
O12   O     O_3   0.749990 0.749990 0.499990 -0.523173
O13   O     O_R   0.814960 0.876480 0.456850 -0.648116
O14   O     O_R   0.358080 0.419590 0.543080 -0.628128
O15   O     O_R   0.641920 0.580410 0.456920 -0.628128
O16   O     O_R   0.080420 0.141920 0.456950 -0.617293
O17   O     O_R   0.919580 0.858080 0.543050 -0.617292
O18   O     O_R   0.376490 0.315000 0.456880 -0.591817
O19   O     O_R   0.623510 0.685000 0.543120 -0.591816
O20   O     O_3   0.040067 0.847929 0.465679 -0.597021
O21   O     O_3   0.959934 0.152071 0.534324 -0.597023
O22   O     O_3   0.653544 0.074486 0.536194 -0.628283
O23   O     O_R   0.376520 0.141930 0.456900 -0.653070
O24   O     O_3   0.346454 0.925514 0.463800 -0.628254
O25   O     O_3   0.557002 0.135536 0.635473 -0.604068
O26   O     O_3   0.442983 0.864459 0.364530 -0.604098
O27   O     O_3   0.631123 0.587430 0.636967 -0.575986
O28   O     O_3   0.368877 0.412570 0.363032 -0.575990
O29   O     O_3   0.048298 0.088855 0.942965 -0.594274
O30   O     O_3   0.951865 0.911156 0.057168 -0.593840
O31   O     O_3   0.831057 0.975224 0.942518 -0.589210
O32   O     O_3   0.168932 0.024870 0.057506 -0.589043
O33   O     O_3   0.081748 0.503494 0.635916 -0.598117
O34   O     O_R   0.623480 0.858070 0.543100 -0.653069
O35   O     O_3   0.918252 0.496505 0.364083 -0.598115
O36   O     O_R   0.184990 0.419580 0.543110 -0.606642
O37   O     O_R   0.815010 0.580420 0.456890 -0.606643
O38   O     O_R   0.332220 0.270690 0.664420 -0.624605
O39   O     O_R   0.667780 0.729310 0.335580 -0.624611
O40   O     O_R   0.106290 0.167820 0.335630 -0.638821
Zn1   Zn    Zn3+2 0.307090 0.219220 0.438420 1.025772
Zn2   Zn    Zn3+2 0.692910 0.780780 0.561580 1.025773
Zn3   Zn    Zn3+2 0.280820 0.192930 0.561610 1.022036
Zn4   Zn    Zn3+2 0.719180 0.807070 0.438390 1.022019
Zn5   Zn    Zn3+2 0.131340 0.219220 0.438450 1.002484
Zn6   Zn    Zn3+2 0.868660 0.780780 0.561550 1.002483
Zn7   Zn    Zn3+2 0.280790 0.368660 0.561580 1.041267
Zn8   Zn    Zn3+2 0.719210 0.631340 0.438420 1.041268

loop_
_geom_bond_atom_site_label_1
_geom_bond_atom_site_label_2
_ccdc_geom_bond_type
C76   H38   S    
C55   O16   A    
C13   C18   S    
O2    Zn6   S    
C75   O29   S    
Br6   C61   S    
C10   C13   S    
C79   H43   S    
C35   H53   S    
C79   H44   S    
C34   C62   S    
O6    Zn2   S    
O18   Zn1   S    
C12   O4    A    
C58   O14   A    
O39   Zn4   S    
C66   H8    S    
C46   C52   S    
C69   O22   S    
O5    Zn1   S    
C21   C28   S    
C1    O3    A    
C53   O36   A    
O12   Zn8   S    
C71   H22   S    
C17   O6    A    
C26   C32   T    
C9    C18   S    
C70   H18   S    
C69   H16   S    
C27   C29   S    
C21   C24   S    
O12   Zn4   S    
C77   H42   S    
C39   C55   S    
C4    C56   S    
C49   C51   S    
C13   H4    S    
C43   H55   S    
C3    C78   S    
C50   C52   S    
C81   H52   S    
C73   H27   S    
C76   H39   S    
C70   O24   S    
O37   Zn8   S    
C41   C49   S    
C68   O21   S    
C16   O40   A    
C59   C64   S    
C37   C39   S    
C71   O25   S    
O40   Zn5   S    
C61   C63   S    
O4    Zn8   S    
C44   C51   S    
O34   Zn2   S    
O3    Zn7   S    
C54   O37   A    
C18   H5    S    
C5    C67   S    
C20   C27   S    
O1    Zn5   S    
O17   Zn6   S    
C24   C30   S    
Br7   C67   S    
C56   O30   S    
C11   C19   S    
C74   H31   S    
Br8   C78   S    
Br4   C21   S    
C11   H3    S    
C44   C47   S    
C57   O13   A    
C41   O34   A    
C12   C26   S    
C59   O19   A    
C76   H37   S    
C23   C63   S    
C4    O31   S    
O8    Zn4   S    
C47   C52   S    
C1    C25   S    
O13   Zn4   S    
C19   H6    S    
C45   C67   S    
C47   O22   S    
C75   H35   S    
Br5   C60   S    
C28   H23   S    
C53   O9    A    
C44   O25   S    
C56   C78   S    
O16   Zn5   S    
C42   H54   S    
C66   H7    S    
C52   H2    S    
C23   C60   S    
C46   C48   S    
O19   Zn2   S    
C54   O10   A    
C24   C27   S    
C74   O28   S    
C41   O8    A    
C12   O39   A    
C11   C14   S    
O23   Zn1   S    
C38   C57   S    
C34   O28   S    
C63   C65   S    
O7    Zn3   S    
C36   C38   S    
C10   O35   S    
O1    Zn1   S    
C60   C65   S    
C58   C65   S    
C73   H28   S    
C34   C61   S    
C22   C29   S    
O12   Zn2   S    
C70   H17   S    
C73   O27   S    
C9    O33   S    
C61   C64   S    
C80   H49   S    
C47   C49   S    
C16   O5    A    
O12   Zn6   S    
C77   H40   S    
C14   C54   S    
C35   C37   S    
C59   O15   A    
C9    C15   S    
C72   H25   S    
C20   C30   S    
C81   H50   S    
C80   H48   S    
C57   O17   A    
C33   C39   S    
C58   O18   A    
O36   Zn7   S    
C25   C31   T    
C37   O21   S    
C6    C78   S    
C6    C45   S    
C44   C50   S    
C74   H30   S    
O10   Zn6   S    
C36   C43   S    
C77   O31   S    
C23   C64   S    
C40   O7    A    
C72   H24   S    
C15   C19   S    
C13   C15   S    
C33   C36   S    
C6    C8    S    
Br3   C20   S    
C72   O26   S    
C75   H36   S    
Br2   C63   S    
C33   C42   S    
C33   H45   S    
C45   O29   S    
C80   O33   S    
C46   O26   S    
C23   O27   S    
C68   H11   S    
C73   H29   S    
C27   H34   S    
C34   C65   S    
C71   H20   S    
C48   O24   S    
C10   C14   S    
C79   H46   S    
C72   H26   S    
C10   C19   S    
C4    C6    S    
C22   H1    S    
C16   C82   S    
C39   C43   S    
C40   C50   S    
C66   H9    S    
C22   C28   S    
C68   H10   S    
C68   H13   S    
C38   C42   S    
O9    Zn5   S    
Br1   C62   S    
C48   C51   S    
C71   H21   S    
C5    C7    S    
C20   C22   S    
C29   C31   S    
C1    O38   A    
C2    C8    T    
C77   H41   S    
C7    C82   T    
C30   C32   S    
C3    C5    S    
C35   C43   S    
C5    C56   S    
C37   C42   S    
O1    Zn3   S    
C81   H51   S    
C28   C30   S    
C9    C11   S    
C48   C50   S    
O15   Zn8   S    
O1    Zn7   S    
C70   H19   S    
C24   H12   S    
C69   H15   S    
C35   C38   S    
O11   Zn3   S    
C80   H47   S    
C2    C17   S    
C36   O20   S    
C40   O23   A    
C51   H56   S    
C15   C53   S    
C66   O20   S    
C60   C62   S    
C14   C18   S    
C4    C67   S    
C21   C29   S    
C55   O11   A    
O38   Zn3   S    
C69   H14   S    
C62   C64   S    
C75   H33   S    
C76   O30   S    
C17   O2    A    
C3    O32   S    
C74   H32   S    
C81   O35   S    
O14   Zn7   S    
C79   O32   S    
C46   C49   S    
C3    C45   S    
