data_mof_unit_16703.cif
_audit_creation_date              2012-12-10T18:09:28-0500
_audit_creation_method            fapswitch 2.2
_symmetry_space_group_name_H-M    P1
_symmetry_Int_Tables_number       1
_space_group_crystal_system       triclinic
_cell_length_a                    15.891691
_cell_length_b                    16.094968
_cell_length_c                    9.92922
_cell_angle_alpha                 90.245904
_cell_angle_beta                  89.938977
_cell_angle_gamma                 90.205763
_cell_volume                      2539.61757165

loop_
_atom_site_label
_atom_site_type_symbol
_atom_type_description
_atom_site_fract_x
_atom_site_fract_y
_atom_site_fract_z
_atom_type_partial_charge
C1    C     C_R   0.120116 0.378886 0.500047 0.939801
C2    C     C_R   0.121346 0.619847 0.499501 0.882815
C3    C     C_R   0.620925 0.879649 0.499564 0.921698
C4    C     C_R   0.621504 0.119778 0.499869 0.867632
C5    C     C_3   0.086499 0.485160 0.078442 0.410075
C6    C     C_3   0.087385 0.511576 0.922968 0.363249
C7    C     C_3   0.587058 0.013046 0.078119 0.393618
C8    C     C_3   0.586943 0.987204 0.922040 0.365239
C9    C     C_R   0.879262 0.383634 0.500563 0.851518
C10   C     C_R   0.879577 0.616833 0.499564 0.842698
C11   C     C_R   0.379381 0.883364 0.499431 0.849188
C12   C     C_R   0.379336 0.116595 0.500920 0.839046
C13   C     C_3   0.819066 0.258208 0.627749 0.130185
C14   C     C_3   0.815967 0.264772 0.370522 0.127464
C15   C     C_3   0.813349 0.734761 0.630621 0.129080
C16   C     C_3   0.821040 0.743523 0.373466 0.137094
C17   C     C_3   0.314021 0.764976 0.629348 0.120113
C18   C     C_3   0.321351 0.756385 0.372499 0.133667
C19   C     C_3   0.318846 0.243066 0.628102 0.125189
C20   C     C_3   0.312690 0.233665 0.371140 0.110911
C21   C     C_3   0.241410 0.699967 0.634434 0.106124
C22   C     C_3   0.262454 0.678844 0.384259 0.108001
C23   C     C_3   0.258601 0.318873 0.615104 0.055406
C24   C     C_3   0.239818 0.297712 0.364105 0.088300
C25   C     C_3   0.758965 0.181763 0.615731 0.094342
C26   C     C_3   0.744989 0.198479 0.363552 0.105887
C27   C     C_3   0.741154 0.799850 0.635678 0.072129
C28   C     C_3   0.761300 0.820067 0.385409 0.092934
C29   C     C_3   0.722733 0.353141 0.510262 -0.585855
C30   C     C_3   0.722909 0.646946 0.485170 -0.669414
C31   C     C_3   0.222663 0.852358 0.487865 -0.542248
C32   C     C_3   0.222291 0.145708 0.515167 -0.676883
C33   C     C_3   0.811927 0.315640 0.502455 -0.193733
C34   C     C_3   0.812076 0.684785 0.497397 -0.157259
C35   C     C_3   0.312055 0.815134 0.497174 -0.192445
C36   C     C_3   0.311189 0.183979 0.503880 -0.142125
C37   C     C_3   0.193030 0.691183 0.496640 -0.308753
C38   C     C_3   0.190855 0.306627 0.501295 -0.198395
C39   C     C_3   0.692910 0.191659 0.499256 -0.308813
C40   C     C_3   0.692358 0.808037 0.498015 -0.221985
C41   C     C_3   0.155272 0.781262 0.464131 0.695982
C42   C     C_3   0.152916 0.216419 0.527988 0.692516
C43   C     C_3   0.653525 0.282386 0.519764 0.723369
C44   C     C_3   0.654545 0.718016 0.466859 0.703331
C45   C     C_3   0.965602 0.579685 0.083453 0.734369
C46   C     C_3   0.948479 0.570503 0.920882 0.556540
C47   C     C_3   0.945140 0.432159 0.080624 0.557611
C48   C     C_3   0.962210 0.421790 0.917281 0.681999
C49   C     C_3   0.446937 0.068925 0.083984 0.666216
C50   C     C_3   0.462828 0.078422 0.920583 0.575015
C51   C     C_3   0.463276 0.921141 0.081370 0.604600
C52   C     C_3   0.447030 0.930653 0.916774 0.610123
Cu1   Cu    Cu3+1 0.000100 0.500000 0.642410 1.091124
Cu2   Cu    Cu3+1 0.000100 0.500000 0.357590 1.123506
Cu3   Cu    Cu3+1 0.500100 0.000000 0.642410 1.133094
Cu4   Cu    Cu3+1 0.500100 1.000000 0.357590 1.167812
H1    H     H_    0.797159 0.294781 0.715937 0.113167
H2    H     H_    0.805861 0.307901 0.284616 0.128272
H3    H     H_    0.802459 0.691075 0.715642 0.151658
H4    H     H_    0.799255 0.707720 0.284047 0.154563
H5    H     H_    0.303977 0.808269 0.715428 0.116681
H6    H     H_    0.298785 0.791879 0.284006 0.154487
H7    H     H_    0.297370 0.207257 0.717035 0.114759
H8    H     H_    0.303672 0.189904 0.285384 0.128151
H9    H     H_    0.196096 0.722916 0.709770 0.136178
H10   H     H_    0.231228 0.673864 0.285935 0.177119
H11   H     H_    0.225666 0.322785 0.712074 0.178585
H12   H     H_    0.194692 0.272836 0.289392 0.194830
H13   H     H_    0.724820 0.178589 0.711941 0.168459
H14   H     H_    0.702836 0.221365 0.284681 0.149799
H15   H     H_    0.695991 0.776834 0.710809 0.149481
H16   H     H_    0.729404 0.824195 0.287446 0.208963
H17   H     H_    0.718243 0.396881 0.597119 0.205539
H18   H     H_    0.712266 0.392367 0.419616 0.220653
H19   H     H_    0.709770 0.608108 0.575300 0.193446
H20   H     H_    0.721191 0.602758 0.398628 0.219573
H21   H     H_    0.209104 0.888824 0.580858 0.175542
H22   H     H_    0.220264 0.898298 0.404363 0.244668
H23   H     H_    0.219110 0.102236 0.601919 0.216786
H24   H     H_    0.210590 0.106233 0.424579 0.219457
N1    N     N_3   0.001260 0.500000 0.143650 -0.305198
N2    N     N_3   0.001260 0.500000 0.856350 -0.348340
N3    N     N_3   0.501260 1.000000 0.143650 -0.266701
N4    N     N_3   0.501260 0.000000 0.856350 -0.290397
O1    O     O_R   0.091250 0.408820 0.620260 -0.501061
O2    O     O_R   0.091250 0.408820 0.379740 -0.500292
O3    O     O_R   0.091250 0.591180 0.620260 -0.558657
O4    O     O_R   0.091250 0.591180 0.379740 -0.537230
O5    O     O_R   0.591250 0.908820 0.620260 -0.508428
O6    O     O_R   0.591250 0.908820 0.379740 -0.502151
O7    O     O_R   0.591250 0.091180 0.620260 -0.570601
O8    O     O_R   0.591250 0.091180 0.379740 -0.529381
O9    O     O_R   0.908940 0.408800 0.620260 -0.510459
O10   O     O_R   0.908940 0.408800 0.379740 -0.576161
O11   O     O_R   0.908940 0.591200 0.620260 -0.643173
O12   O     O_R   0.908940 0.591200 0.379740 -0.520911
O13   O     O_R   0.408940 0.908800 0.620260 -0.514829
O14   O     O_R   0.408940 0.908800 0.379740 -0.500319
O15   O     O_R   0.408940 0.091200 0.620260 -0.535299
O16   O     O_R   0.408940 0.091200 0.379740 -0.525593
Br1   Br    Br    0.933714 0.231902 0.683510 -0.266386
Br2   Br    Br    0.929045 0.222550 0.339595 -0.250514
Br3   Br    Br    0.925728 0.779402 0.666149 -0.252135
Br4   Br    Br    0.936353 0.770202 0.320544 -0.286439
Br5   Br    Br    0.426349 0.720433 0.660437 -0.250206
Br6   Br    Br    0.437098 0.731707 0.318634 -0.295517
Br7   Br    Br    0.432655 0.271549 0.685611 -0.259496
Br8   Br    Br    0.424117 0.280306 0.342003 -0.251973
Br9   Br    Br    0.283804 0.598597 0.710601 -0.189405
Br10  Br    Br    0.328134 0.578866 0.398134 -0.156801
Br11  Br    Br    0.322784 0.419723 0.598572 -0.145674
Br12  Br    Br    0.281900 0.398577 0.284952 -0.199927
Br13  Br    Br    0.823562 0.081122 0.602908 -0.169800
Br14  Br    Br    0.788623 0.097896 0.285658 -0.198297
Br15  Br    Br    0.783947 0.901280 0.713680 -0.174149
Br16  Br    Br    0.826254 0.920486 0.401717 -0.163705
O17   O     O_3   0.084210 0.797185 0.542513 -0.607797
H25   H     H_    0.101976 0.807522 0.636719 0.329577
O18   O     O_3   0.131267 0.787288 0.327940 -0.643619
H26   H     H_    0.101923 0.735542 0.301880 0.383721
O19   O     O_3   0.113734 0.214457 0.655459 -0.630508
H27   H     H_    0.155100 0.199713 0.725796 0.321382
O20   O     O_3   0.092213 0.199317 0.430940 -0.641244
H28   H     H_    0.067716 0.144091 0.453285 0.402473
O21   O     O_3   0.611823 0.286481 0.644621 -0.612589
H29   H     H_    0.652541 0.298516 0.717610 0.317046
O22   O     O_3   0.594373 0.301563 0.420401 -0.594515
H30   H     H_    0.584196 0.252497 0.362768 0.348514
O23   O     O_3   0.585620 0.701850 0.549953 -0.617814
H31   H     H_    0.605488 0.687226 0.641335 0.335546
O24   O     O_3   0.626226 0.716299 0.332593 -0.652220
H32   H     H_    0.601907 0.660351 0.315124 0.391881
O25   O     O_3   0.020870 0.645370 0.115972 -0.673363
H33   H     H_    0.997836 0.697992 0.080169 0.389125
O26   O     O_3   0.962740 0.648439 0.863062 -0.688242
H34   H     H_    0.993406 0.640988 0.778451 0.406540
O27   O     O_3   0.957251 0.356189 0.145328 -0.638173
H35   H     H_    0.914641 0.316827 0.108961 0.332388
O28   O     O_3   0.015003 0.354453 0.884958 -0.630297
H36   H     H_    0.990747 0.302802 0.922640 0.363448
O29   O     O_3   0.463968 0.144518 0.149736 -0.632406
H37   H     H_    0.435252 0.189459 0.099568 0.348217
O30   O     O_3   0.515480 0.146980 0.896468 -0.687314
H38   H     H_    0.523080 0.150858 0.798632 0.412327
O31   O     O_3   0.517305 0.854851 0.113882 -0.632474
H39   H     H_    0.493856 0.802064 0.078772 0.357416
O32   O     O_3   0.463279 0.855478 0.850250 -0.639285
H40   H     H_    0.427533 0.811936 0.891777 0.306124
O33   O     O_3   0.887781 0.599433 0.142862 -0.650016
H41   H     H_    0.866486 0.651089 0.100638 0.355019
O34   O     O_3   0.861145 0.555905 0.904466 -0.631484
H42   H     H_    0.848041 0.546428 0.808903 0.382910
O35   O     O_3   0.858480 0.450900 0.097296 -0.672730
H43   H     H_    0.845492 0.457945 0.193658 0.381017
O36   O     O_3   0.883717 0.404982 0.857665 -0.655321
H44   H     H_    0.860128 0.353986 0.899201 0.323421
O37   O     O_3   0.360858 0.051442 0.109709 -0.636179
H45   H     H_    0.326647 0.102096 0.096011 0.320555
O38   O     O_3   0.384660 0.096655 0.861602 -0.636387
H46   H     H_    0.367217 0.152320 0.894383 0.319305
O39   O     O_3   0.384857 0.903497 0.140676 -0.625793
H47   H     H_    0.364780 0.849235 0.105359 0.292487
O40   O     O_3   0.360920 0.948471 0.891875 -0.630845
H48   H     H_    0.325454 0.898564 0.906682 0.318835
Br17  Br    Br    0.178047 0.541942 0.162926 -0.259404
Br18  Br    Br    0.132806 0.626709 0.902569 -0.380616
Br19  Br    Br    0.124777 0.368158 0.102187 -0.309228
Br20  Br    Br    0.178153 0.452808 0.841433 -0.241328
Br21  Br    Br    0.629860 0.128399 0.103931 -0.318032
Br22  Br    Br    0.677821 0.045910 0.839781 -0.275752
Br23  Br    Br    0.677956 0.954976 0.160829 -0.235261
Br24  Br    Br    0.628534 0.871377 0.898081 -0.306954

loop_
_geom_bond_atom_site_label_1
_geom_bond_atom_site_label_2
_ccdc_geom_bond_type
C16   C28   S    
C7    N3    S    
Cu3   Cu4   S    
C6    Br18  S    
O37   H45   S    
C6    N2    S    
C7    Br23  S    
Cu1   O11   S    
O32   H40   S    
C24   Br12  S    
Cu4   O14   S    
C49   O37   S    
C43   O21   S    
C14   C33   S    
C18   Br6   S    
O39   H47   S    
C50   N4    S    
C7    C8    S    
C45   C46   S    
C44   O24   S    
C31   H22   S    
C11   O14   A    
C32   C36   S    
C38   C42   S    
C25   Br13  S    
C19   C36   S    
C5    C6    S    
C26   C39   S    
C14   Br2   S    
C13   H1    S    
C51   O31   S    
O30   H38   S    
C29   C33   S    
C30   H20   S    
Cu2   O4    S    
C16   H4    S    
C23   H11   S    
C47   O27   S    
C52   N4    S    
C22   H10   S    
C12   O15   A    
Cu3   O7    S    
C28   Br16  S    
C17   H5    S    
C46   O26   S    
C46   N2    S    
O29   H37   S    
C16   Br4   S    
C27   Br15  S    
C20   C24   S    
C19   H7    S    
C22   Br10  S    
C49   O29   S    
C24   C38   S    
O34   H42   S    
C2    O4    A    
C5    Br17  S    
C12   C36   S    
O26   H34   S    
C18   C35   S    
C15   C34   S    
Cu2   O12   S    
C4    O7    A    
C16   C34   S    
Cu4   O6    S    
C46   O34   S    
C8    N4    S    
C29   C43   S    
C9    C33   S    
C30   C44   S    
C28   H16   S    
C8    Br22  S    
C42   O20   S    
O31   H39   S    
C1    O1    A    
C14   H2    S    
C6    Br20  S    
C12   O16   A    
C30   C34   S    
Cu1   O9    S    
C51   C52   S    
C47   C48   S    
O20   H28   S    
C5    Br19  S    
Cu1   O3    S    
C43   O22   S    
Cu2   O2    S    
C18   H6    S    
C39   C43   S    
C29   H18   S    
C47   O35   S    
C44   O23   S    
Cu1   Cu2   S    
C22   C37   S    
C17   C21   S    
Cu1   N2    S    
C20   H8    S    
C51   N3    S    
C19   C23   S    
C14   C26   S    
C26   Br14  S    
C13   C33   S    
C17   Br5   S    
C32   H24   S    
C5    N1    S    
C15   C27   S    
O38   H46   S    
C4    C39   S    
C10   O12   A    
C27   C40   S    
O18   H26   S    
Cu3   O13   S    
C21   C37   S    
C2    O3    A    
C10   C34   S    
C41   O18   S    
O19   H27   S    
C1    C38   S    
C48   O36   S    
C3    C40   S    
C52   O32   S    
C7    Br21  S    
O21   H29   S    
C26   H14   S    
C31   C35   S    
C25   H13   S    
Cu4   O16   S    
C13   Br1   S    
O22   H30   S    
C9    O9    A    
C27   H15   S    
C50   O30   S    
Cu4   N3    S    
O23   H31   S    
C1    O2    A    
C31   H21   S    
C32   C42   S    
C31   C41   S    
C48   O28   S    
C21   H9    S    
C18   C22   S    
C15   H3    S    
C45   N1    S    
C13   C25   S    
C21   Br9   S    
O28   H36   S    
C50   O38   S    
C23   C38   S    
C23   Br11  S    
O27   H35   S    
C45   O25   S    
C11   O13   A    
C3    O5    A    
C15   Br3   S    
C49   N3    S    
C11   C35   S    
Cu3   N4    S    
Cu3   O5    S    
O33   H41   S    
C25   C39   S    
C32   H23   S    
C3    O6    A    
C30   H19   S    
C2    C37   S    
O25   H33   S    
C10   O11   A    
C48   N2    S    
C51   O39   S    
C45   O33   S    
C47   N1    S    
C37   C41   S    
Cu2   O10   S    
O40   H48   S    
C24   H12   S    
C52   O40   S    
C20   C36   S    
C8    Br24  S    
C40   C44   S    
C29   H17   S    
C49   C50   S    
Cu3   O15   S    
O36   H44   S    
C28   C40   S    
Cu1   O1    S    
C17   C35   S    
C41   O17   S    
O35   H43   S    
O17   H25   S    
Cu4   O8    S    
C9    O10   A    
Cu2   N1    S    
O24   H32   S    
C42   O19   S    
C20   Br8   S    
C4    O8    A    
C19   Br7   S    
