data_mof_unit_14384.cif
_audit_creation_date              2012-12-11T15:09:48-0500
_audit_creation_method            fapswitch 2.2
_symmetry_space_group_name_H-M    P1
_symmetry_Int_Tables_number       1
_space_group_crystal_system       triclinic
_cell_length_a                    21.053581
_cell_length_b                    7.129399
_cell_length_c                    14.104525
_cell_angle_alpha                 90.442191
_cell_angle_beta                  98.817394
_cell_angle_gamma                 89.277942
_cell_volume                      2091.85857361

loop_
_atom_site_label
_atom_site_type_symbol
_atom_type_description
_atom_site_fract_x
_atom_site_fract_y
_atom_site_fract_z
_atom_type_partial_charge
O1    O     O_R   0.447130 0.507140 0.597350 -0.522030
O2    O     O_R   0.552870 0.007140 0.402650 -0.550026
O3    O     O_R   0.578910 0.181280 0.586990 -0.543512
O4    O     O_R   0.421090 0.681280 0.413010 -0.529816
C1    C     C_R   0.604588 0.343981 0.607124 0.736318
C2    C     C_R   0.395109 0.844850 0.393694 0.760802
O5    O     O_R   0.449230 0.177860 0.608640 -0.544728
O6    O     O_R   0.550770 0.677860 0.391360 -0.525581
O7    O     O_R   0.422260 0.000770 0.424450 -0.528538
O8    O     O_R   0.577740 0.500770 0.575550 -0.520549
C3    C     C_R   0.432398 0.346689 0.633486 0.784728
C4    C     C_R   0.568115 0.844741 0.367455 0.799400
O9    O     O_3   0.491310 0.336980 0.439550 -0.376927
O10   O     O_3   0.508690 0.836980 0.560450 -0.373071
V1    V     V_3+5 0.501610 0.064760 0.511210 1.566362
V2    V     V_3+5 0.498390 0.564760 0.488790 1.609510
C5    C     C_R   0.613614 0.904992 0.123391 0.217258
C6    C     C_R   0.380812 0.394185 0.876934 0.214862
C7    C     C_R   0.606508 0.850713 0.289898 -0.207580
C8    C     C_R   0.391485 0.355496 0.708797 -0.205112
C9    C     C_R   0.917666 0.855797 0.302061 0.113138
C10   C     C_R   0.079841 0.369347 0.696031 0.112329
C11   C     C_R   0.880424 0.861433 0.376909 -0.017608
C12   C     C_R   0.117243 0.381359 0.621686 -0.026201
C13   C     C_R   0.813483 0.869198 0.354648 -0.184278
C14   C     C_R   0.184168 0.381860 0.644738 -0.184454
C15   C     C_R   0.781105 0.861343 0.259496 0.104491
C16   C     C_R   0.216316 0.346861 0.738363 0.101734
C17   C     C_R   0.818107 0.880329 0.183812 -0.044264
C18   C     C_R   0.179160 0.349009 0.814858 -0.044703
C19   C     C_R   0.712190 0.854122 0.238455 -0.001186
C20   C     C_R   0.285251 0.332581 0.758658 -0.004027
C21   C     C_R   0.681213 0.907383 0.145700 -0.013029
C22   C     C_R   0.315488 0.343305 0.855356 -0.016768
C23   C     C_R   0.718151 0.969553 0.078374 0.143381
C24   C     C_R   0.278763 0.311524 0.928212 0.152995
C25   C     C_R   0.784457 0.932793 0.092133 -0.071797
C26   C     C_R   0.212403 0.338702 0.910677 -0.081451
C27   C     C_R   0.672538 0.801281 0.306913 -0.072806
C28   C     C_R   0.325581 0.309395 0.686851 -0.066864
C29   C     C_R   0.576699 0.901356 0.197444 -0.112375
C30   C     C_R   0.419108 0.398616 0.803728 -0.111304
C31   C     C_R   0.887201 0.865865 0.205669 -0.127749
C32   C     C_R   0.110406 0.359873 0.792365 -0.128300
H1    H     H_    0.786884 0.889342 0.413524 0.157286
H2    H     H_    0.210819 0.414513 0.587795 0.164293
C33   C     C_1   0.166006 0.856384 0.169878 -0.076370
C34   C     C_1   0.834513 0.359020 0.828675 -0.101482
C35   C     C_1   0.218247 0.854557 0.221413 0.078378
C36   C     C_1   0.782058 0.356190 0.777722 0.069200
C37   C     C_1   0.279947 0.853984 0.281529 0.060339
C38   C     C_1   0.720014 0.353266 0.718522 0.063923
C39   C     C_1   0.332412 0.852102 0.332480 -0.136089
C40   C     C_1   0.667326 0.350017 0.668201 -0.130350
O11   O     O_R   0.922300 0.202240 0.924350 -0.532149
O12   O     O_R   0.077700 0.702240 0.075650 -0.530632
O13   O     O_R   0.050780 0.535130 0.891350 -0.529293
O14   O     O_R   0.949220 0.035130 0.108650 -0.525674
C41   C     C_R   0.069067 0.367503 0.867635 0.731807
C42   C     C_R   0.929418 0.869751 0.130791 0.739363
O15   O     O_R   0.921100 0.531560 0.912990 -0.530327
O16   O     O_R   0.078900 0.031560 0.087010 -0.527003
O17   O     O_R   0.947120 0.708470 0.097370 -0.530385
O18   O     O_R   0.052880 0.208470 0.902630 -0.534884
C43   C     C_R   0.896749 0.364113 0.891265 0.796561
C44   C     C_R   0.103849 0.863176 0.107225 0.786328
O19   O     O_3   0.008710 0.375800 0.060400 -0.377076
O20   O     O_3   0.991290 0.875800 0.939600 -0.382188
V3    V     V_3+5 0.998380 0.648080 0.988790 1.556504
V4    V     V_3+5 0.001620 0.148080 0.011210 1.555260
C45   C     C_2   0.506509 0.939972 0.175842 0.848133
O21   O     O_2   0.486626 0.073125 0.125183 -0.491696
O22   O     O_R   0.463191 0.823267 0.211878 -0.663721
H3    H     H_    0.416847 0.861755 0.189588 0.310485
C46   C     C_2   0.489317 0.432203 0.828101 0.830785
O23   O     O_2   0.520822 0.347819 0.894833 -0.489750
O24   O     O_R   0.519599 0.557577 0.774348 -0.654352
H4    H     H_    0.567711 0.563172 0.796237 0.307551
I1    I     I_    0.679603 0.183145 0.975676 -0.242580
I2    I     I_    0.317628 0.162184 0.056019 -0.260476
I3    I     I_    0.566354 0.835732 0.981696 -0.182238
I4    I     I_    0.415761 0.535684 0.009412 -0.172333
C47   C     C_2   0.696976 0.673423 0.387899 0.738995
O25   O     O_2   0.684470 0.703956 0.468517 -0.569796
O26   O     O_R   0.735518 0.519009 0.371395 -0.642912
H5    H     H_    0.749742 0.442978 0.431531 0.308397
C48   C     C_2   0.302551 0.205283 0.596121 0.733887
O27   O     O_2   0.315264 0.260245 0.519317 -0.564589
O28   O     O_R   0.265148 0.045314 0.599100 -0.646204
H6    H     H_    0.251913 0.987112 0.533329 0.306718
I5    I     I_    0.020881 0.862705 0.332875 -0.312652
I6    I     I_    0.976588 0.383596 0.666225 -0.307987
C49   C     C_2   0.909230 0.861588 0.479991 0.884333
O29   O     O_2   0.958128 0.771032 0.507656 -0.508320
O30   O     O_R   0.878589 0.960111 0.546632 -0.655496
H7    H     H_    0.902006 0.947470 0.614711 0.313400
C50   C     C_2   0.088963 0.393498 0.518425 0.895504
O31   O     O_2   0.038393 0.316141 0.487971 -0.505715
O32   O     O_R   0.122398 0.485501 0.454380 -0.655671
H8    H     H_    0.100011 0.477148 0.385545 0.314537
C51   C     C_2   0.817074 0.995984 0.015317 0.772088
O33   O     O_2   0.830961 0.161071 0.014433 -0.548489
O34   O     O_R   0.826835 0.873481 0.940916 -0.652750
H9    H     H_    0.845242 0.937292 0.887508 0.295579
C52   C     C_2   0.185228 0.411763 0.993594 0.773019
O35   O     O_2   0.181849 0.581344 0.004463 -0.555889
O36   O     O_R   0.168078 0.290483 0.062257 -0.643050
H10   H     H_    0.152490 0.359946 0.117477 0.297242

loop_
_geom_bond_atom_site_label_1
_geom_bond_atom_site_label_2
_ccdc_geom_bond_type
C37   C39   T    
C48   O27   D    
C49   O29   D    
C15   C17   A    
O22   H3    S    
O30   H7    S    
O1    C3    A    
O2    C4    A    
C2    O7    A    
C50   O31   D    
C33   C35   T    
O26   H5    S    
O5    C3    A    
C52   O36   S    
C18   C26   A    
C41   O18   A    
C51   O33   D    
C42   O17   A    
C28   C48   S    
C23   C25   A    
C12   C14   A    
C6    C30   A    
C8    C28   A    
O13   C41   A    
C32   C41   S    
O14   C42   A    
O16   V4    S    
C23   I1    S    
C50   O32   S    
C9    C31   A    
C10   C32   A    
O17   V3    S    
O20   V3    S    
C35   C37   S    
C36   C38   S    
O36   H10   S    
C19   C21   A    
O18   V4    S    
C34   C43   S    
C33   C44   S    
C5    I3    S    
C29   C45   S    
C34   C36   T    
C51   O34   S    
C17   C31   A    
C18   C32   A    
C5    C21   A    
C6    I4    S    
O11   C43   A    
C38   C40   T    
C3    C8    S    
O16   C44   A    
C15   C19   A    
C12   C50   S    
C1    C40   S    
C16   C20   A    
O4    C2    A    
C24   I2    S    
C45   O22   S    
O14   V4    S    
O24   H4    S    
C11   C49   S    
O19   V3    S    
C20   C22   A    
O4    V2    S    
C46   O23   D    
C6    C22   A    
C47   O25   D    
O6    C4    A    
C30   C46   S    
O1    V2    S    
O2    V1    S    
C46   O24   S    
C7    C27   A    
C31   C42   S    
O20   V4    S    
C47   O26   S    
C9    C11   A    
C10   C12   A    
C2    C39   S    
C24   C26   A    
C13   H1    S    
O3    V1    S    
C9    I5    S    
O15   V3    S    
O3    C1    A    
C8    C30   A    
C13   C15   A    
C52   O35   D    
C14   C16   A    
O32   H8    S    
O19   V4    S    
C26   C52   S    
C16   C18   A    
O7    V1    S    
C27   C47   S    
C1    O8    A    
O8    V2    S    
C25   C51   S    
C49   O30   S    
O12   C44   A    
C4    C7    S    
O5    V1    S    
C21   C23   A    
C19   C27   A    
C22   C24   A    
C20   C28   A    
C5    C29   A    
O11   V4    S    
C14   H2    S    
O15   C43   A    
C45   O21   D    
C11   C13   A    
O6    V2    S    
O12   V3    S    
O9    V2    S    
C17   C25   A    
O34   H9    S    
C48   O28   S    
C10   I6    S    
O10   V1    S    
O13   V3    S    
O28   H6    S    
C7    C29   A    
