data_mof_unit_41516.cif
_audit_creation_date              2013-03-05T15:52:08-0500
_audit_creation_method            fapswitch 2.2
_symmetry_space_group_name_H-M    P1
_symmetry_Int_Tables_number       1
_space_group_crystal_system       triclinic
_cell_length_a                    6.957958
_cell_length_b                    19.601852
_cell_length_c                    23.412787
_cell_angle_alpha                 96.1648
_cell_angle_beta                  91.158292
_cell_angle_gamma                 88.686073
_cell_volume                      3173.43625551

loop_
_atom_site_label
_atom_site_type_symbol
_atom_site_description
_atom_site_fract_x
_atom_site_fract_y
_atom_site_fract_z
_atom_type_partial_charge
O1    O     O_R   0.617180 0.809390 0.808140 -0.557552
O2    O     O_R   0.382820 0.190610 0.191860 -0.557545
O3    O     O_R   0.293300 0.672410 0.795490 -0.572862
O4    O     O_R   0.706700 0.327590 0.204510 -0.572862
O5    O     O_R   0.117220 0.690610 0.691850 -0.583774
O6    O     O_R   0.882780 0.309390 0.308150 -0.583772
C1    C     C_R   0.464754 0.647902 0.805054 1.022826
C2    C     C_R   0.535246 0.352098 0.194946 1.022821
O7    O     O_R   0.287840 0.807750 0.814460 -0.548443
O8    O     O_R   0.712160 0.192250 0.185540 -0.548468
O9    O     O_R   0.111720 0.826910 0.710960 -0.579435
O10   O     O_R   0.888280 0.173090 0.289040 -0.579440
C3    C     C_R   0.456496 0.830853 0.833108 1.033209
C4    C     C_R   0.543504 0.169146 0.166892 1.033243
O11   O     O_R   0.622680 0.673080 0.789040 -0.594246
O12   O     O_R   0.377320 0.326920 0.210960 -0.594249
O13   O     O_3   0.448820 0.756130 0.716020 -0.286936
O14   O     O_3   0.551180 0.243870 0.283980 -0.286931
V1    V     V_3+5 0.176220 0.748860 0.756300 1.242719
V2    V     V_3+5 0.823780 0.251140 0.243700 1.242710
O15   O     O_R   0.781670 0.827580 0.704500 -0.587943
O16   O     O_R   0.218330 0.172420 0.295500 -0.587933
C5    C     C_R   0.947848 0.851733 0.693812 1.025603
C6    C     C_R   0.052153 0.148267 0.306187 1.025556
O17   O     O_R   0.787130 0.692240 0.685530 -0.582853
O18   O     O_R   0.212870 0.307760 0.314470 -0.582854
C7    C     C_R   0.956103 0.669235 0.666793 0.934352
C8    C     C_R   0.043897 0.330765 0.333207 0.934357
V3    V     V_3+5 0.675510 0.751130 0.743690 1.215530
V4    V     V_3+5 0.324490 0.248870 0.256310 1.215545
O19   O     O_3   0.952780 0.743870 0.783980 -0.240248
O20   O     O_3   0.047220 0.256130 0.216020 -0.240259
C9    C     C_1   0.966634 0.617178 0.614737 -0.301318
C10   C     C_1   0.033366 0.382822 0.385263 -0.301321
C11   C     C_1   0.978197 0.573664 0.571920 0.080936
C12   C     C_1   0.021803 0.426336 0.428080 0.080936
C13   C     C_1   0.993423 0.521861 0.521316 0.021730
C14   C     C_1   0.006577 0.478139 0.478684 0.021730
C15   C     C_R   0.945093 0.915380 0.664528 -0.281673
C16   C     C_R   0.054917 0.084620 0.335473 -0.281665
C17   C     C_R   0.838708 0.033563 0.661763 -0.166956
C18   C     C_R   0.161431 0.966452 0.338250 -0.166982
C19   C     C_R   0.869773 0.976999 0.692754 0.335659
C20   C     C_R   0.130356 0.023014 0.307259 0.335725
C21   C     C_R   0.995551 0.912864 0.606283 -0.237037
C22   C     C_R   0.004385 0.087128 0.393711 -0.237013
C23   C     C_R   0.967301 0.970685 0.574324 0.144391
C24   C     C_R   0.032683 0.029314 0.425676 0.144391
C25   C     C_R   0.879803 0.030781 0.602850 -0.070673
C26   C     C_R   0.120253 0.969226 0.397157 -0.070663
C27   C     C_R   0.019600 0.970477 0.514987 0.029147
C28   C     C_R   0.980377 0.029521 0.485012 0.029147
C29   C     C_R   0.886764 0.086552 0.514965 -0.279990
C30   C     C_R   0.113243 0.913450 0.485039 -0.279965
C31   C     C_R   0.836179 0.087738 0.572424 0.353272
C32   C     C_R   0.163878 0.912271 0.427584 0.353285
H1    H     H_    0.844663 0.131146 0.494301 0.168241
H2    H     H_    0.155360 0.868860 0.505706 0.168233
C33   C     C_R   0.484675 0.587088 0.836521 -0.252080
C34   C     C_R   0.515325 0.412912 0.163479 -0.252077
C35   C     C_R   0.565074 0.466322 0.833257 -0.122233
C36   C     C_R   0.434925 0.533678 0.166743 -0.122240
C37   C     C_R   0.550402 0.525980 0.806400 -0.204270
C38   C     C_R   0.449597 0.474020 0.193600 -0.204270
C39   C     C_R   0.442655 0.589499 0.895606 0.272999
C40   C     C_R   0.557346 0.410501 0.104394 0.272996
C41   C     C_R   0.487748 0.530964 0.925701 -0.034579
C42   C     C_R   0.512252 0.469036 0.074299 -0.034578
C43   C     C_R   0.532294 0.468072 0.892167 0.136496
C44   C     C_R   0.467705 0.531929 0.107833 0.136503
C45   C     C_R   0.490767 0.531616 0.987222 0.072644
C46   C     C_R   0.509234 0.468384 0.012778 0.072643
C47   C     C_R   0.514336 0.406719 0.975857 -0.076799
C48   C     C_R   0.485665 0.593281 0.024143 -0.076802
C49   C     C_R   0.537966 0.406766 0.917249 -0.187703
C50   C     C_R   0.462034 0.593235 0.082752 -0.187712
H3    H     H_    0.555622 0.358052 0.891019 0.154551
H4    H     H_    0.444379 0.641948 0.108982 0.154545
H5    H     H_    0.604629 0.418660 0.807970 0.143023
H6    H     H_    0.395370 0.581340 0.192030 0.143018
H7    H     H_    0.498917 0.357293 0.991059 0.182230
H8    H     H_    0.501085 0.642707 0.008941 0.182228
C51   C     C_1   0.467252 0.882915 0.885161 -0.197840
C52   C     C_1   0.532748 0.117085 0.114839 -0.197817
C53   C     C_1   0.478695 0.926406 0.928002 0.128572
C54   C     C_1   0.521304 0.073594 0.071998 0.128574
C55   C     C_1   0.493586 0.978162 0.978659 0.047545
C56   C     C_1   0.506414 0.021838 0.021341 0.047540
N1    N     N_R   0.732907 0.146987 0.598574 0.235584
O21   O     O_R   0.787155 0.208213 0.590332 -0.370410
O22   O     O_R   0.566122 0.139880 0.621165 -0.375555
N2    N     N_R   0.267205 0.853030 0.401442 0.235578
O23   O     O_R   0.212955 0.791799 0.409668 -0.370405
O24   O     O_R   0.434028 0.860150 0.378879 -0.375564
H9    H     H_    0.951052 0.135966 0.413226 0.122667
H10   H     H_    0.048786 0.864017 0.586758 0.122661
N3    N     N_R   0.178168 0.017064 0.247261 0.229270
O25   O     O_R   0.076596 0.049518 0.211049 -0.404345
O26   O     O_R   0.312615 0.974128 0.227559 -0.371954
N4    N     N_R   0.822081 0.982963 0.752763 0.229275
O27   O     O_R   0.923568 0.950447 0.788951 -0.404367
O28   O     O_R   0.687875 0.025980 0.772500 -0.371912
H11   H     H_    0.783999 0.080550 0.684756 0.208402
H12   H     H_    0.216225 0.919475 0.315262 0.208380
N5    N     N_R   0.667326 0.352977 0.078245 0.217355
O29   O     O_R   0.609532 0.290590 0.080076 -0.443121
O30   O     O_R   0.829802 0.362913 0.054153 -0.380923
N6    N     N_R   0.332677 0.647024 0.921756 0.217353
O31   O     O_R   0.170198 0.637089 0.945846 -0.380923
O32   O     O_R   0.390473 0.709411 0.919924 -0.443120
H13   H     H_    0.418229 0.476192 0.238925 0.134765
H14   H     H_    0.581770 0.523807 0.761075 0.134767

loop_
_geom_bond_atom_site_label_1
_geom_bond_atom_site_label_2
_geom_bond_distance
_ccdc_geom_bond_type
C40   C42   1.435138 A    
C55   C56   1.247257 T    
C47   C49   1.385401 A    
C29   C31   1.395087 A    
C4    C52   1.504987 S    
O4    C2    1.300052 A    
V1    O19   1.705266 S    
N3    O25   1.301509 A    
C23   C25   1.420894 A    
C7    C9    1.505027 S    
C16   C22   1.410460 A    
N5    O30   1.301376 A    
O9    V1    1.991732 S    
C48   C50   1.385404 A    
C36   H6    1.084023 S    
C11   C13   1.479135 S    
C52   C54   1.247149 T    
O3    C1    1.300054 A    
V2    O20   1.705266 S    
C9    C11   1.247159 T    
C54   C56   1.479215 S    
O12   V4    1.998401 S    
O13   V3    1.697764 S    
N6    O31   1.301376 A    
C36   C44   1.399170 A    
C47   H7    1.075750 S    
C37   H14   1.083881 S    
C35   C37   1.386791 A    
O7    C3    1.316815 A    
N4    O27   1.301502 A    
C36   C38   1.386792 A    
C6    C16   1.486301 S    
O5    C7    1.310958 A    
C17   C25   1.409363 A    
O6    C8    1.310959 A    
C22   H9    1.076815 S    
O8    V2    1.857596 S    
C39   C41   1.435136 A    
O3    V1    1.990057 S    
O14   V4    1.697764 S    
N1    O22   1.301517 A    
C39   N6    1.436298 S    
O14   V2    2.149622 S    
C15   C21   1.410457 A    
C24   C26   1.420909 A    
C34   C40   1.415279 A    
C2    O12   1.293403 A    
C17   C19   1.399290 A    
C18   C20   1.399265 A    
C48   H8    1.075749 S    
C1    C33   1.469664 S    
N3    O26   1.301609 A    
O7    V1    1.857596 S    
O11   V3    1.998400 S    
C22   C24   1.431483 A    
C21   C23   1.431465 A    
O17   V3    1.858478 S    
C30   C32   1.395077 A    
C53   C55   1.479217 S    
C27   C28   1.434829 A    
C19   N4    1.442065 S    
O8    C4    1.316816 A    
C29   H1    1.075794 S    
C38   H13   1.083882 S    
C15   C19   1.408474 A    
C1    O11   1.293403 A    
C25   C31   1.411593 A    
O15   V3    2.001668 S    
C26   C32   1.411593 A    
C17   H11   1.081076 S    
C41   C43   1.420120 A    
C13   C14   1.247182 T    
C20   N3    1.442039 S    
C16   C20   1.408457 A    
C42   C46   1.438802 A    
O10   V2    1.991732 S    
C32   N2    1.437642 S    
O1    V3    1.838267 S    
C49   H3    1.084314 S    
C18   C26   1.409361 A    
C42   C44   1.420117 A    
C51   C53   1.247149 T    
O18   V4    1.858479 S    
O15   C5    1.298438 A    
C44   C50   1.392470 A    
O16   C6    1.298433 A    
O1    C3    1.311776 A    
C40   N5    1.436298 S    
C28   C29   1.408007 A    
N4    O28   1.301597 A    
C30   H2    1.075802 S    
C35   C43   1.399169 A    
O10   C6    1.302321 A    
O16   V4    2.001671 S    
O18   C8    1.316099 A    
C50   H4    1.084311 S    
C46   C47   1.408692 A    
C18   H12   1.081080 S    
C45   C48   1.408691 A    
C23   C27   1.442759 A    
O5    V1    1.837280 S    
O17   C7    1.316100 A    
O6    V2    1.837278 S    
N5    O29   1.301368 A    
C3    C51   1.504986 S    
C33   C37   1.395617 A    
C34   C38   1.395618 A    
O2    V4    1.838266 S    
C27   C30   1.408002 A    
C12   C14   1.479135 S    
C45   C46   1.435137 A    
C31   N1    1.437645 S    
C2    C34   1.469664 S    
V4    O20   2.138850 S    
N2    O24   1.301519 A    
C35   H5    1.084022 S    
C5    C15   1.486295 S    
O9    C5    1.302315 A    
N2    O23   1.301349 A    
O13   V1    2.149623 S    
C10   C12   1.247159 T    
N6    O32   1.301369 A    
C43   C49   1.392470 A    
C41   C45   1.438802 A    
O2    C4    1.311777 A    
C8    C10   1.505027 S    
O4    V2    1.990057 S    
C24   C28   1.442765 A    
V3    O19   2.138848 S    
N1    O21   1.301347 A    
C21   H10   1.076822 S    
C33   C39   1.415282 A    
