data_mof_unit_60845.cif
_audit_creation_date              2012-12-10T18:13:24-0500
_audit_creation_method            fapswitch 2.2
_symmetry_space_group_name_H-M    P1
_symmetry_Int_Tables_number       1
_space_group_crystal_system       triclinic
_cell_length_a                    35.895715
_cell_length_b                    29.145608
_cell_length_c                    21.606973
_cell_angle_alpha                 90.120577
_cell_angle_beta                  125.790009
_cell_angle_gamma                 89.955655
_cell_volume                      18336.576864

loop_
_atom_site_label
_atom_site_type_symbol
_atom_type_description
_atom_site_fract_x
_atom_site_fract_y
_atom_site_fract_z
_atom_type_partial_charge
C1    C     C_R   0.913188 0.999991 0.913371 0.906914
C2    C     C_R   0.086812 0.000009 0.086626 0.906822
C3    C     C_R   0.413188 0.499991 0.913371 0.906914
C4    C     C_R   0.586812 0.500009 0.086626 0.906822
C5    C     C_1   0.820297 0.999977 0.819616 -0.003408
C6    C     C_1   0.179703 0.000025 0.180381 -0.003103
C7    C     C_1   0.320297 0.499977 0.819616 -0.003408
C8    C     C_1   0.679703 0.500025 0.180381 -0.003103
C9    C     C_1   0.770518 0.999950 0.769193 0.001939
C10   C     C_1   0.229482 0.000052 0.230803 0.002101
C11   C     C_1   0.270519 0.499950 0.769193 0.001939
C12   C     C_1   0.729482 0.500052 0.230803 0.002101
C13   C     C_1   0.728309 0.999933 0.726622 0.001658
C14   C     C_1   0.271691 0.000069 0.273375 0.001719
C15   C     C_1   0.228309 0.499933 0.726622 0.001658
C16   C     C_1   0.771691 0.500069 0.273375 0.001719
C17   C     C_1   0.678522 0.999916 0.676549 -0.000328
C18   C     C_1   0.321478 0.000086 0.323450 -0.000308
C19   C     C_1   0.178522 0.499916 0.676549 -0.000328
C20   C     C_1   0.821478 0.500086 0.323450 -0.000308
C21   C     C_1   0.636296 0.999931 0.634613 -0.203780
C22   C     C_1   0.363704 0.000070 0.365386 -0.203778
C23   C     C_1   0.136296 0.499931 0.634613 -0.203780
C24   C     C_1   0.863703 0.500070 0.365386 -0.203778
C25   C     C_R   0.000001 0.913165 0.499745 0.911114
C26   C     C_R   0.000003 0.086836 0.500179 0.908496
C27   C     C_R   0.500001 0.413165 0.499745 0.911114
C28   C     C_R   0.500003 0.586836 0.500179 0.908496
C29   C     C_R   0.998982 0.001321 0.621706 0.866414
C30   C     C_R   0.000936 0.999546 0.378155 0.865503
C31   C     C_R   0.498982 0.501321 0.621706 0.866414
C32   C     C_R   0.500936 0.499546 0.378155 0.865503
C33   C     C_R   0.499928 0.085622 0.499987 0.876542
C34   C     C_R   0.500072 0.914378 0.500012 0.876542
C35   C     C_R   0.999928 0.585622 0.499987 0.876542
C36   C     C_R   0.000072 0.414378 0.500012 0.876542
C37   C     C_R   0.585594 0.999978 0.585001 0.877417
C38   C     C_R   0.414406 0.000022 0.414999 0.877414
C39   C     C_R   0.085594 0.499978 0.585001 0.877417
C40   C     C_R   0.914406 0.500022 0.414999 0.877414
C41   C     C_1   0.000000 0.862475 0.499742 -0.247187
C42   C     C_1   0.000017 0.137524 0.500110 -0.244914
C43   C     C_1   0.500000 0.362475 0.499742 -0.247187
C44   C     C_1   0.500017 0.637525 0.500110 -0.244914
C45   C     C_R   0.999043 0.999904 0.876673 0.883533
C46   C     C_R   0.000908 0.000032 0.123179 0.884588
C47   C     C_R   0.499042 0.499904 0.876673 0.883533
C48   C     C_R   0.500908 0.500032 0.123179 0.884588
C49   C     C_1   0.999973 0.820272 0.499806 0.000174
C50   C     C_1   0.000049 0.179728 0.500047 -0.000180
C51   C     C_1   0.499973 0.320272 0.499806 0.000174
C52   C     C_1   0.500049 0.679728 0.500047 -0.000180
C53   C     C_1   0.999920 0.770505 0.499888 0.003359
C54   C     C_1   0.000100 0.229496 0.500000 0.002803
C55   C     C_1   0.499920 0.270505 0.499888 0.003359
C56   C     C_1   0.500100 0.729496 0.500000 0.002803
C57   C     C_1   0.499890 0.228304 0.499944 0.001190
C58   C     C_1   0.500125 0.771697 0.499980 0.001250
C59   C     C_1   0.999890 0.728304 0.499944 0.001190
C60   C     C_1   0.000125 0.271697 0.499980 0.001250
C61   C     C_1   0.499863 0.178533 0.499999 0.000056
C62   C     C_1   0.500147 0.821468 0.499967 0.000008
C63   C     C_1   0.999863 0.678533 0.499999 0.000056
C64   C     C_1   0.000147 0.321468 0.499967 0.000008
C65   C     C_1   0.499874 0.136323 0.500025 -0.203715
C66   C     C_1   0.500131 0.863677 0.499966 -0.203757
C67   C     C_1   0.999874 0.636323 0.500025 -0.203715
C68   C     C_1   0.000131 0.363677 0.499966 -0.203757
C69   C     C_3   0.983939 0.951938 0.769837 -0.406789
C70   C     C_3   0.025376 0.044300 0.237861 -0.410062
C71   C     C_3   0.028658 0.957500 0.240428 -0.371554
C72   C     C_3   0.963084 0.036012 0.752086 -0.383846
C73   C     C_3   0.483939 0.451938 0.769837 -0.406789
C74   C     C_3   0.525376 0.544300 0.237861 -0.410062
C75   C     C_3   0.528658 0.457500 0.240428 -0.371554
C76   C     C_3   0.463084 0.536012 0.752086 -0.383846
C77   C     C_3   0.981222 0.951880 0.695737 0.010370
C78   C     C_3   0.025052 0.045869 0.308905 0.014276
C79   C     C_3   0.030715 0.956425 0.313746 0.008252
C80   C     C_3   0.962615 0.039045 0.680400 0.016797
C81   C     C_3   0.481222 0.451880 0.695737 0.010370
C82   C     C_3   0.525052 0.545869 0.308905 0.014276
C83   C     C_3   0.530715 0.456425 0.313746 0.008252
C84   C     C_3   0.462615 0.539045 0.680400 0.016797
C85   C     C_3   0.045532 0.012189 0.830514 -0.440910
C86   C     C_3   0.952259 0.998057 0.167310 -0.443444
C87   C     C_3   0.545532 0.512189 0.830514 -0.440910
C88   C     C_3   0.452259 0.498057 0.167310 -0.443444
C89   C     C_3   0.997856 0.999869 0.808328 0.089045
C90   C     C_3   0.001748 0.000020 0.191092 0.091440
C91   C     C_3   0.497856 0.499869 0.808328 0.089045
C92   C     C_3   0.501748 0.500020 0.191092 0.091440
C93   C     C_3   0.995795 0.000706 0.686377 0.036073
C94   C     C_3   0.003802 0.999582 0.313101 0.035805
C95   C     C_3   0.495795 0.500706 0.686377 0.036073
C96   C     C_3   0.503802 0.499582 0.313101 0.035805
C97   C     C_3   0.045109 0.010985 0.759476 -0.464864
C98   C     C_3   0.953250 0.996371 0.238878 -0.460508
C99   C     C_3   0.545109 0.510985 0.759476 -0.464864
C100  C     C_3   0.453250 0.496371 0.238878 -0.460508
C101  C     C_1   0.862508 0.999983 0.862234 -0.236312
C102  C     C_1   0.137492 0.000018 0.137762 -0.236092
C103  C     C_1   0.362508 0.499983 0.862234 -0.236312
C104  C     C_1   0.637492 0.500018 0.137762 -0.236092
H1    H     H_    0.009620 0.926354 0.809335 0.170388
H2    H     H_    0.007476 0.075270 0.202824 0.173454
H3    H     H_    0.011769 0.925514 0.207781 0.169983
H4    H     H_    0.971823 0.070211 0.779299 0.171654
H5    H     H_    0.509620 0.426354 0.809335 0.170388
H6    H     H_    0.507476 0.575270 0.202824 0.173454
H7    H     H_    0.511769 0.425513 0.207781 0.169983
H8    H     H_    0.471822 0.570211 0.779299 0.171654
H9    H     H_    0.951432 0.941538 0.759932 0.165397
H10   H     H_    0.060556 0.045343 0.252457 0.156764
H11   H     H_    0.063434 0.958170 0.253267 0.167608
H12   H     H_    0.929096 0.027075 0.737980 0.162281
H13   H     H_    0.451432 0.441538 0.759932 0.165397
H14   H     H_    0.560556 0.545343 0.252457 0.156764
H15   H     H_    0.563435 0.458170 0.253267 0.167608
H16   H     H_    0.429096 0.527075 0.737980 0.162281
H17   H     H_    0.008272 0.927878 0.705256 0.154502
H18   H     H_    0.000128 0.073221 0.298060 0.156417
H19   H     H_    0.011511 0.925564 0.311035 0.140832
H20   H     H_    0.978367 0.072395 0.682282 0.143877
H21   H     H_    0.508272 0.427878 0.705256 0.154502
H22   H     H_    0.500128 0.573221 0.298060 0.156417
H23   H     H_    0.511512 0.425564 0.311035 0.140832
H24   H     H_    0.478367 0.572395 0.682282 0.143877
H25   H     H_    0.071287 0.987761 0.873352 0.172810
H26   H     H_    0.932880 0.028837 0.133017 0.177922
H27   H     H_    0.934186 0.967307 0.131424 0.178757
H28   H     H_    0.055602 0.046837 0.856464 0.185075
H29   H     H_    0.571287 0.487761 0.873352 0.172810
H30   H     H_    0.432880 0.528837 0.133017 0.177922
H31   H     H_    0.434186 0.467307 0.131424 0.178757
H32   H     H_    0.555602 0.546837 0.856464 0.185075
H33   H     H_    0.069676 0.984246 0.767316 0.193862
H34   H     H_    0.931980 0.025180 0.236454 0.189863
H35   H     H_    0.936806 0.963855 0.238624 0.185098
H36   H     H_    0.057817 0.044472 0.753916 0.180449
H37   H     H_    0.569676 0.484246 0.767316 0.193862
H38   H     H_    0.431980 0.525180 0.236454 0.189863
H39   H     H_    0.436806 0.463855 0.238624 0.185098
H40   H     H_    0.557817 0.544472 0.753916 0.180449
O1    O     O_R   0.936850 0.964330 0.936870 -0.600321
O2    O     O_R   0.063150 0.035670 0.063130 -0.599953
O3    O     O_R   0.063150 0.964330 0.063130 -0.600579
O4    O     O_R   0.936850 0.035670 0.936870 -0.600342
O5    O     O_R   0.436850 0.464330 0.936870 -0.600321
O6    O     O_R   0.563150 0.535670 0.063130 -0.599953
O7    O     O_R   0.563150 0.464330 0.063130 -0.600579
O8    O     O_R   0.436850 0.535670 0.936870 -0.600342
O9    O     O_R   0.999990 0.964330 0.907390 -0.625461
O10   O     O_R   0.000010 0.035670 0.092610 -0.625295
O11   O     O_R   0.000010 0.964330 0.092610 -0.627567
O12   O     O_R   0.999990 0.035670 0.907390 -0.625829
O13   O     O_R   0.499990 0.464330 0.907390 -0.625461
O14   O     O_R   0.500010 0.535670 0.092610 -0.625295
O15   O     O_R   0.500010 0.464330 0.092610 -0.627567
O16   O     O_R   0.499990 0.535670 0.907390 -0.625829
O17   O     O_R   0.964320 0.936860 0.464320 -0.594702
O18   O     O_R   0.035680 0.063140 0.535680 -0.596205
O19   O     O_R   0.035680 0.936860 0.535680 -0.599728
O20   O     O_R   0.964320 0.063140 0.464320 -0.598259
O21   O     O_R   0.464320 0.436860 0.464320 -0.594702
O22   O     O_R   0.535680 0.563140 0.535680 -0.596205
O23   O     O_R   0.535680 0.436860 0.535680 -0.599728
O24   O     O_R   0.464320 0.563140 0.464320 -0.598259
O25   O     O_R   0.964330 0.000000 0.556950 -0.643423
O26   O     O_R   0.035670 0.000000 0.443050 -0.639352
O27   O     O_R   0.464330 0.500000 0.556950 -0.643423
O28   O     O_R   0.535670 0.500000 0.443050 -0.639352
O29   O     O_R   0.035630 0.000000 0.628230 -0.618254
O30   O     O_R   0.964370 1.000000 0.371770 -0.619621
O31   O     O_R   0.535630 0.500000 0.628230 -0.618254
O32   O     O_R   0.464370 0.500000 0.371770 -0.619621
O33   O     O_R   0.499940 0.063120 0.447680 -0.592062
O34   O     O_R   0.500060 0.936880 0.552320 -0.592081
O35   O     O_R   0.500060 0.063120 0.552320 -0.592116
O36   O     O_R   0.499940 0.936880 0.447680 -0.592125
O37   O     O_R   0.999940 0.563120 0.447680 -0.592062
O38   O     O_R   0.000060 0.436880 0.552320 -0.592081
O39   O     O_R   0.000060 0.563120 0.552320 -0.592116
O40   O     O_R   0.999940 0.436880 0.447680 -0.592125
O41   O     O_R   0.563110 0.000000 0.510830 -0.592868
O42   O     O_R   0.436890 0.000000 0.489170 -0.592872
O43   O     O_R   0.063110 0.500000 0.510830 -0.592868
O44   O     O_R   0.936890 0.500000 0.489170 -0.592872
O45   O     O_R   0.563120 0.000000 0.615390 -0.591526
O46   O     O_R   0.436880 0.000000 0.384610 -0.591523
O47   O     O_R   0.063120 0.500000 0.615390 -0.591526
O48   O     O_R   0.936880 0.500000 0.384610 -0.591523
Zn1   Zn    Zn3+2 0.000000 0.952370 0.000000 0.940371
Zn2   Zn    Zn3+2 1.000000 0.047630 0.000000 0.940779
Zn3   Zn    Zn3+2 0.500000 0.452370 0.000000 0.940371
Zn4   Zn    Zn3+2 0.500000 0.547630 0.000000 0.940779
Zn5   Zn    Zn3+2 0.952370 0.000000 0.452390 0.933095
Zn6   Zn    Zn3+2 0.047630 0.000000 0.547610 0.933585
Zn7   Zn    Zn3+2 0.452370 0.500000 0.452390 0.933095
Zn8   Zn    Zn3+2 0.547630 0.500000 0.547610 0.933585
Zn9   Zn    Zn3+2 0.499970 0.000000 0.430170 0.962858
Zn10  Zn    Zn3+2 0.500030 0.000000 0.569830 0.962832
Zn11  Zn    Zn3+2 0.999970 0.500000 0.430170 0.962858
Zn12  Zn    Zn3+2 0.000030 0.500000 0.569830 0.962832
C105  C     C_3   0.933747 0.933126 0.625993 -0.396601
C106  C     C_3   0.937740 0.884297 0.603823 -0.876819
H41   H     H_    0.961388 0.883724 0.586511 0.257361
H42   H     H_    0.950862 0.860512 0.652721 0.259192
H43   H     H_    0.903409 0.872288 0.554817 0.255277
H44   H     H_    0.907679 0.932510 0.638077 0.202140
H45   H     H_    0.918061 0.954928 0.574626 0.228028
C107  C     C_3   0.073424 0.060485 0.381187 -0.401902
C108  C     C_3   0.072910 0.108959 0.407853 -0.882209
H46   H     H_    0.061559 0.133943 0.361423 0.259405
H47   H     H_    0.049368 0.110551 0.425141 0.260980
H48   H     H_    0.107870 0.118454 0.457735 0.255587
H49   H     H_    0.086930 0.037248 0.429965 0.231520
H50   H     H_    0.100319 0.059576 0.371124 0.202182
C109  C     C_3   0.081243 0.949803 0.384852 -0.410844
C110  C     C_3   0.100610 0.902812 0.385352 -0.899483
H51   H     H_    0.078593 0.874993 0.382366 0.261070
H52   H     H_    0.103380 0.899127 0.337175 0.262110
H53   H     H_    0.135506 0.898852 0.438955 0.255970
H54   H     H_    0.103869 0.976909 0.387709 0.211252
H55   H     H_    0.083969 0.951221 0.438335 0.236961
C111  C     C_3   0.912040 0.040399 0.607393 -0.418092
C112  C     C_3   0.889502 0.087010 0.597729 -0.879675
H56   H     H_    0.877866 0.089335 0.635537 0.260377
H57   H     H_    0.913607 0.115663 0.611167 0.256689
H58   H     H_    0.858668 0.091176 0.537079 0.251632
H59   H     H_    0.910175 0.034435 0.555869 0.241894
H60   H     H_    0.890932 0.013355 0.608917 0.206776
C113  C     C_3   0.433747 0.433125 0.625993 -0.396601
C114  C     C_3   0.437740 0.384297 0.603823 -0.876819
H61   H     H_    0.461388 0.383724 0.586511 0.257361
H62   H     H_    0.450862 0.360512 0.652721 0.259192
H63   H     H_    0.403409 0.372288 0.554817 0.255277
H64   H     H_    0.407679 0.432510 0.638077 0.202140
H65   H     H_    0.418061 0.454928 0.574626 0.228028
C115  C     C_3   0.573424 0.560485 0.381187 -0.401902
C116  C     C_3   0.572910 0.608959 0.407853 -0.882209
H66   H     H_    0.561559 0.633943 0.361423 0.259405
H67   H     H_    0.549368 0.610551 0.425141 0.260980
H68   H     H_    0.607870 0.618454 0.457735 0.255587
H69   H     H_    0.586930 0.537248 0.429965 0.231520
H70   H     H_    0.600318 0.559576 0.371124 0.202182
C117  C     C_3   0.581243 0.449803 0.384852 -0.410844
C118  C     C_3   0.600610 0.402812 0.385352 -0.899483
H71   H     H_    0.578593 0.374993 0.382366 0.261070
H72   H     H_    0.603380 0.399127 0.337175 0.262110
H73   H     H_    0.635506 0.398852 0.438955 0.255970
H74   H     H_    0.603869 0.476909 0.387709 0.211252
H75   H     H_    0.583969 0.451221 0.438335 0.236961
C119  C     C_3   0.412040 0.540399 0.607393 -0.418092
C120  C     C_3   0.389502 0.587010 0.597729 -0.879675
H76   H     H_    0.377866 0.589335 0.635537 0.260377
H77   H     H_    0.413607 0.615663 0.611167 0.256689
H78   H     H_    0.358668 0.591176 0.537079 0.251632
H79   H     H_    0.410175 0.534435 0.555869 0.241894
H80   H     H_    0.390932 0.513355 0.608917 0.206776

loop_
_geom_bond_atom_site_label_1
_geom_bond_atom_site_label_2
_ccdc_geom_bond_type
C84   H24   S    
C37   O45   A    
C120  H77   S    
C58   C62   S    
C2    O2    A    
O24   Zn7   S    
C71   H3    S    
C70   C78   S    
O22   Zn8   S    
C69   C77   S    
C14   C18   S    
C34   O36   A    
C48   C92   S    
O26   Zn6   S    
C43   C51   T    
C76   C84   S    
C71   C79   S    
C53   C59   T    
C33   C65   S    
C94   C98   S    
C31   O31   A    
C108  H46   S    
C70   H10   S    
C15   C19   S    
C46   O11   A    
C32   O32   A    
C69   H9    S    
C3    O8    A    
C50   C54   S    
C31   O27   A    
C23   C39   S    
C98   H34   S    
O38   Zn12  S    
O39   Zn12  S    
C64   C68   T    
C30   O30   A    
C78   C94   S    
C87   C91   S    
O21   Zn7   S    
C85   H28   S    
C80   H20   S    
C81   C95   S    
C49   C53   S    
C86   H27   S    
C33   O35   A    
C107  H49   S    
C105  H45   S    
C74   C92   S    
C111  H59   S    
C22   C38   S    
O43   Zn11  S    
C72   C80   S    
O42   Zn10  S    
C28   C44   S    
C116  H66   S    
O41   Zn9   S    
C10   C14   T    
C9    C13   T    
C30   O26   A    
O27   Zn7   S    
C85   H25   S    
C109  H54   S    
C98   H35   S    
C11   C15   T    
C87   H29   S    
C41   C49   T    
C82   H22   S    
C12   C16   T    
O19   Zn6   S    
C25   O17   A    
C38   O46   A    
C82   C115  S    
O7    Zn3   S    
O23   Zn8   S    
O3    Zn1   S    
C36   O40   A    
C119  H80   S    
C8    C12   S    
O2    Zn2   S    
C18   C22   T    
C45   C89   S    
C113  C114  S    
C97   H36   S    
O1    Zn1   S    
C118  H73   S    
C76   H8    S    
O16   Zn4   S    
C39   O43   A    
C44   C52   T    
C32   O28   A    
C120  H78   S    
O40   Zn11  S    
C7    C103  T    
C115  H70   S    
C75   H7    S    
C34   C66   S    
C70   C90   S    
C45   O9    A    
C114  H62   S    
C74   C82   S    
C74   H14   S    
C118  H71   S    
C73   C81   S    
C110  H51   S    
C29   C93   S    
C118  H72   S    
C4    C104  S    
C5    C101  T    
C47   O16   A    
C108  H47   S    
C46   O10   A    
C48   O15   A    
C63   C67   T    
C3    O5    A    
C82   C96   S    
O18   Zn6   S    
O8    Zn4   S    
C33   O33   A    
C88   C92   S    
C99   H40   S    
C73   H13   S    
C73   C91   S    
C79   C94   S    
C69   H1    S    
O36   Zn9   S    
C86   C90   S    
C25   C41   S    
C109  C110  S    
C77   H17   S    
C62   C66   T    
C19   C23   T    
C86   H26   S    
O33   Zn9   S    
C54   C60   T    
C51   C55   S    
C2    O3    A    
C117  H74   S    
C48   O14   A    
C26   O18   A    
O14   Zn4   S    
C27   C43   S    
C37   O41   A    
C116  H67   S    
C114  H63   S    
C7    C11   S    
C113  H64   S    
C74   H6    S    
C119  C120  S    
O11   Zn1   S    
O31   Zn8   S    
C77   C105  S    
C39   O47   A    
C78   H18   S    
C79   C109  S    
C112  H56   S    
C40   O48   A    
O35   Zn10  S    
C35   C67   S    
C16   C20   S    
C26   O20   A    
O15   Zn3   S    
C71   H11   S    
C45   O12   A    
C76   H16   S    
C105  H44   S    
C109  H55   S    
C57   C61   S    
C8    C104  T    
O6    Zn4   S    
C88   C100  S    
C75   C92   S    
C42   C50   T    
C40   O44   A    
O12   Zn2   S    
C117  H75   S    
O4    Zn2   S    
C112  H57   S    
C27   O21   A    
C1    C101  S    
O34   Zn10  S    
C70   H2    S    
C115  H69   S    
C81   C113  S    
C34   O34   A    
C36   O38   A    
C1    O1    A    
O32   Zn7   S    
C111  H60   S    
C93   C97   S    
O37   Zn11  S    
O20   Zn5   S    
C26   C42   S    
O25   Zn5   S    
C47   O13   A    
C108  H48   S    
C3    C103  S    
C4    O7    A    
C105  C106  S    
O30   Zn5   S    
C85   C89   S    
C81   H21   S    
O29   Zn6   S    
O13   Zn3   S    
C52   C56   S    
C47   C91   S    
C87   H32   S    
C99   H37   S    
C79   H19   S    
C88   H31   S    
C29   O29   A    
C100  H39   S    
C6    C10   S    
C78   C107  S    
C117  C118  S    
C36   C68   S    
O46   Zn9   S    
C73   H5    S    
C46   C90   S    
C28   O22   A    
O45   Zn10  S    
C35   O37   A    
C4    O6    A    
C72   H12   S    
C69   C89   S    
C59   C63   S    
O17   Zn5   S    
C110  H52   S    
C60   C64   S    
O44   Zn12  S    
C80   C111  S    
C116  H68   S    
C55   C57   T    
C113  H65   S    
C88   H30   S    
C32   C96   S    
C75   H15   S    
C38   O42   A    
O5    Zn3   S    
C20   C24   T    
C84   C119  S    
C72   C89   S    
C106  H43   S    
C75   C83   S    
C71   C90   S    
C107  H50   S    
C119  H79   S    
C25   O19   A    
C31   C95   S    
C83   C96   S    
C96   C100  S    
C77   C93   S    
C115  C116  S    
C24   C40   S    
O48   Zn11  S    
C56   C58   T    
O28   Zn8   S    
C95   C99   S    
C6    C102  T    
C72   H4    S    
C86   C98   S    
C83   H23   S    
C97   H33   S    
C106  H41   S    
O9    Zn1   S    
C85   C97   S    
O47   Zn12  S    
C28   O24   A    
C76   C91   S    
C13   C17   S    
O10   Zn2   S    
C87   C99   S    
C61   C65   T    
C112  H58   S    
C21   C37   S    
C107  C108  S    
C30   C94   S    
C111  C112  S    
C114  H61   S    
C83   C117  S    
C2    C102  S    
C1    O4    A    
C100  H38   S    
C5    C9    S    
C29   O25   A    
C80   C93   S    
C106  H42   S    
C35   O39   A    
C84   C95   S    
C110  H53   S    
C120  H76   S    
C27   O23   A    
C17   C21   T    
