data_mof_unit_17927.cif
_audit_creation_date              2012-12-11T17:01:30-0500
_audit_creation_method            fapswitch 2.2
_symmetry_space_group_name_H-M    P1
_symmetry_Int_Tables_number       1
_space_group_crystal_system       triclinic
_cell_length_a                    14.963664
_cell_length_b                    14.837914
_cell_length_c                    14.908117
_cell_angle_alpha                 109.386077
_cell_angle_beta                  109.230766
_cell_angle_gamma                 109.769325
_cell_volume                      2548.8914536

loop_
_atom_site_label
_atom_site_type_symbol
_atom_type_description
_atom_site_fract_x
_atom_site_fract_y
_atom_site_fract_z
_atom_type_partial_charge
Br1   Br    Br    0.187404 0.655416 0.536432 -0.619252
C1    C     C_R   0.004687 0.804798 0.097762 -0.157224
C2    C     C_R   0.224314 0.753073 0.315405 -0.116929
C3    C     C_R   0.907056 0.408890 0.210857 -0.143724
C4    C     C_R   0.794558 0.194810 0.702847 -0.161249
C5    C     C_R   0.299776 0.591864 0.994835 -0.148102
C6    C     C_R   0.939233 0.501311 0.304875 0.107825
C7    C     C_R   0.300580 0.500393 0.931928 0.005486
C8    C     C_R   0.326851 0.779871 0.324320 0.101124
C9    C     C_R   0.050828 0.225209 0.052437 0.073007
C10   C     C_3   0.470426 0.397581 0.828716 -0.397944
C11   C     C_3   0.366261 0.397502 0.824527 -0.399506
C12   C     C_R   0.700882 0.129955 0.699246 0.098722
C13   C     C_3   0.565584 0.499360 0.036323 -0.391567
C14   C     C_3   0.574112 0.604914 0.933165 -0.398477
C15   C     C_3   0.573184 0.500577 0.935382 0.387540
C16   C     C_R   0.022421 0.593385 0.780342 -0.138258
C17   C     C_3   0.397354 0.500613 0.928066 0.386365
C18   C     C_3   0.462637 0.499216 0.031866 -0.392214
C19   C     C_3   0.470254 0.605229 0.929525 -0.395487
C20   C     C_R   0.622037 0.976852 0.515068 0.113242
C21   C     C_R   0.624013 0.013358 0.615555 -0.023781
C22   C     C_R   0.539449 0.940454 0.622695 0.277238
C23   C     C_R   0.949080 0.502950 0.676753 0.068023
C24   C     C_R   0.441778 0.854976 0.524927 -0.228202
C25   C     C_R   0.432654 0.838358 0.423216 -0.024934
C26   C     C_R   0.528183 0.890244 0.420523 0.160525
C27   C     C_3   0.548863 0.943018 0.353982 -0.507395
C28   C     C_R   0.685614 0.407819 0.932586 -0.138087
C29   C     C_3   0.651741 0.038156 0.457700 -0.499688
C30   C     C_R   0.965318 0.605794 0.487259 0.020292
C31   C     C_R   0.909610 0.506099 0.389123 0.070993
C32   C     C_R   0.834419 0.410835 0.380101 -0.188504
C33   C     C_R   0.834209 0.412344 0.474497 -0.194153
C34   C     C_R   0.674867 0.500441 0.948174 -0.001358
C35   C     C_R   0.908751 0.509283 0.577089 0.085392
C36   C     C_R   0.961757 0.608588 0.578963 0.099405
C37   C     C_3   0.076888 0.704831 0.653079 -0.572283
C38   C     C_3   0.081621 0.699049 0.551981 0.196540
C39   C     C_R   0.057384 0.036667 0.162866 0.161020
C40   C     C_R   0.934696 0.408978 0.685354 -0.120828
C41   C     C_R   0.103681 0.987275 0.109929 0.029928
C42   C     C_R   0.172095 0.048555 0.080980 -0.205674
C43   C     C_R   0.168828 0.140721 0.077880 -0.200521
C44   C     C_R   0.096370 0.170241 0.102669 0.035593
C45   C     C_R   0.997160 0.592141 0.300071 -0.069427
C46   C     C_R   0.053205 0.126733 0.158820 0.175414
C47   C     C_3   0.941756 0.086260 0.148129 -0.520953
C48   C     C_3   0.946927 0.988486 0.153325 -0.528707
C49   C     C_R   0.777656 0.592700 0.024992 -0.141041
C50   C     C_R   0.699567 0.194888 0.789932 -0.143595
C51   C     C_R   0.095025 0.806081 0.005957 -0.146137
C52   C     C_R   0.066162 0.869768 0.069009 0.084080
C53   C     C_3   0.547586 0.952017 0.729556 -1.003418
C54   C     C_R   0.208987 0.408556 0.904022 -0.148022
C55   C     C_R   0.313724 0.748627 0.220752 -0.145735
C56   C     C_R   0.976665 0.254592 0.068581 -0.136019
C57   C     C_R   0.066216 0.249873 0.974388 -0.125820
H1    H     H_    0.986136 0.832739 0.162365 0.099589
H2    H     H_    0.474618 0.397862 0.755656 0.161858
H3    H     H_    0.318713 0.397302 0.749167 0.165555
H4    H     H_    0.830626 0.166526 0.655730 0.104085
H5    H     H_    0.314652 0.319921 0.819711 0.145946
H6    H     H_    0.564300 0.424840 0.039081 0.155919
H7    H     H_    0.411746 0.424456 0.032017 0.156425
H8    H     H_    0.645982 0.681981 0.007327 0.147538
H9    H     H_    0.578610 0.606286 0.860564 0.163456
H10   H     H_    0.423869 0.607770 0.855633 0.171085
H11   H     H_    0.496100 0.681738 0.002880 0.146515
H12   H     H_    0.178913 0.323145 0.848540 0.085909
H13   H     H_    0.638316 0.573084 0.113650 0.155432
H14   H     H_    0.485869 0.572805 0.106966 0.157479
H15   H     H_    0.047907 0.678796 0.805186 0.113781
H16   H     H_    0.371697 0.807313 0.528830 0.198505
H17   H     H_    0.565690 0.896084 0.292451 0.183888
H18   H     H_    0.487377 0.966658 0.321961 0.199928
H19   H     H_    0.727365 0.045714 0.455437 0.186214
H20   H     H_    0.648976 0.116161 0.484849 0.199205
H21   H     H_    0.784822 0.332960 0.303888 0.118786
H22   H     H_    0.786009 0.335177 0.468579 0.121686
H23   H     H_    0.374978 0.753289 0.196970 0.106840
H24   H     H_    0.079442 0.781424 0.702936 0.165146
H25   H     H_    0.135390 0.686062 0.700730 0.235697
H26   H     H_    0.090363 0.773747 0.545572 0.076519
H27   H     H_    0.621949 0.322223 0.884239 0.091857
H28   H     H_    0.216815 0.018455 0.047604 0.125930
H29   H     H_    0.211258 0.178191 0.042387 0.124484
H30   H     H_    0.942472 0.141556 0.220515 0.197423
H31   H     H_    0.876154 0.061427 0.067099 0.199412
H32   H     H_    0.951409 0.987929 0.229061 0.189922
H33   H     H_    0.884278 0.909337 0.075555 0.201287
H34   H     H_    0.950094 0.252343 0.126933 0.115188
H35   H     H_    0.882328 0.323691 0.620649 0.093582
H36   H     H_    0.799686 0.678471 0.062173 0.092436
H37   H     H_    0.644416 0.168759 0.819454 0.110734
H38   H     H_    0.156298 0.835481 0.983667 0.088211
H39   H     H_    0.018359 0.676228 0.349347 0.073691
H40   H     H_    0.633898 0.003144 0.797146 0.243023
H41   H     H_    0.497862 0.987948 0.749249 0.248706
H42   H     H_    0.515752 0.869372 0.722945 0.270525
H43   H     H_    0.119349 0.238640 0.942903 0.090305
H44   H     H_    0.204943 0.765966 0.380653 0.127083
H45   H     H_    0.847190 0.324606 0.180188 0.083729
H46   H     H_    0.354137 0.677270 0.023286 0.087063
H47   H     H_    0.464742 0.319751 0.825033 0.147822
N1    N     N_R   0.995640 0.706130 0.053910 -0.036506
N2    N     N_R   0.054010 0.556790 0.847890 -0.039340
N3    N     N_R   0.789940 0.443190 0.997130 -0.038957
N4    N     N_R   0.997630 0.443170 0.791110 -0.039124
N5    N     N_R   0.846320 0.556810 0.053910 -0.040399
N6    N     N_R   0.791080 0.293860 0.847890 -0.039334
N7    N     N_R   0.052880 0.706130 0.997130 -0.038877
N8    N     N_R   0.002370 0.556830 0.208890 -0.041681
N9    N     N_R   0.153680 0.443190 0.946090 -0.032238
N10   N     N_R   0.208920 0.706140 0.152110 -0.041939
N11   N     N_R   0.947120 0.293870 0.002870 -0.041516
N12   N     N_R   0.004360 0.293870 0.946090 -0.040234
N13   N     N_R   0.151690 0.706140 0.208890 -0.045045
N14   N     N_R   0.945990 0.443210 0.152110 -0.040141
N15   N     N_R   0.210060 0.556810 0.002870 -0.032506
N16   N     N_R   0.848310 0.293860 0.791110 -0.039211
Ni1   Ni    Ni4+2 0.999010 0.630300 0.130220 0.205988
Ni2   Ni    Ni4+2 0.000990 0.369700 0.869780 0.212743
Ni3   Ni    Ni4+2 0.130280 0.630280 0.000000 0.212863
Ni4   Ni    Ni4+2 0.869720 0.369720 0.000000 0.206515

loop_
_geom_bond_atom_site_label_1
_geom_bond_atom_site_label_2
_ccdc_geom_bond_type
C39   C46   A    
C56   H34   S    
C37   H25   S    
N6    N16   A    
C13   H13   S    
C48   H32   S    
C55   H23   S    
N1    N7    A    
C51   C52   A    
C25   C26   A    
C23   C35   S    
C12   C21   S    
C35   C36   A    
C9    C57   A    
C38   H26   S    
N7    Ni3   S    
C16   N2    A    
C15   C34   S    
C37   C38   S    
C51   N7    A    
C14   C15   S    
C3    H45   S    
C4    N16   A    
C49   N5    A    
N11   N12   A    
C17   C19   S    
C24   H16   S    
N13   Ni1   S    
C33   H22   S    
C12   C50   A    
C29   H19   S    
C40   H35   S    
N8    Ni1   S    
C30   C31   A    
C30   C38   S    
C10   H47   S    
C47   H30   S    
C3    N14   A    
C18   H7    S    
C6    C31   S    
C5    H46   S    
N3    Ni4   S    
C43   H29   S    
C4    C12   A    
C39   C41   A    
C20   C26   A    
C14   H9    S    
C40   N4    A    
C20   C21   A    
C37   H24   S    
C16   H15   S    
C23   C40   A    
N2    N4    A    
C53   H42   S    
C18   H14   S    
N2    Ni3   S    
C48   H33   S    
C3    C6    A    
C7    C54   A    
C5    N15   A    
C8    C25   S    
C56   N11   A    
C44   C46   A    
C14   C19   S    
C16   C23   A    
C34   C49   A    
C6    C45   A    
C9    C56   A    
C8    C55   A    
C11   H5    S    
C1    H1    S    
C17   C18   S    
C5    C7    A    
C24   C25   A    
C14   H8    S    
C1    N1    A    
C57   N12   A    
C7    C17   S    
C30   C36   A    
C42   C43   A    
N6    Ni4   S    
C36   C37   S    
C2    C8    A    
C2    N13   A    
C10   C15   S    
C46   C47   S    
N10   N13   A    
C13   H6    S    
N1    Ni1   S    
C9    C44   S    
C32   C33   A    
C28   N3    A    
C57   H43   S    
N8    N14   A    
N9    Ni2   S    
N14   Ni4   S    
C2    H44   S    
C47   C48   S    
C45   H39   S    
C47   H31   S    
C13   C15   S    
C53   H41   S    
C41   C42   A    
C10   H2    S    
C27   H18   S    
C43   C44   A    
C22   C53   S    
C50   N6    A    
N10   Ni3   S    
C45   N8    A    
C42   H28   S    
C28   H27   S    
C13   C18   S    
C19   H10   S    
C49   H36   S    
C32   H21   S    
C1    C52   A    
C10   C11   S    
C54   N9    A    
C20   C29   S    
C28   C34   A    
N11   Ni4   S    
C31   C32   A    
C27   C29   S    
N12   Ni2   S    
C41   C52   S    
N5    Ni1   S    
C11   H3    S    
C39   C48   S    
C55   N10   A    
N3    N5    A    
C4    H4    S    
C51   H38   S    
C33   C35   A    
C22   C24   A    
C19   H11   S    
N16   Ni2   S    
C54   H12   S    
Br1   C38   S    
C29   H20   S    
C11   C17   S    
C26   C27   S    
C21   C22   A    
C53   H40   S    
N4    Ni2   S    
C27   H17   S    
N9    N15   A    
N15   Ni3   S    
C50   H37   S    
