data_mof_unit_66669.cif
_audit_creation_date              2012-12-11T14:03:19-0500
_audit_creation_method            fapswitch 2.2
_symmetry_space_group_name_H-M    P1
_symmetry_Int_Tables_number       1
_space_group_crystal_system       triclinic
_cell_length_a                    6.930652
_cell_length_b                    11.427198
_cell_length_c                    18.678634
_cell_angle_alpha                 90.000015
_cell_angle_beta                  92.975947
_cell_angle_gamma                 89.999986
_cell_volume                      1477.31422761

loop_
_atom_site_label
_atom_site_type_symbol
_atom_type_description
_atom_site_fract_x
_atom_site_fract_y
_atom_site_fract_z
_atom_type_partial_charge
O1    O     O_R   0.330540 0.606360 0.598870 -0.538337
O2    O     O_R   0.669460 0.106360 0.401130 -0.538337
O3    O     O_R   0.026770 0.620470 0.750430 -0.539425
O4    O     O_R   0.973230 0.120470 0.249570 -0.539425
O5    O     O_R   0.856460 0.393640 0.750930 -0.539964
O6    O     O_R   0.143540 0.893640 0.249070 -0.539964
C1    C     C_R   0.198847 0.648372 0.774615 0.745098
C2    C     C_R   0.801153 0.148372 0.225385 0.745099
O7    O     O_R   0.000920 0.620350 0.599420 -0.546486
O8    O     O_R   0.999080 0.120350 0.400580 -0.546486
O9    O     O_R   0.830430 0.393520 0.598850 -0.542866
O10   O     O_R   0.169570 0.893520 0.401150 -0.542865
C3    C     C_R   0.166842 0.650042 0.575933 0.782278
C4    C     C_R   0.833158 0.150042 0.424067 0.782278
O11   O     O_R   0.356570 0.606480 0.750960 -0.542123
O12   O     O_R   0.643430 0.106480 0.249040 -0.542123
O13   O     O_3   0.176990 0.425580 0.674890 -0.365712
O14   O     O_3   0.823010 0.925580 0.325110 -0.365713
V1    V     V_3+5 0.902170 0.513810 0.674910 1.540186
V2    V     V_3+5 0.097830 0.013810 0.325090 1.540185
O15   O     O_R   0.500800 0.379530 0.599380 -0.529272
O16   O     O_R   0.499200 0.879530 0.400620 -0.529272
C5    C     C_R   0.666966 0.353150 0.573957 0.795373
C6    C     C_R   0.333034 0.853150 0.426043 0.795374
O17   O     O_R   0.526650 0.379650 0.750390 -0.537037
O18   O     O_R   0.473350 0.879650 0.249610 -0.537038
C7    C     C_R   0.698756 0.351503 0.774410 0.747667
C8    C     C_R   0.301244 0.851503 0.225589 0.747667
V3    V     V_3+5 0.402160 0.486190 0.674900 1.556787
V4    V     V_3+5 0.597840 0.986190 0.325100 1.556787
O19   O     O_3   0.677210 0.574420 0.674910 -0.376757
O20   O     O_3   0.322790 0.074420 0.325090 -0.376757
C9    C     C_R   0.723767 0.069432 0.878540 -0.198435
C10   C     C_R   0.276233 0.569432 0.121459 -0.198435
H1    H     H_    0.720680 0.976672 0.866754 0.164051
H2    H     H_    0.279319 0.476672 0.133245 0.164051
C11   C     C_R   0.715387 0.267531 0.833676 -0.083643
C12   C     C_R   0.284612 0.767530 0.166324 -0.083644
C13   C     C_R   0.788347 0.352764 0.180822 0.229315
C14   C     C_R   0.211653 0.852765 0.819178 0.229315
C15   C     C_R   0.775844 0.433821 0.124588 -0.066981
C16   C     C_R   0.224156 0.933821 0.875412 -0.066981
C17   C     C_R   0.760397 0.395473 0.053546 -0.255962
C18   C     C_R   0.239603 0.895473 0.946454 -0.255962
C19   C     C_R   0.757045 0.274776 0.036063 0.120961
C20   C     C_R   0.242955 0.774776 0.963937 0.120961
C21   C     C_R   0.768772 0.192585 0.093377 0.020899
C22   C     C_R   0.231227 0.692585 0.906623 0.020899
C23   C     C_R   0.742646 0.233275 0.963586 0.122723
C24   C     C_R   0.257354 0.733275 0.036414 0.122723
C25   C     C_R   0.739134 0.110423 0.949933 0.029032
C26   C     C_R   0.260866 0.610423 0.050067 0.029032
C27   C     C_R   0.750878 0.030891 0.007703 -0.055997
C28   C     C_R   0.249121 0.530891 0.992297 -0.055997
C29   C     C_R   0.765619 0.072031 0.077882 -0.218477
C30   C     C_R   0.234380 0.572031 0.922118 -0.218477
C31   C     C_R   0.731313 0.309953 0.903908 -0.239374
C32   C     C_R   0.268688 0.809953 0.096092 -0.239374
C33   C     C_R   0.711473 0.146964 0.820947 0.286060
C34   C     C_R   0.288526 0.646964 0.179053 0.286060
C35   C     C_R   0.784539 0.232244 0.165544 -0.143201
C36   C     C_R   0.215461 0.732244 0.834456 -0.143201
H3    H     H_    0.733209 0.403683 0.909628 0.107043
H4    H     H_    0.266791 0.903683 0.090372 0.107043
H5    H     H_    0.751372 0.462931 0.013276 0.134247
H6    H     H_    0.248627 0.962931 0.986724 0.134247
H7    H     H_    0.774629 0.007919 0.120693 0.121410
H8    H     H_    0.225370 0.507919 0.879307 0.121410
C37   C     C_2   0.832582 0.243355 0.478496 -0.223289
C38   C     C_2   0.167418 0.743355 0.521504 -0.223290
C39   C     C_2   0.673019 0.265468 0.515819 -0.305387
C40   C     C_2   0.326980 0.765467 0.484181 -0.305388
H9    H     H_    0.542119 0.215006 0.504427 0.160017
H10   H     H_    0.457881 0.715005 0.495573 0.160017
Br1   Br    Br    0.689958 0.084750 0.725450 -0.472300
Br2   Br    Br    0.310041 0.584750 0.274550 -0.472300
C41   C     C_1   0.748391 0.905408 0.996939 0.304771
N1    N     N_1   0.746442 0.805086 0.988386 -0.346129
C42   C     C_1   0.251609 0.405408 0.003061 0.304771
N2    N     N_1   0.253557 0.305086 0.011614 -0.346129
Br3   Br    Br    0.810308 0.406896 0.278882 -0.480944
Br4   Br    Br    0.189692 0.906896 0.721117 -0.480944
C43   C     C_1   0.779242 0.558068 0.138742 0.422030
N3    N     N_1   0.781984 0.657682 0.149971 -0.314546
C44   C     C_1   0.220758 0.058068 0.861258 0.422030
N4    N     N_1   0.218015 0.157682 0.850029 -0.314546
C45   C     C_1   0.007415 0.313202 0.486980 0.402046
N5    N     N_1   0.146877 0.368783 0.493173 -0.329348
C46   C     C_1   0.992585 0.813203 0.513020 0.402046
N6    N     N_1   0.853123 0.868783 0.506827 -0.329347

loop_
_geom_bond_atom_site_label_1
_geom_bond_atom_site_label_2
_ccdc_geom_bond_type
C45   N5    T    
O13   V3    S    
C18   H6    S    
O4    C2    A    
V1    O19   S    
C23   C31   A    
C13   C15   A    
C44   N4    T    
O9    V1    S    
O3    C1    A    
C3    C38   S    
O12   V4    S    
C15   C43   S    
C14   C36   A    
C37   C39   D    
O7    C3    A    
O13   V1    S    
O5    C7    A    
O7    V1    S    
O6    C8    A    
C18   C20   A    
C23   C25   A    
C24   C26   A    
O3    V1    S    
O14   V4    S    
C8    C12   S    
C10   H2    S    
C37   C45   S    
C41   N1    T    
C2    C35   S    
C19   C21   A    
C9    C33   A    
C12   C32   A    
C10   C34   A    
C15   C17   A    
C16   C18   A    
C26   C28   A    
O11   V3    S    
C20   C22   A    
C27   C29   A    
O17   V3    S    
C13   C35   A    
C28   C30   A    
C24   C32   A    
C14   Br4   S    
C13   Br3   S    
C40   H10   S    
O8    C4    A    
O8    V2    S    
C39   H9    S    
C1    O11   A    
C32   H4    S    
C30   H8    S    
O15   V3    S    
C34   Br2   S    
C9    C25   A    
C25   C27   A    
C27   C41   S    
C1    C36   S    
C5    C39   S    
C22   C36   A    
C43   N3    T    
C19   C23   A    
C17   H5    S    
O10   V2    S    
O1    V3    S    
C16   C44   S    
C17   C19   A    
C11   C33   A    
C12   C34   A    
O18   V4    S    
O15   C5    A    
C4    C37   S    
O16   C6    A    
C38   C46   S    
O1    C3    A    
C33   Br1   S    
C6    C40   S    
C21   C29   A    
C28   C42   S    
V2    O20   S    
C22   C30   A    
O10   C6    A    
O16   V4    S    
C10   C26   A    
C31   H3    S    
C14   C16   A    
C21   C35   A    
C29   H7    S    
O5    V1    S    
O17   C7    A    
O6    V2    S    
C20   C24   A    
O18   C8    A    
O2    V4    S    
V3    O19   S    
V4    O20   S    
C7    C11   S    
O9    C5    A    
C9    H1    S    
O14   V2    S    
O2    C4    A    
C42   N2    T    
O4    V2    S    
C2    O12   A    
C38   C40   D    
C46   N6    T    
C11   C31   A    
