data_mof_unit_23713.cif
_audit_creation_date              2012-12-11T14:40:11-0500
_audit_creation_method            fapswitch 2.2
_symmetry_space_group_name_H-M    P1
_symmetry_Int_Tables_number       1
_space_group_crystal_system       triclinic
_cell_length_a                    19.807757
_cell_length_b                    10.851709
_cell_length_c                    19.518667
_cell_angle_alpha                 89.604998
_cell_angle_beta                  97.335127
_cell_angle_gamma                 90.170383
_cell_volume                      4161.05609698

loop_
_atom_site_label
_atom_site_type_symbol
_atom_type_description
_atom_site_fract_x
_atom_site_fract_y
_atom_site_fract_z
_atom_type_partial_charge
C1    C     C_R   0.725843 0.949679 0.359983 0.566903
C2    C     C_R   0.275265 0.954043 0.638985 0.550785
C3    C     C_R   0.225792 0.449914 0.360048 0.561222
C4    C     C_R   0.775322 0.454293 0.638910 0.551612
C5    C     C_3   0.688616 0.363533 0.481522 -0.121352
C6    C     C_3   0.278803 0.304663 0.517343 -0.076947
C7    C     C_3   0.188075 0.866676 0.481216 -0.123044
C8    C     C_3   0.778042 0.803450 0.517452 -0.079635
C9    C     C_3   0.744399 0.389448 0.434911 0.022149
C10   C     C_3   0.253777 0.400064 0.566648 0.020709
C11   C     C_3   0.244384 0.889862 0.434873 0.022227
C12   C     C_3   0.753950 0.900009 0.566648 0.019719
C13   C     C_3   0.760190 0.515729 0.466386 -0.136145
C14   C     C_3   0.285348 0.506241 0.529412 -0.135324
C15   C     C_3   0.261981 0.015337 0.466687 -0.135407
C16   C     C_3   0.786413 0.004876 0.529147 -0.134187
C17   C     C_3   0.814385 0.453238 0.519494 -0.147487
C18   C     C_3   0.216196 0.518030 0.482270 -0.155787
C19   C     C_3   0.314974 0.950080 0.519865 -0.148913
C20   C     C_3   0.717288 0.018264 0.482128 -0.155112
C21   C     C_3   0.798409 0.326180 0.487196 -0.116749
C22   C     C_3   0.185186 0.411685 0.520787 -0.113796
C23   C     C_3   0.297186 0.823892 0.487267 -0.117859
C24   C     C_3   0.685426 0.913218 0.520896 -0.115294
C25   C     C_3   0.743157 0.302343 0.535067 -0.173792
C26   C     C_3   0.209742 0.317338 0.470611 -0.112234
C27   C     C_3   0.241403 0.802793 0.534864 -0.173228
C28   C     C_3   0.709013 0.817710 0.470812 -0.113329
C29   C     C_3   0.759335 0.427889 0.566827 0.093911
C30   C     C_3   0.240684 0.422724 0.432767 0.083235
C31   C     C_3   0.259366 0.927500 0.566902 0.094084
C32   C     C_3   0.740816 0.921863 0.432672 0.083607
C33   C     C_3   0.520327 0.272618 0.968698 0.265950
C34   C     C_3   0.480727 0.273162 0.030244 0.264817
C35   C     C_3   0.020444 0.772451 0.968654 0.265713
C36   C     C_3   0.980846 0.773314 0.030198 0.265061
C37   C     C_3   0.568060 0.172654 0.001873 -0.063829
C38   C     C_3   0.432728 0.172870 0.998214 -0.064937
C39   C     C_3   0.068023 0.672315 0.001870 -0.064503
C40   C     C_3   0.932692 0.673195 0.998210 -0.064526
C41   C     C_3   0.528859 0.174020 0.064670 0.049347
C42   C     C_3   0.471911 0.173004 0.935381 0.047675
C43   C     C_3   0.028825 0.673990 0.064666 0.047975
C44   C     C_3   0.971874 0.673024 0.935379 0.047480
C45   C     C_R   0.534172 0.179578 0.337367 0.550775
C46   C     C_R   0.436023 0.183927 0.651550 0.547222
C47   C     C_R   0.057491 0.682405 0.348071 0.539522
C48   C     C_R   0.938994 0.683562 0.651592 0.541552
C49   C     C_3   0.480690 0.071530 0.032762 -0.143472
C50   C     C_3   0.519819 0.070951 0.968450 -0.143791
C51   C     C_3   0.980504 0.571680 0.032799 -0.142767
C52   C     C_3   0.019631 0.570790 0.968488 -0.144079
C53   C     C_1   0.763460 0.425142 0.904459 0.009728
C54   C     C_1   0.237060 0.425224 0.095806 0.008989
C55   C     C_1   0.263294 0.924763 0.904343 0.009642
C56   C     C_1   0.736902 0.925584 0.095693 0.010289
C57   C     C_1   0.747909 0.409483 0.034913 -0.061236
C58   C     C_1   0.252372 0.408294 0.965233 -0.060535
C59   C     C_1   0.247692 0.908996 0.034780 -0.061347
C60   C     C_1   0.752163 0.908759 0.965102 -0.060795
C61   C     C_1   0.754809 0.415656 0.964089 -0.053780
C62   C     C_1   0.245753 0.415066 0.036205 -0.053219
C63   C     C_1   0.254558 0.915120 0.963943 -0.053705
C64   C     C_1   0.745514 0.915576 0.036064 -0.053106
C65   C     C_1   0.742843 0.396533 0.095235 -0.003529
C66   C     C_1   0.257218 0.395293 0.904871 -0.003753
C67   C     C_1   0.242724 0.896221 0.095137 -0.004761
C68   C     C_1   0.757106 0.895587 0.904776 -0.003621
C69   C     C_R   0.738186 0.359204 0.362862 0.549643
C70   C     C_R   0.260415 0.365619 0.638789 0.537726
C71   C     C_R   0.238247 0.859529 0.362794 0.543767
C72   C     C_R   0.760435 0.865651 0.638794 0.537986
C73   C     C_R   0.721600 0.953073 0.163562 0.542607
C74   C     C_R   0.278430 0.952665 0.836403 0.539732
C75   C     C_R   0.221635 0.452986 0.163602 0.541777
C76   C     C_R   0.778467 0.452755 0.836444 0.539810
C77   C     C_R   0.559288 0.182429 0.135671 0.560267
C78   C     C_R   0.441112 0.181641 0.864438 0.562895
C79   C     C_R   0.059271 0.682423 0.135665 0.563085
C80   C     C_R   0.941093 0.681647 0.864433 0.562792
C81   C     C_R   0.735826 0.360808 0.164455 0.537207
C82   C     C_R   0.264246 0.360228 0.835654 0.535194
C83   C     C_R   0.235803 0.860740 0.164422 0.536860
C84   C     C_R   0.764224 0.860292 0.835623 0.535143
C85   C     C_1   0.455194 0.176801 0.583303 -0.028354
C86   C     C_1   0.505204 0.171058 0.400859 0.005188
C87   C     C_1   0.964337 0.676087 0.586589 -0.021202
C88   C     C_1   0.029190 0.673542 0.411525 0.000465
C89   C     C_1   0.486872 0.169226 0.457375 -0.018691
C90   C     C_1   0.469510 0.171930 0.525212 -0.047272
C91   C     C_1   0.007852 0.670541 0.466355 -0.026199
C92   C     C_1   0.984445 0.671814 0.531204 -0.044251
C93   C     C_3   0.706061 0.489093 0.514430 0.249314
C94   C     C_3   0.307978 0.411721 0.479014 0.232243
C95   C     C_3   0.207253 0.991297 0.514427 0.250067
C96   C     C_3   0.808073 0.909257 0.478843 0.231949
Cr1   Cr    Cr6+3 0.765830 0.160660 0.268180 1.062936
Cr2   Cr    Cr6+3 0.234170 0.160660 0.731820 1.069251
Cr3   Cr    Cr6+3 0.265830 0.660660 0.268180 1.055345
Cr4   Cr    Cr6+3 0.734170 0.660660 0.731820 1.070352
Cr5   Cr    Cr6+3 0.612110 0.009150 0.248770 1.032599
Cr6   Cr    Cr6+3 0.387890 0.009150 0.751230 1.032835
Cr7   Cr    Cr6+3 0.112110 0.509150 0.248770 1.035347
Cr8   Cr    Cr6+3 0.887890 0.509150 0.751230 1.033100
Cr9   Cr    Cr6+3 0.615930 0.324050 0.248450 1.056732
Cr10  Cr    Cr6+3 0.384070 0.324050 0.751550 1.052585
Cr11  Cr    Cr6+3 0.115930 0.824050 0.248450 1.056662
Cr12  Cr    Cr6+3 0.884070 0.824050 0.751550 1.052757
H1    H     H_    0.636651 0.328449 0.463779 0.120377
H2    H     H_    0.307058 0.220273 0.535701 0.107147
H3    H     H_    0.135546 0.835136 0.463444 0.110801
H4    H     H_    0.805910 0.718769 0.536029 0.106682
H5    H     H_    0.767319 0.597596 0.433834 0.113559
H6    H     H_    0.318251 0.579113 0.555615 0.116736
H7    H     H_    0.270500 0.097094 0.434545 0.111983
H8    H     H_    0.819997 0.077283 0.554888 0.118113
H9    H     H_    0.367457 0.982138 0.537390 0.128231
H10   H     H_    0.690112 0.103728 0.463710 0.118126
H11   H     H_    0.866282 0.488877 0.536692 0.125962
H12   H     H_    0.188412 0.603004 0.463998 0.107929
H13   H     H_    0.837171 0.258976 0.474809 0.157773
H14   H     H_    0.134627 0.413566 0.539616 0.145391
H15   H     H_    0.335074 0.755005 0.474865 0.157886
H16   H     H_    0.634951 0.916807 0.539835 0.144792
H17   H     H_    0.734791 0.221721 0.568049 0.115345
H18   H     H_    0.178722 0.243743 0.442852 0.142817
H19   H     H_    0.231593 0.722478 0.567507 0.115474
H20   H     H_    0.677169 0.744527 0.443642 0.142050
H21   H     H_    0.464829 0.988495 0.060238 0.148602
H22   H     H_    0.535390 0.987456 0.941936 0.148645
H23   H     H_    0.964525 0.488770 0.060303 0.149386
H24   H     H_    0.035082 0.487169 0.942004 0.148662
O1    O     O_R   0.783230 0.287800 0.346510 -0.509310
O2    O     O_R   0.216770 0.287800 0.653490 -0.474975
O3    O     O_R   0.283230 0.787800 0.346510 -0.509576
O4    O     O_R   0.716770 0.787800 0.653490 -0.475830
O5    O     O_R   0.554500 0.081650 0.170370 -0.506215
O6    O     O_R   0.445500 0.081650 0.829630 -0.498526
O7    O     O_R   0.054500 0.581650 0.170370 -0.499635
O8    O     O_R   0.945500 0.581650 0.829630 -0.498675
O9    O     O_R   0.545430 0.285140 0.163100 -0.440990
O10   O     O_R   0.454570 0.285140 0.836900 -0.436042
O11   O     O_R   0.045430 0.785140 0.163100 -0.435071
O12   O     O_R   0.954570 0.785140 0.836900 -0.436131
O13   O     O_R   0.677850 0.374730 0.185500 -0.509202
O14   O     O_R   0.322150 0.374730 0.814500 -0.510380
O15   O     O_R   0.177850 0.874730 0.185500 -0.508781
O16   O     O_R   0.822150 0.874730 0.814500 -0.510463
O17   O     O_3   0.664630 0.164620 0.255130 -0.295030
O18   O     O_3   0.335370 0.164620 0.744870 -0.313387
O19   O     O_3   0.164630 0.664620 0.255130 -0.307679
O20   O     O_3   0.835370 0.664620 0.744870 -0.310856
O21   O     O_R   0.760130 0.037060 0.338610 -0.469389
O22   O     O_R   0.239870 0.037060 0.661390 -0.451494
O23   O     O_R   0.260130 0.537060 0.338610 -0.470351
O24   O     O_R   0.739870 0.537060 0.661390 -0.451806
O25   O     O_R   0.666620 0.921370 0.332440 -0.529335
O26   O     O_R   0.333380 0.921370 0.667560 -0.535750
O27   O     O_R   0.166620 0.421370 0.332440 -0.534480
O28   O     O_R   0.833380 0.421370 0.667560 -0.534693
O29   O     O_R   0.557170 0.082420 0.312350 -0.494215
O30   O     O_R   0.442830 0.082420 0.687650 -0.483733
O31   O     O_R   0.057170 0.582420 0.312350 -0.481928
O32   O     O_R   0.942830 0.582420 0.687650 -0.484384
O33   O     O_R   0.548310 0.285980 0.316250 -0.497275
O34   O     O_R   0.451690 0.285980 0.683750 -0.486480
O35   O     O_R   0.048310 0.785980 0.316250 -0.484620
O36   O     O_R   0.951690 0.785980 0.683750 -0.488038
O37   O     O_R   0.680520 0.375500 0.327470 -0.508853
O38   O     O_R   0.319480 0.375500 0.672530 -0.525227
O39   O     O_R   0.180520 0.875500 0.327470 -0.519296
O40   O     O_R   0.819480 0.875500 0.672530 -0.523475
O41   O     O_R   0.780350 0.286970 0.193350 -0.500290
O42   O     O_R   0.219650 0.286970 0.806650 -0.502317
O43   O     O_R   0.280350 0.786970 0.193350 -0.500538
O44   O     O_R   0.719650 0.786970 0.806650 -0.502324
O45   O     O_R   0.757460 0.036290 0.196640 -0.489510
O46   O     O_R   0.242540 0.036290 0.803360 -0.491567
O47   O     O_R   0.257460 0.536290 0.196640 -0.489112
O48   O     O_R   0.742540 0.536290 0.803360 -0.491550
O49   O     O_R   0.663740 0.920540 0.179290 -0.512947
O50   O     O_R   0.336260 0.920540 0.820710 -0.512015
O51   O     O_R   0.163740 0.420540 0.179290 -0.512588
O52   O     O_R   0.836260 0.420540 0.820710 -0.512104
O53   O     O_3   0.657755 0.572399 0.532604 -0.674410
H25   H     H_    0.620895 0.573444 0.493161 0.316168
O54   O     O_3   0.371054 0.410299 0.454130 -0.686468
H26   H     H_    0.405338 0.416506 0.495636 0.326802
O55   O     O_3   0.160005 0.076573 0.532743 -0.675170
H27   H     H_    0.122178 0.076527 0.494244 0.316123
O56   O     O_3   0.871123 0.905468 0.453967 -0.682215
H28   H     H_    0.905424 0.905427 0.495638 0.326086
C97   C     C_3   0.644148 0.169149 0.000297 -0.389181
H29   H     H_    0.658741 0.242353 0.965388 0.173002
H30   H     H_    0.671628 0.179874 0.053025 0.121542
H31   H     H_    0.657413 0.080157 0.978674 0.149347
C98   C     C_3   0.356627 0.169191 0.999773 -0.390123
H32   H     H_    0.342215 0.241189 0.034923 0.173096
H33   H     H_    0.329223 0.181592 0.947072 0.122052
H34   H     H_    0.343078 0.079372 0.020993 0.148763
C99   C     C_3   0.144104 0.668328 0.000328 -0.389448
H35   H     H_    0.171585 0.680301 0.052959 0.121766
H36   H     H_    0.157257 0.578629 0.979494 0.149283
H37   H     H_    0.158798 0.740454 0.964801 0.173167
C100  C     C_3   0.856584 0.670023 0.999807 -0.389110
H38   H     H_    0.842279 0.743330 0.034190 0.173718
H39   H     H_    0.829171 0.680872 0.946999 0.121463
H40   H     H_    0.842932 0.581048 0.021994 0.149404
O57   O     O_3   0.541525 0.379152 0.936563 -0.657261
H41   H     H_    0.571235 0.423835 0.972980 0.332186
O58   O     O_3   0.459951 0.380209 0.061213 -0.658462
H42   H     H_    0.430045 0.424221 0.024426 0.332498
O59   O     O_3   0.041810 0.878805 0.936473 -0.657379
H43   H     H_    0.071672 0.923308 0.972846 0.332206
O60   O     O_3   0.960243 0.880541 0.061120 -0.657074
H44   H     H_    0.930518 0.924767 0.024278 0.332366

loop_
_geom_bond_atom_site_label_1
_geom_bond_atom_site_label_2
_ccdc_geom_bond_type
C58   C62   S    
C79   O7    A    
Cr2   O22   S    
C67   C83   S    
Cr10  O18   S    
C83   O43   A    
C3    C30   S    
C17   C29   S    
C99   H35   S    
C14   C18   S    
C19   C23   S    
C35   C36   S    
C8    C96   S    
Cr1   O1    S    
C44   C80   S    
C19   C31   S    
Cr6   O26   S    
C20   H10   S    
C48   O32   A    
C45   O33   A    
C81   O41   A    
C49   C50   S    
C38   C49   S    
Cr11  O39   S    
C100  H38   S    
C10   C22   S    
C71   O39   A    
C15   C19   S    
Cr2   O18   S    
Cr9   O37   S    
C37   C41   S    
Cr7   O51   S    
C33   C42   S    
C72   O40   A    
C96   O56   S    
C16   C20   S    
C31   C95   S    
C77   O5    A    
C38   C42   S    
C78   O10   A    
C36   O60   S    
C15   C95   S    
Cr2   O42   S    
C41   C77   S    
C11   C71   S    
C72   O4    A    
C43   C79   S    
C47   O31   A    
C78   O6    A    
C24   H16   S    
C7    C27   S    
C75   O51   A    
Cr6   O6    S    
Cr5   O17   S    
C98   H33   S    
C25   H17   S    
C7    C11   S    
C9    C13   S    
C50   H22   S    
C59   C67   T    
Cr12  O20   S    
C55   C74   S    
C33   O57   S    
C58   C66   T    
C79   O11   A    
C20   C24   S    
C7    H3    S    
C6    C94   S    
C55   C63   T    
Cr4   O44   S    
C95   O55   S    
C69   O1    A    
C56   C64   T    
Cr10  O10   S    
C18   C30   S    
C80   O12   A    
Cr1   O21   S    
Cr2   O46   S    
C75   O47   A    
C73   O49   A    
C4    C29   S    
Cr7   O19   S    
C46   C85   S    
C73   O45   A    
C44   C52   S    
C100  H39   S    
C39   C52   S    
Cr12  O36   S    
Cr5   O25   S    
Cr5   O29   S    
C2    O22   A    
C18   C22   S    
C87   C92   T    
C3    O27   A    
C99   H36   S    
C98   H32   S    
C34   C41   S    
C11   C15   S    
Cr8   O28   S    
C16   H8    S    
C45   O29   A    
C41   C49   S    
C82   O14   A    
C22   H14   S    
C52   H24   S    
Cr9   O17   S    
C84   O16   A    
C25   C29   S    
Cr11  O35   S    
C16   C96   S    
Cr1   O41   S    
Cr5   O5    S    
C27   C31   S    
C51   C52   S    
Cr6   O50   S    
C12   C16   S    
C36   C40   S    
C94   O54   S    
O57   H41   S    
C76   O52   A    
C10   C14   S    
C46   O30   A    
C91   C92   S    
C29   C93   S    
C23   H15   S    
C54   C62   T    
C97   H30   S    
Cr11  O15   S    
C80   O8    A    
Cr3   O19   S    
C1    C32   S    
C33   C37   S    
C27   H19   S    
Cr3   O23   S    
C2    C31   S    
C68   C84   S    
Cr3   O47   S    
C6    H2    S    
C98   H34   S    
C35   C39   S    
O60   H44   S    
C6    C10   S    
C5    C9    S    
Cr7   O7    S    
C66   C82   S    
C47   O35   A    
Cr1   O45   S    
O58   H42   S    
C74   O46   A    
C88   C91   T    
C28   C32   S    
C8    C12   S    
C97   H31   S    
Cr9   O13   S    
C3    O23   A    
C33   C34   S    
C48   C87   S    
Cr3   O3    S    
Cr4   O20   S    
C69   O37   A    
C1    O21   A    
C35   C44   S    
C35   O59   S    
C19   H9    S    
C42   C50   S    
C83   O15   A    
C10   C70   S    
C38   C98   S    
Cr8   O52   S    
Cr6   O18   S    
C42   C78   S    
C23   C27   S    
Cr12  O40   S    
C22   C26   S    
C8    C28   S    
C99   H37   S    
C5    C25   S    
C59   C63   S    
C53   C76   S    
C93   O53   S    
Cr4   O24   S    
C9    C21   S    
C53   C61   T    
Cr4   O48   S    
C18   H12   S    
Cr12  O12   S    
Cr5   O49   S    
Cr6   O30   S    
Cr7   O27   S    
C20   C32   S    
C100  H40   S    
O56   H28   S    
C21   C25   S    
C40   C100  S    
C51   H23   S    
C56   C73   S    
C46   O34   A    
C4    O24   A    
C34   C38   S    
Cr7   O31   S    
Cr1   O17   S    
Cr8   O20   S    
C24   C28   S    
C57   C65   T    
C76   O48   A    
C86   C89   T    
C4    O28   A    
Cr2   O2    S    
Cr8   O32   S    
C5    C93   S    
C85   C90   T    
C57   C61   S    
C74   O50   A    
C40   C51   S    
C7    C95   S    
C12   C24   S    
C81   O13   A    
Cr10  O14   S    
C13   C17   S    
C60   C64   S    
C47   C88   S    
C9    C69   S    
C1    O25   A    
C45   C86   S    
C70   O38   A    
C82   O42   A    
Cr11  O19   S    
O54   H26   S    
C32   C96   S    
C14   H6    S    
C28   H20   S    
C71   O3    A    
C37   C50   S    
C43   C51   S    
O53   H25   S    
C6    C26   S    
C49   H21   S    
Cr10  O34   S    
O59   H43   S    
C11   C23   S    
C8    H4    S    
Cr9   O33   S    
C15   H7    S    
C39   C99   S    
C21   H13   S    
O55   H27   S    
C12   C72   S    
Cr9   O9    S    
C77   O9    A    
C34   O58   S    
C17   H11   S    
C54   C75   S    
Cr8   O8    S    
C40   C44   S    
Cr3   O43   S    
C2    O26   A    
C60   C68   T    
C30   C94   S    
C97   H29   S    
Cr10  O38   S    
C39   C43   S    
C13   C93   S    
C70   O2    A    
C26   H18   S    
C65   C81   S    
C36   C43   S    
C5    H1    S    
C89   C90   S    
C84   O44   A    
Cr11  O11   S    
C48   O36   A    
C14   C94   S    
C13   H5    S    
Cr4   O4    S    
C37   C97   S    
Cr12  O16   S    
C26   C30   S    
C17   C21   S    
