data_mof_unit_5672.cif
_audit_creation_date              2012-12-11T14:08:43-0500
_audit_creation_method            fapswitch 2.2
_symmetry_space_group_name_H-M    P1
_symmetry_Int_Tables_number       1
_space_group_crystal_system       triclinic
_cell_length_a                    28.194893
_cell_length_b                    7.185366
_cell_length_c                    17.202933
_cell_angle_alpha                 89.999889
_cell_angle_beta                  101.722969
_cell_angle_gamma                 90.000581
_cell_volume                      3412.45767698

loop_
_atom_site_label
_atom_site_type_symbol
_atom_type_description
_atom_site_fract_x
_atom_site_fract_y
_atom_site_fract_z
_atom_type_partial_charge
O1    O     O_R   0.000700 0.436510 0.857920 -0.534120
O2    O     O_R   0.999300 0.563490 0.142080 -0.534121
O3    O     O_R   0.999300 0.936510 0.642080 -0.534120
O4    O     O_R   0.000700 0.063490 0.357920 -0.534120
O5    O     O_R   0.930080 0.766380 0.721890 -0.538879
O6    O     O_R   0.069920 0.233620 0.278110 -0.538878
O7    O     O_R   0.069920 0.266380 0.778110 -0.538879
O8    O     O_R   0.930080 0.733620 0.221890 -0.538877
C1    C     C_R   0.910400 0.597870 0.710125 0.692568
C2    C     C_R   0.089599 0.402130 0.289875 0.692564
C3    C     C_R   0.089600 0.097872 0.789877 0.692573
C4    C     C_R   0.910401 0.902128 0.210125 0.692570
O9    O     O_R   0.996180 0.766230 0.862310 -0.544299
O10   O     O_R   0.003820 0.233770 0.137690 -0.544295
O11   O     O_R   0.003820 0.266230 0.637690 -0.544300
O12   O     O_R   0.996180 0.733770 0.362310 -0.544299
O13   O     O_R   0.065870 0.936460 0.783500 -0.534132
O14   O     O_R   0.934130 0.063540 0.216500 -0.534137
O15   O     O_R   0.934130 0.436460 0.716500 -0.534134
O16   O     O_R   0.065870 0.563540 0.283500 -0.534142
C5    C     C_R   0.998481 0.596455 0.894507 0.754571
C6    C     C_R   0.001519 0.403545 0.105493 0.754574
C7    C     C_R   0.001519 0.096455 0.605493 0.754570
C8    C     C_R   0.998481 0.903544 0.394507 0.754567
O17   O     O_3   0.022790 0.603020 0.723980 -0.369376
O18   O     O_3   0.977210 0.396980 0.276020 -0.369376
O19   O     O_3   0.977210 0.103020 0.776020 -0.369376
O20   O     O_3   0.022790 0.896980 0.223980 -0.369380
V1    V     V_3+5 0.995770 0.877900 0.754830 1.462984
V2    V     V_3+5 0.004230 0.122100 0.245170 1.462983
V3    V     V_3+5 0.004230 0.377900 0.745170 1.462982
V4    V     V_3+5 0.995770 0.622100 0.254830 1.462975
C9    C     C_2   0.001707 0.082718 0.519570 -0.322839
C10   C     C_2   0.998293 0.917282 0.480430 -0.322839
C11   C     C_2   0.998293 0.582717 0.980430 -0.322837
C12   C     C_2   0.001707 0.417283 0.019570 -0.322835
C13   C     C_R   0.682067 0.899749 0.032046 0.598134
C14   C     C_R   0.317932 0.100244 0.967996 0.598140
C15   C     C_R   0.317929 0.399750 0.467999 0.598136
C16   C     C_R   0.682065 0.600227 0.532033 0.598140
O21   O     O_2   0.710104 0.824481 0.985318 -0.507603
O22   O     O_2   0.289894 0.175504 0.014725 -0.507601
O23   O     O_2   0.289891 0.324487 0.514729 -0.507601
O24   O     O_2   0.710102 0.675480 0.485299 -0.507598
N1    N     N_R   0.702792 0.961550 0.106168 -0.562277
N2    N     N_R   0.297207 0.038452 0.893874 -0.562275
N3    N     N_R   0.297205 0.461541 0.393875 -0.562278
N4    N     N_R   0.702791 0.538435 0.606155 -0.562277
C17   C     C_R   0.675577 0.042275 0.154387 0.611603
C18   C     C_R   0.324421 0.957736 0.845653 0.611655
C19   C     C_R   0.324421 0.542269 0.345657 0.611617
C20   C     C_R   0.675577 0.457724 0.654379 0.611635
C21   C     C_R   0.774411 0.780368 0.172842 -0.062241
C22   C     C_R   0.225590 0.219675 0.827216 -0.062229
C23   C     C_R   0.225587 0.280389 0.327173 -0.062226
C24   C     C_R   0.774410 0.719645 0.672819 -0.062235
C25   C     C_R   0.825171 0.764138 0.199581 -0.124653
C26   C     C_R   0.174831 0.235898 0.800460 -0.124646
C27   C     C_R   0.174828 0.264177 0.300410 -0.124667
C28   C     C_R   0.825170 0.735875 0.699565 -0.124649
C29   C     C_R   0.835120 0.073175 0.147075 -0.170214
C30   C     C_R   0.164879 0.926800 0.852925 -0.170184
C31   C     C_R   0.164876 0.573137 0.352969 -0.170270
C32   C     C_R   0.835120 0.426802 0.647076 -0.170196
C33   C     C_R   0.785026 0.088577 0.121698 -0.073259
C34   C     C_R   0.214972 0.911400 0.878315 -0.073239
C35   C     C_R   0.214970 0.588532 0.378358 -0.073264
C36   C     C_R   0.785026 0.411398 0.621693 -0.073245
C37   C     C_R   0.754470 0.942935 0.133764 0.337155
C38   C     C_R   0.245529 0.057073 0.866275 0.337169
C39   C     C_R   0.245526 0.442923 0.366275 0.337133
C40   C     C_R   0.754470 0.557056 0.633750 0.337169
C41   C     C_R   0.602488 0.992935 0.053102 -0.048679
C42   C     C_R   0.397510 0.007059 0.946939 -0.048685
C43   C     C_R   0.397508 0.492940 0.446944 -0.048678
C44   C     C_R   0.602487 0.507055 0.553098 -0.048682
C45   C     C_R   0.631767 0.912967 0.004464 -0.029781
C46   C     C_R   0.368231 0.087025 0.995579 -0.029785
C47   C     C_R   0.368228 0.412973 0.495582 -0.029781
C48   C     C_R   0.631765 0.587013 0.504455 -0.029782
C49   C     C_R   0.610567 0.855042 0.927874 -0.090921
C50   C     C_R   0.389432 0.144952 0.072168 -0.090907
C51   C     C_R   0.389429 0.355057 0.572173 -0.090910
C52   C     C_R   0.610563 0.644940 0.427866 -0.090903
C53   C     C_R   0.624707 0.067361 0.127759 -0.087227
C54   C     C_R   0.375291 0.932643 0.872280 -0.087230
C55   C     C_R   0.375289 0.567366 0.372287 -0.087230
C56   C     C_R   0.624707 0.432639 0.627756 -0.087232
C57   C     C_R   0.856293 0.911624 0.185763 -0.095067
C58   C     C_R   0.143708 0.088377 0.814249 -0.095068
C59   C     C_R   0.143706 0.411630 0.314245 -0.095051
C60   C     C_R   0.856292 0.588370 0.685760 -0.095064
H1    H     H_    0.857427 0.188437 0.135419 0.144674
H2    H     H_    0.142571 0.811515 0.864562 0.144689
H3    H     H_    0.142568 0.688365 0.364643 0.144641
H4    H     H_    0.857427 0.311527 0.635429 0.144678
H5    H     H_    0.769824 0.214318 0.091931 0.136163
H6    H     H_    0.230172 0.785638 0.908071 0.136174
H7    H     H_    0.230170 0.714238 0.408149 0.136180
H8    H     H_    0.769825 0.285644 0.591929 0.136170
C61   C     C_R   0.478014 0.909328 0.927321 -0.000151
C62   C     C_R   0.521985 0.090669 0.072718 -0.000151
C63   C     C_R   0.521983 0.409339 0.572724 -0.000159
C64   C     C_R   0.478012 0.590675 0.427327 -0.000150
C65   C     C_R   0.470381 0.080523 0.048330 0.037684
C66   C     C_R   0.529617 0.919471 0.951710 0.037684
C67   C     C_R   0.529615 0.580523 0.451712 0.037684
C68   C     C_R   0.470379 0.419485 0.548336 0.037674
C69   C     C_R   0.448875 0.000894 0.973656 0.071074
C70   C     C_R   0.551123 0.999099 0.026384 0.071076
C71   C     C_R   0.551122 0.500896 0.526385 0.071072
C72   C     C_R   0.448873 0.499107 0.473662 0.071079
C73   C     C_R   0.453961 0.801853 0.861071 -0.079705
C74   C     C_R   0.546037 0.198155 0.138965 -0.079732
C75   C     C_R   0.546036 0.301869 0.638975 -0.079715
C76   C     C_R   0.453960 0.698167 0.361083 -0.079737
C77   C     C_R   0.404095 0.827288 0.829718 -0.097755
C78   C     C_R   0.595903 0.172723 0.170319 -0.097769
C79   C     C_R   0.595903 0.327295 0.670322 -0.097771
C80   C     C_R   0.404093 0.672741 0.329732 -0.097765
O25   O     O_2   0.302093 0.903633 0.772294 -0.493631
O26   O     O_2   0.697905 0.096397 0.227743 -0.493635
O27   O     O_2   0.697907 0.403620 0.727737 -0.493631
O28   O     O_2   0.302094 0.596383 0.272298 -0.493633
C81   C     C_R   0.560825 0.865586 0.901049 -0.150237
C82   C     C_R   0.439175 0.134411 0.098992 -0.150242
C83   C     C_R   0.439171 0.365610 0.598999 -0.150246
C84   C     C_R   0.560820 0.634404 0.401046 -0.150240
H9    H     H_    0.004496 0.211741 0.487903 0.154272
H10   H     H_    0.995504 0.788259 0.512097 0.154272
H11   H     H_    0.995504 0.711741 0.012097 0.154275
H12   H     H_    0.004496 0.288259 0.987903 0.154274
H13   H     H_    0.632499 0.804911 0.887322 0.188411
H14   H     H_    0.367501 0.195085 0.112720 0.188420
H15   H     H_    0.367496 0.304931 0.612726 0.188414
H16   H     H_    0.632494 0.695067 0.387311 0.188417
C85   C     C_1   0.155761 0.401690 0.757042 0.336995
N5    N     N_1   0.140736 0.534255 0.722359 -0.324607
C86   C     C_1   0.844245 0.598383 0.243018 0.337012
N6    N     N_1   0.859274 0.465847 0.277715 -0.324598
C87   C     C_1   0.844242 0.901655 0.742991 0.336998
N7    N     N_1   0.859269 0.034211 0.777680 -0.324600
C88   C     C_1   0.155756 0.098477 0.256930 0.337053
N8    N     N_1   0.140727 0.965988 0.222197 -0.324568
C89   C     C_1   0.257743 0.368953 0.814689 0.350070
N9    N     N_1   0.283531 0.487941 0.804814 -0.294600
C90   C     C_1   0.742259 0.631161 0.185426 0.350112
N10   N     N_1   0.716473 0.512238 0.195353 -0.294527
C91   C     C_1   0.742258 0.868901 0.685370 0.350067
N11   N     N_1   0.716472 0.987871 0.695267 -0.294562
C92   C     C_1   0.257737 0.131160 0.314619 0.350140
N12   N     N_1   0.283522 0.012208 0.304728 -0.294561
C93   C     C_1   0.382900 0.733528 0.756016 0.450208
N13   N     N_1   0.366130 0.658980 0.697224 -0.299301
C94   C     C_1   0.617097 0.266495 0.244017 0.450211
N14   N     N_1   0.633866 0.341053 0.302806 -0.299273
C95   C     C_1   0.617099 0.233537 0.744022 0.450209
N15   N     N_1   0.633869 0.158988 0.802812 -0.299285
C96   C     C_1   0.382897 0.766540 0.256044 0.450218
N16   N     N_1   0.366127 0.841124 0.197265 -0.299282
C97   C     C_1   0.477236 0.641665 0.833049 0.303699
N17   N     N_1   0.495512 0.513455 0.810820 -0.357033
C98   C     C_1   0.522762 0.358365 0.166974 0.303691
N18   N     N_1   0.504486 0.486597 0.189191 -0.357012
C99   C     C_1   0.522757 0.141701 0.667008 0.303717
N19   N     N_1   0.504478 0.013510 0.689249 -0.357034
C100  C     C_1   0.477237 0.858379 0.333076 0.303685
N20   N     N_1   0.495514 0.986611 0.310861 -0.357007
H17   H     H_    0.547777 0.837249 0.838881 0.162176
H18   H     H_    0.452224 0.162758 0.161160 0.162162
H19   H     H_    0.452219 0.337289 0.661168 0.162181
H20   H     H_    0.547769 0.662749 0.338879 0.162164

loop_
_geom_bond_atom_site_label_1
_geom_bond_atom_site_label_2
_ccdc_geom_bond_type
O17   V3    S    
O1    C5    A    
C95   N15   T    
C23   C27   A    
O19   V1    S    
O13   V1    S    
O3    C7    A    
C90   N10   T    
C21   C90   S    
C48   C52   A    
O15   V3    S    
C42   C69   A    
C97   N17   T    
C41   C70   A    
O7    C3    A    
C66   C81   A    
C43   C72   A    
C99   N19   T    
C25   C57   A    
C65   C82   A    
C62   C74   A    
C32   C36   A    
C63   C71   A    
O10   V2    S    
C67   C84   A    
C14   O22   S    
N4    C20   A    
C12   H12   S    
C22   C26   A    
O4    C8    A    
C20   O27   S    
C29   H1    S    
C61   C69   A    
C88   N8    T    
C31   H3    S    
O1    V3    S    
C61   C73   A    
C25   C86   S    
C62   C65   A    
O2    V4    S    
O3    V1    S    
C50   C82   A    
C64   C76   A    
C1    O15   A    
C52   H16   S    
C98   N18   T    
C2    O16   A    
C24   C40   A    
O2    C6    A    
C80   C96   S    
C92   N12   T    
C16   C48   A    
C76   C100  S    
C63   C68   A    
O14   V2    S    
N1    C17   A    
C79   C95   S    
C75   C99   S    
C81   H17   S    
C44   C56   A    
C51   H15   S    
C36   C40   A    
C68   C72   A    
O11   C7    A    
C21   C37   A    
O12   C8    A    
C19   O28   S    
C31   C59   A    
C18   O25   S    
C52   C84   A    
N4    C40   S    
C1    C60   S    
C29   C57   A    
C89   N9    T    
O5    V1    S    
C28   C60   A    
C31   C35   A    
O7    V3    S    
C30   C34   A    
N1    C37   S    
O8    V4    S    
C17   C53   A    
C4    C57   S    
C20   C56   A    
C32   H4    S    
C19   C55   A    
C100  N20   T    
C64   C72   A    
C21   C25   A    
O18   V4    S    
C15   O23   S    
C14   C46   A    
C7    C9    S    
C13   C45   A    
O11   V3    S    
C8    C10   S    
C76   C80   A    
O9    V1    S    
C11   C12   D    
C15   C47   A    
C50   H14   S    
C63   C75   A    
C36   H8    S    
O5    C1    A    
C82   H18   S    
C28   C87   S    
C46   C50   A    
C96   N16   T    
C22   C38   A    
C45   C49   A    
O8    C4    A    
N3    C39   S    
C9    C10   D    
O9    C5    A    
C78   C94   S    
C27   C59   A    
C42   C54   A    
C56   C79   A    
C49   H13   S    
C26   C58   A    
C41   C53   A    
C74   C78   A    
C22   C89   S    
C73   C77   A    
C26   C85   S    
C43   C55   A    
O6    V2    S    
C2    C59   S    
C84   H20   S    
C75   C79   A    
C30   H2    S    
C77   C93   S    
C62   C70   A    
C73   C97   S    
C32   C60   A    
C13   N1    A    
C11   H11   S    
N2    C38   S    
C15   N3    A    
O16   V4    S    
C9    H9    S    
C61   C66   A    
C16   N4    A    
C65   C69   A    
C3    O13   A    
C49   C81   A    
C67   C71   A    
C44   C48   A    
C51   C83   A    
O6    C2    A    
N3    C19   A    
C86   N6    T    
C23   C92   S    
C5    C11   S    
C35   H7    S    
O12   V4    S    
C6    C12   S    
C85   N5    T    
N2    C18   A    
O10   C6    A    
O20   V2    S    
C93   N13   T    
C33   H5    S    
C55   C80   A    
C91   N11   T    
C47   C51   A    
C3    C58   S    
C34   H6    S    
C74   C98   S    
C34   C38   A    
C43   C47   A    
C44   C71   A    
C33   C37   A    
C17   O26   S    
C30   C58   A    
C54   C77   A    
C35   C39   A    
C68   C83   A    
C13   O21   S    
C53   C78   A    
O4    V2    S    
C14   N2    A    
C18   C54   A    
C27   C88   S    
C29   C33   A    
C16   O24   S    
C24   C28   A    
C10   H10   S    
C66   C70   A    
C42   C46   A    
C4    O14   A    
C94   N14   T    
C41   C45   A    
C24   C91   S    
C87   N7    T    
C83   H19   S    
C64   C67   A    
C23   C39   A    
