data_mof_unit_58380.cif
_audit_creation_date              2012-12-11T15:17:54-0500
_audit_creation_method            fapswitch 2.2
_symmetry_space_group_name_H-M    P1
_symmetry_Int_Tables_number       1
_space_group_crystal_system       triclinic
_cell_length_a                    15.685361
_cell_length_b                    15.744747
_cell_length_c                    34.381385
_cell_angle_alpha                 89.902638
_cell_angle_beta                  89.907114
_cell_angle_gamma                 120.448149
_cell_volume                      7319.86047252

loop_
_atom_site_label
_atom_site_type_symbol
_atom_type_description
_atom_site_fract_x
_atom_site_fract_y
_atom_site_fract_z
_atom_type_partial_charge
C1    C     C_R   0.578225 0.441433 0.555280 0.581784
C2    C     C_R   0.548279 0.048118 0.202314 0.336111
C3    C     C_3   0.836974 0.728211 0.575654 -0.355745
C4    C     C_3   0.322208 0.066710 0.592595 0.012330
C5    C     C_3   0.260977 0.061616 0.557427 -0.349626
C6    C     C_3   0.301291 0.997383 0.079698 0.003218
C7    C     C_3   0.196359 0.964289 0.066791 -0.368659
C8    C     C_3   0.668920 0.596025 0.047113 0.002337
C9    C     C_3   0.748598 0.672799 0.020649 -0.359503
C10   C     C_3   0.935306 0.321838 0.075547 -0.002938
C11   C     C_3   0.903871 0.217050 0.063641 -0.369306
C12   C     C_3   0.936454 0.315374 0.934552 -0.000862
C13   C     C_R   0.531581 0.454894 0.198008 0.347165
C14   C     C_3   0.928911 0.224410 0.953423 -0.366170
C15   C     C_3   0.656158 0.746263 0.886260 -0.001267
C16   C     C_3   0.736527 0.834923 0.907880 -0.375769
C17   C     C_3   0.370196 0.051672 0.938161 0.001204
C18   C     C_3   0.284001 0.045814 0.960808 -0.362955
C19   C     C_3   0.461035 0.932080 0.421886 0.000458
C20   C     C_3   0.389094 0.864525 0.452839 -0.353434
C21   C     C_3   0.757088 0.667198 0.387937 -0.004884
C22   C     C_3   0.855999 0.740802 0.369663 -0.393839
C23   C     C_3   0.051356 0.360580 0.434879 0.002117
C24   C     C_R   0.045730 0.528923 0.216468 0.339023
C25   C     C_3   0.045991 0.270313 0.453455 -0.360491
C26   C     C_R   0.009693 0.351107 0.670254 0.070092
C27   C     C_R   0.103306 0.394509 0.687786 -0.090172
C28   C     C_R   0.134251 0.335701 0.706316 -0.104050
C29   C     C_R   0.072419 0.233380 0.707306 -0.105804
C30   C     C_R   0.979257 0.189629 0.689863 -0.115872
C31   C     C_R   0.947809 0.248148 0.671415 -0.036620
C32   C     C_R   0.592353 0.685736 0.652777 0.069976
C33   C     C_R   0.577099 0.753809 0.632077 -0.051718
C34   C     C_R   0.622018 0.851765 0.644303 -0.107335
C35   C     C_R   0.990797 0.430952 0.855309 -0.102022
C36   C     C_R   0.682631 0.882469 0.677171 -0.082754
C37   C     C_R   0.698483 0.815196 0.697855 -0.098180
C38   C     C_R   0.653860 0.717155 0.685678 -0.085578
C39   C     C_R   0.333946 0.938841 0.665328 0.062436
C40   C     C_R   0.287609 0.836830 0.659376 -0.062761
C41   C     C_R   0.192181 0.774365 0.673714 -0.094356
C42   C     C_R   0.142520 0.813467 0.693953 -0.088751
C43   C     C_R   0.188480 0.914920 0.700164 -0.111113
C44   C     C_R   0.283924 0.977539 0.685947 -0.081784
C45   C     C_R   0.355351 0.001769 0.173862 0.058422
C46   C     C_R   0.483330 0.646848 0.832732 -0.099895
C47   C     C_R   0.267291 0.916533 0.185079 -0.038574
C48   C     C_R   0.198734 0.923676 0.208779 -0.114230
C49   C     C_R   0.217640 0.015859 0.221506 -0.110640
C50   C     C_R   0.305167 0.100971 0.210582 -0.103119
C51   C     C_R   0.374000 0.094179 0.186862 -0.088074
C52   C     C_R   0.696283 0.589652 0.145071 0.068290
C53   C     C_R   0.753456 0.691947 0.150848 -0.037933
C54   C     C_R   0.850910 0.734447 0.163872 -0.118941
C55   C     C_R   0.891795 0.675271 0.171282 -0.085408
C56   C     C_R   0.835825 0.573593 0.165124 -0.087261
C57   C     C_R   0.436129 0.006963 0.855865 -0.096103
C58   C     C_R   0.738489 0.530814 0.151911 -0.096806
C59   C     C_R   0.991541 0.345169 0.172202 0.068389
C60   C     C_R   0.046095 0.296738 0.171162 -0.036510
C61   C     C_R   0.009559 0.205177 0.189294 -0.116122
C62   C     C_R   0.918588 0.161454 0.208634 -0.109342
C63   C     C_R   0.863983 0.209181 0.209847 -0.100573
C64   C     C_R   0.899952 0.300592 0.191597 -0.085024
C65   C     C_R   0.503691 0.047722 0.346187 -0.110442
C66   C     C_R   0.655022 0.498809 0.334809 -0.105977
C67   C     C_R   0.014152 0.439437 0.356966 -0.104039
C68   C     C_R   0.026435 0.442223 0.893276 0.248343
C69   C     C_R   0.558254 0.136902 0.555144 0.585053
C70   C     C_R   0.491366 0.661281 0.873119 0.249846
C71   C     C_R   0.413529 0.973163 0.894100 0.250701
C72   C     C_R   0.505722 0.069097 0.385689 0.264858
C73   C     C_R   0.665790 0.500413 0.375159 0.258090
C74   C     C_R   0.973964 0.412915 0.394239 0.249190
C75   C     C_R   0.075066 0.615333 0.890831 -0.179993
C76   C     C_R   0.340606 0.502913 0.881483 -0.172604
C77   C     C_R   0.548371 0.939363 0.893244 -0.166038
C78   C     C_R   0.649898 0.230796 0.374036 -0.178619
C79   C     C_R   0.511046 0.344056 0.379314 -0.188303
C80   C     C_R   0.863781 0.421853 0.554875 0.554514
C81   C     C_R   0.943564 0.549563 0.393846 -0.170284
C82   C     C_R   0.038415 0.603185 0.853188 -0.139173
C83   C     C_R   0.336544 0.486899 0.841477 -0.134905
C84   C     C_R   0.570909 0.973717 0.855116 -0.132352
C85   C     C_R   0.647705 0.208909 0.334649 -0.122089
C86   C     C_R   0.499492 0.345089 0.339009 -0.133309
C87   C     C_R   0.983887 0.575673 0.356596 -0.136424
C88   C     C_R   0.000483 0.512122 0.834444 -0.013054
C89   C     C_R   0.407333 0.559124 0.816874 -0.003094
C90   C     C_R   0.510992 0.002010 0.835384 -0.014648
C91   C     C_R   0.441743 0.577888 0.054838 0.575168
C92   C     C_R   0.574506 0.117131 0.320422 -0.012601
C93   C     C_R   0.571029 0.423331 0.316511 -0.009865
C94   C     C_R   0.014709 0.517583 0.337113 -0.015727
C95   C     C_R   0.074779 0.536732 0.910355 0.016128
C96   C     C_R   0.418205 0.589693 0.897907 0.019735
C97   C     C_R   0.464405 0.930472 0.911687 0.010331
C98   C     C_R   0.578230 0.162030 0.399518 0.029626
C99   C     C_R   0.593602 0.421855 0.397883 0.012750
C100  C     C_R   0.931308 0.463913 0.411730 0.009460
C101  C     C_R   0.607804 0.418623 0.440300 0.561366
C102  C     C_R   0.137170 0.558508 0.055212 0.556833
C103  C     C_R   0.581964 0.188692 0.440395 0.545442
C104  C     C_R   0.865736 0.422756 0.445852 0.537770
C105  C     C_R   0.418090 0.607162 0.940258 0.586426
C106  C     C_R   0.135214 0.557461 0.945621 0.547996
C107  C     C_R   0.423206 0.866126 0.946013 0.553103
C108  C     C_R   0.918588 0.455256 0.591790 0.009605
C109  C     C_R   0.537792 0.466172 0.589687 0.014993
C110  C     C_R   0.540228 0.087303 0.593138 0.017899
C111  C     C_R   0.459930 0.928132 0.089414 0.010037
C112  C     C_R   0.468201 0.535599 0.087752 0.009602
C113  C     C_R   0.421725 0.863606 0.054962 0.560999
C114  C     C_R   0.088941 0.541332 0.093513 0.004384
C115  C     C_R   0.953547 0.399064 0.610710 0.243659
C116  C     C_R   0.583377 0.563108 0.604797 0.243817
C117  C     C_R   0.444545 0.034408 0.609708 0.245032
C118  C     C_R   0.397100 0.949925 0.111520 0.241200
C119  C     C_R   0.567932 0.573538 0.098293 0.241895
C120  C     C_R   0.047807 0.449006 0.112306 0.244096
C121  C     C_R   0.976761 0.413520 0.650578 -0.009538
C122  C     C_R   0.546045 0.582507 0.639081 -0.016256
C123  C     C_R   0.433910 0.004463 0.649119 -0.016361
C124  C     C_R   0.973676 0.493678 0.713614 0.341058
C125  C     C_R   0.427473 0.993698 0.148339 -0.010271
C126  C     C_R   0.591045 0.543888 0.133487 -0.010463
C127  C     C_R   0.030225 0.442122 0.152738 -0.012271
C128  C     C_R   0.968628 0.487292 0.670892 -0.023231
C129  C     C_R   0.466971 0.503284 0.659656 -0.014101
C130  C     C_R   0.519435 0.031931 0.671765 -0.010988
C131  C     C_R   0.523647 0.023102 0.161464 -0.010350
C132  C     C_R   0.513626 0.472809 0.157392 -0.019278
C133  C     C_R   0.050462 0.527723 0.173770 -0.026857
C134  C     C_R   0.947373 0.551231 0.650329 -0.168444
C135  C     C_R   0.436398 0.514363 0.699295 0.323340
C136  C     C_R   0.421521 0.408450 0.643609 -0.154375
C137  C     C_R   0.612553 0.078760 0.654114 -0.168782
C138  C     C_R   0.588984 0.010721 0.137722 -0.158529
C139  C     C_R   0.415728 0.428027 0.144203 -0.157864
C140  C     C_R   0.081500 0.616213 0.153860 -0.162875
C141  C     C_R   0.922847 0.535481 0.611164 -0.192603
C142  C     C_R   0.455434 0.390466 0.608973 -0.191065
C143  C     C_R   0.622789 0.105209 0.615261 -0.197370
C144  C     C_R   0.556998 0.962436 0.102145 -0.186476
C145  C     C_R   0.393177 0.459541 0.109924 -0.189931
C146  C     C_R   0.515472 0.020611 0.714223 0.357781
C147  C     C_R   0.099900 0.622939 0.114232 -0.181605
C148  C     C_R   0.982710 0.504641 0.792258 0.349436
C149  C     C_R   0.407362 0.540590 0.775079 0.334682
C150  C     C_R   0.518495 0.015624 0.792933 0.354147
C151  C     C_R   0.569470 0.093338 0.278836 0.343524
C152  C     C_R   0.557869 0.431316 0.274448 0.356449
C153  C     C_R   0.035262 0.529624 0.295089 0.348604
C154  C     C_3   0.051874 0.364769 0.573352 0.000219
C155  C     C_3   0.069655 0.281363 0.562612 -0.370509
C156  C     C_3   0.751616 0.658558 0.601892 0.011059
Cr1   Cr    Cr6+3 0.522350 0.263930 0.500020 0.998281
Cr2   Cr    Cr6+3 0.736070 0.258420 0.500020 1.030949
Cr3   Cr    Cr6+3 0.741580 0.477650 0.500020 1.009662
Cr4   Cr    Cr6+3 0.263930 0.522350 0.000020 1.031673
Cr5   Cr    Cr6+3 0.258420 0.736070 0.000020 1.017065
Cr6   Cr    Cr6+3 0.477650 0.741580 0.000020 1.022269
H1    H     H_    0.900448 0.582075 0.596756 0.127526
H2    H     H_    0.662433 0.032023 0.147994 0.127487
H3    H     H_    0.667087 0.665717 0.701742 0.105926
H4    H     H_    0.325245 0.805908 0.643528 0.112249
H5    H     H_    0.156749 0.695774 0.668998 0.125437
H6    H     H_    0.068358 0.765428 0.704755 0.135830
H7    H     H_    0.149938 0.945099 0.715804 0.108628
H8    H     H_    0.318407 0.056221 0.690489 0.115331
H9    H     H_    0.252154 0.844687 0.175576 0.132467
H10   H     H_    0.131021 0.857748 0.217295 0.113577
H11   H     H_    0.164472 0.021358 0.239827 0.111845
H12   H     H_    0.319365 0.172166 0.220425 0.152046
H13   H     H_    0.355449 0.373329 0.161823 0.140631
H14   H     H_    0.441240 0.160728 0.178382 0.129932
H15   H     H_    0.721904 0.738367 0.146015 0.136520
H16   H     H_    0.894376 0.813124 0.168670 0.101053
H17   H     H_    0.966565 0.708439 0.182056 0.117562
H18   H     H_    0.867253 0.527609 0.170931 0.125025
H19   H     H_    0.695476 0.451857 0.147619 0.099218
H20   H     H_    0.117040 0.330146 0.156486 0.129246
H21   H     H_    0.051899 0.168237 0.188432 0.102994
H22   H     H_    0.890466 0.090655 0.222739 0.114227
H23   H     H_    0.793894 0.175244 0.225008 0.153469
H24   H     H_    0.097967 0.682417 0.169453 0.128711
H25   H     H_    0.856705 0.336636 0.192578 0.115143
H26   H     H_    0.960569 0.359513 0.841628 0.149228
H27   H     H_    0.538476 0.703140 0.813854 0.136209
H28   H     H_    0.390838 0.031628 0.841691 0.152616
H29   H     H_    0.445624 0.976949 0.335777 0.146360
H30   H     H_    0.712882 0.558198 0.317903 0.144920
H31   H     H_    0.039351 0.394571 0.342882 0.151775
H32   H     H_    0.109909 0.688237 0.903531 0.156759
H33   H     H_    0.418883 0.315866 0.597970 0.122237
H34   H     H_    0.282768 0.446884 0.899563 0.165315
H35   H     H_    0.592520 0.913421 0.907312 0.179921
H36   H     H_    0.706547 0.302198 0.384559 0.117165
H37   H     H_    0.455388 0.282175 0.395942 0.146102
H38   H     H_    0.916739 0.593108 0.407713 0.183452
H39   H     H_    0.045225 0.666690 0.838021 0.150130
H40   H     H_    0.277347 0.418632 0.829660 0.144125
H41   H     H_    0.631377 0.972388 0.840451 0.149511
H42   H     H_    0.703121 0.263653 0.315406 0.154133
H43   H     H_    0.434303 0.285289 0.325584 0.148293
H44   H     H_    0.696881 0.145716 0.603250 0.160907
H45   H     H_    0.985957 0.638068 0.342333 0.145441
H46   H     H_    0.113292 0.415837 0.592941 0.117788
H47   H     H_    0.053947 0.405001 0.546391 0.130746
H48   H     H_    0.141905 0.311477 0.547466 0.090165
H49   H     H_    0.070659 0.242115 0.589336 0.157921
H50   H     H_    0.009968 0.228346 0.543166 0.155563
H51   H     H_    0.754226 0.589623 0.605681 0.132022
H52   H     H_    0.762855 0.694392 0.630659 0.123598
H53   H     H_    0.836046 0.797674 0.571363 0.156370
H54   H     H_    0.908347 0.745958 0.589193 0.078249
H55   H     H_    0.606946 0.948296 0.085332 0.135728
H56   H     H_    0.830666 0.693264 0.546951 0.169065
H57   H     H_    0.380196 0.145219 0.597303 0.127652
H58   H     H_    0.271875 0.040729 0.617997 0.127344
H59   H     H_    0.199881 0.984658 0.553012 0.151142
H60   H     H_    0.228859 0.109484 0.562193 0.074177
H61   H     H_    0.307803 0.086989 0.530873 0.184503
H62   H     H_    0.349589 0.019549 0.053395 0.127489
H63   H     H_    0.326602 0.062438 0.099066 0.121415
H64   H     H_    0.146806 0.943358 0.092549 0.155025
H65   H     H_    0.194947 0.025212 0.051055 0.085958
H66   H     H_    0.316222 0.427819 0.101859 0.148765
H67   H     H_    0.169097 0.899828 0.047116 0.154608
H68   H     H_    0.604029 0.546252 0.028782 0.129220
H69   H     H_    0.698628 0.552525 0.061128 0.117986
H70   H     H_    0.814964 0.723121 0.037974 0.151686
H71   H     H_    0.769787 0.635859 0.998350 0.085222
H72   H     H_    0.720483 0.716421 0.005769 0.165814
H73   H     H_    0.936304 0.363752 0.049282 0.125810
H74   H     H_    0.878895 0.317760 0.096523 0.114642
H75   H     H_    0.898957 0.173067 0.089742 0.158417
H76   H     H_    0.830324 0.182326 0.049394 0.084483
H77   H     H_    0.130287 0.694559 0.100509 0.173041
H78   H     H_    0.958597 0.217386 0.043042 0.156348
H79   H     H_    0.869120 0.291403 0.916462 0.117793
H80   H     H_    0.938860 0.365237 0.958044 0.122454
H81   H     H_    0.995184 0.245812 0.971617 0.163971
H82   H     H_    0.861786 0.187417 0.972050 0.080779
H83   H     H_    0.923888 0.172047 0.930684 0.153018
H84   H     H_    0.680531 0.750307 0.855550 0.121207
H85   H     H_    0.647714 0.678410 0.900243 0.140569
H86   H     H_    0.714107 0.833369 0.938660 0.157395
H87   H     H_    0.806501 0.833365 0.907173 0.094831
H88   H     H_    0.942805 0.609444 0.665160 0.129308
H89   H     H_    0.749315 0.904113 0.893923 0.139908
H90   H     H_    0.408008 0.122883 0.921980 0.122550
H91   H     H_    0.422639 0.049877 0.959546 0.114913
H92   H     H_    0.245072 0.975292 0.977216 0.160506
H93   H     H_    0.311652 0.107906 0.981698 0.081172
H94   H     H_    0.231178 0.050017 0.940547 0.157241
H95   H     H_    0.536831 0.969381 0.434597 0.146501
H96   H     H_    0.458030 0.886188 0.396726 0.122802
H97   H     H_    0.312742 0.824919 0.441022 0.157119
H98   H     H_    0.409670 0.809694 0.462125 0.091966
H99   H     H_    0.360012 0.347025 0.658357 0.136546
H100  H     H_    0.391413 0.908394 0.478517 0.185469
H101  H     H_    0.753173 0.694034 0.417367 0.164407
H102  H     H_    0.696572 0.666029 0.370424 0.119222
H103  H     H_    0.862647 0.715333 0.340323 0.154751
H104  H     H_    0.861633 0.813752 0.366876 0.108978
H105  H     H_    0.917613 0.748822 0.388159 0.146998
H106  H     H_    0.054121 0.410173 0.458570 0.123190
H107  H     H_    0.120592 0.399133 0.417267 0.121400
H108  H     H_    0.044710 0.220013 0.430555 0.158862
H109  H     H_    0.111591 0.293135 0.472223 0.085995
H110  H     H_    0.678610 0.099499 0.670933 0.135192
H111  H     H_    0.977926 0.230605 0.471446 0.163639
H112  H     H_    0.152100 0.473696 0.687079 0.113510
H113  H     H_    0.206084 0.369465 0.719956 0.152627
H114  H     H_    0.096642 0.188030 0.721640 0.113791
H115  H     H_    0.931301 0.110389 0.690710 0.099715
H116  H     H_    0.875187 0.213409 0.658228 0.123680
H117  H     H_    0.530480 0.730925 0.606513 0.116449
H118  H     H_    0.610024 0.903815 0.628172 0.119125
H119  H     H_    0.717579 0.958404 0.686539 0.119573
H120  H     H_    0.745599 0.839094 0.723248 0.107800
N1    N     N_R   0.944644 0.416411 0.774113 -0.231128
N2    N     N_R   0.501567 0.976619 0.229425 -0.208185
N3    N     N_R   0.605704 0.528672 0.218474 -0.208629
N4    N     N_R   0.072530 0.474389 0.238180 -0.207202
N5    N     N_R   0.009222 0.581613 0.731718 -0.257152
N6    N     N_R   0.405850 0.439401 0.725327 -0.245942
N7    N     N_R   0.577010 0.997190 0.732899 -0.231201
N8    N     N_R   0.606536 0.142821 0.213863 -0.253381
N9    N     N_R   0.469800 0.368866 0.216643 -0.257625
N10   N     N_R   0.017087 0.586727 0.234771 -0.251798
N11   N     N_R   0.014217 0.587085 0.770314 -0.230589
N12   N     N_R   0.434382 0.614560 0.748920 -0.217012
N13   N     N_R   0.391267 0.452111 0.762483 -0.238116
N14   N     N_R   0.577815 0.993843 0.771569 -0.225844
N15   N     N_R   0.617299 0.165015 0.251601 -0.236445
N16   N     N_R   0.482766 0.357177 0.254196 -0.234086
N17   N     N_R   0.011331 0.586591 0.273375 -0.230891
N18   N     N_R   0.458509 0.040749 0.774133 -0.231933
N19   N     N_R   0.512222 0.998772 0.266978 -0.233437
N20   N     N_R   0.618921 0.516987 0.255736 -0.233197
N21   N     N_R   0.066715 0.474193 0.276722 -0.231797
N22   N     N_R   0.939523 0.410998 0.735560 -0.208322
N23   N     N_R   0.447621 0.601275 0.711671 -0.219717
N24   N     N_R   0.457745 0.044033 0.735567 -0.223992
O1    O     O_R   0.498680 0.159540 0.541860 -0.494685
O2    O     O_R   0.358060 0.532760 0.040030 -0.511407
O3    O     O_R   0.174700 0.641940 0.040030 -0.514788
O4    O     O_R   0.467240 0.825300 0.040030 -0.516095
O5    O     O_R   0.498590 0.161190 0.456930 -0.475514
O6    O     O_R   0.838810 0.337400 0.456930 -0.474909
O7    O     O_R   0.662600 0.501410 0.456930 -0.458990
O8    O     O_R   0.161190 0.498590 0.956930 -0.480941
O9    O     O_R   0.337400 0.838810 0.956930 -0.471960
O10   O     O_R   0.501410 0.662600 0.956930 -0.485235
O11   O     O_R   0.532680 0.359580 0.461300 -0.525079
O12   O     O_R   0.840460 0.339140 0.541860 -0.467578
O13   O     O_R   0.640420 0.173100 0.461300 -0.494604
O14   O     O_R   0.826900 0.467320 0.461300 -0.521474
O15   O     O_R   0.359580 0.532680 0.961300 -0.520639
O16   O     O_R   0.173100 0.640420 0.961300 -0.518892
O17   O     O_R   0.467320 0.826900 0.961300 -0.521295
O18   O     O_3   0.666667 0.333333 0.499990 -0.300800
O19   O     O_3   0.333333 0.666667 0.999990 -0.274881
O20   O     O_3   0.958195 0.324609 0.591306 -0.551065
O21   O     O_3   0.661564 0.639958 0.585009 -0.543163
O22   O     O_3   0.362211 0.004949 0.586323 -0.550394
O23   O     O_R   0.660860 0.501320 0.541860 -0.474943
O24   O     O_3   0.301659 0.918724 0.099323 -0.552474
O25   O     O_3   0.643280 0.644212 0.075389 -0.549449
O26   O     O_3   0.030814 0.366158 0.091959 -0.549176
O27   O     O_3   0.023015 0.362418 0.911590 -0.542731
O28   O     O_3   0.567188 0.748170 0.888142 -0.560163
O29   O     O_3   0.333909 0.971742 0.912044 -0.539435
O30   O     O_3   0.433666 0.001030 0.410342 -0.534109
O31   O     O_3   0.751179 0.574752 0.392063 -0.560384
O32   O     O_3   0.967301 0.330279 0.411299 -0.534011
O33   O     O_R   0.159540 0.498680 0.041860 -0.467497
O34   O     O_R   0.339140 0.840460 0.041860 -0.474813
O35   O     O_R   0.501320 0.660860 0.041860 -0.463271
O36   O     O_R   0.532760 0.358060 0.540030 -0.516452
O37   O     O_R   0.641940 0.174700 0.540030 -0.506501
O38   O     O_R   0.825300 0.467240 0.540030 -0.524845

loop_
_geom_bond_atom_site_label_1
_geom_bond_atom_site_label_2
_ccdc_geom_bond_type
Cr4   O19   S    
C130  C146  S    
C19   C20   S    
C55   C56   A    
C12   O27   S    
C49   H11   S    
C75   C95   A    
C10   H73   S    
C111  C118  A    
C79   C99   A    
C3    H53   S    
C87   C94   A    
C100  C104  S    
C140  C147  A    
C20   H100  S    
Cr2   O37   S    
C21   H101  S    
C67   C94   A    
C109  C142  A    
C1    O23   A    
C29   H114  S    
C59   C60   A    
C72   O30   S    
C21   C22   S    
N8    N15   A    
C76   C83   A    
C6    H62   S    
C45   C47   A    
C68   C95   A    
Cr3   O23   S    
C57   C90   A    
C9    H71   S    
N4    N21   A    
C121  C128  A    
Cr4   O2    S    
C74   C100  A    
C82   H39   S    
C18   H94   S    
C149  N12   A    
C54   H16   S    
C43   C44   A    
C37   C38   A    
C102  C114  S    
C70   O28   S    
C22   H104  S    
Cr5   O19   S    
C4    H57   S    
C2    C131  S    
C88   C148  S    
Cr5   O9    S    
C67   C74   A    
C57   C71   A    
Cr6   O10   S    
C154  C155  S    
C52   C58   A    
C14   H82   S    
C13   N3    A    
C99   C101  S    
C12   H80   S    
Cr1   O11   S    
C134  H88   S    
C17   O29   S    
C155  H50   S    
C136  H99   S    
C10   O26   S    
C4    C5    S    
C53   H15   S    
C19   H95   S    
C47   H9    S    
C6    C7    S    
C17   H90   S    
C107  O17   A    
C131  C138  A    
C76   C96   A    
C134  C141  A    
C102  O3    A    
Cr6   O19   S    
C117  O22   S    
C7    H65   S    
C74   O32   S    
C103  O5    A    
C3    C156  S    
C8    H69   S    
C13   C132  S    
Cr6   O4    S    
C51   H14   S    
C46   C70   A    
C97   C107  S    
C119  C126  A    
C107  O9    A    
Cr1   O1    S    
Cr4   O33   S    
N10   N17   A    
C78   H36   S    
C8    O25   S    
C38   H3    S    
C115  C121  A    
C151  N15   A    
C90   C150  S    
C152  N20   A    
Cr3   O7    S    
C81   H38   S    
C120  C127  A    
C46   C89   A    
C53   C54   A    
C18   H92   S    
C132  C139  A    
C148  N11   A    
C71   C97   A    
C58   H19   S    
C108  C115  A    
C36   C37   A    
C86   C93   A    
C114  C147  A    
C143  H44   S    
C59   C127  S    
C6    H63   S    
C4    O22   S    
C112  C145  A    
N9    N16   A    
C85   H42   S    
C129  C135  S    
C65   H29   S    
C35   H26   S    
C66   H30   S    
C136  C142  A    
C6    O24   S    
C26   C121  S    
C153  N17   A    
C5    H60   S    
C110  C143  A    
C84   C90   A    
C83   H40   S    
C86   H43   S    
C85   C92   A    
C83   C89   A    
C24   N4    A    
N2    N19   A    
C115  O20   S    
C39   C40   A    
C52   C126  S    
C28   H113  S    
C2    N2    A    
C77   C84   A    
C63   H23   S    
C11   H78   S    
N5    N11   A    
C91   C112  S    
C70   C96   A    
C124  N5    A    
C29   C30   A    
C95   C106  S    
C128  C134  A    
C69   C110  S    
C125  C131  A    
C15   H84   S    
C126  C132  A    
C92   C151  S    
C17   C18   S    
C25   H109  S    
C66   C93   A    
C78   C85   A    
Cr5   O16   S    
C123  C130  A    
C46   H27   S    
C52   C53   A    
C56   H18   S    
C54   C55   A    
C55   H17   S    
C93   C152  S    
Cr6   O35   S    
C16   H87   S    
C75   C82   A    
C141  H1    S    
C39   C44   A    
C147  H77   S    
C65   C72   A    
C80   C108  S    
C10   H74   S    
C140  H24   S    
C2    N8    A    
C138  C144  A    
C156  H52   S    
C80   O12   A    
C94   C153  S    
C82   C88   A    
C104  O6    A    
C56   C58   A    
C34   C36   A    
Cr2   O12   S    
C61   C62   A    
C154  H46   S    
C102  O33   A    
C10   C11   S    
C20   H97   S    
C62   H22   S    
C63   C64   A    
C75   H32   S    
C106  O16   A    
C49   C50   A    
C156  H51   S    
C135  N6    A    
N1    N22   A    
Cr6   O17   S    
C96   C105  S    
C148  N1    A    
C41   C42   A    
C43   H7    S    
C11   H76   S    
C135  N23   A    
C26   C27   A    
C116  C122  A    
C9    H70   S    
C28   C29   A    
C21   O31   S    
C30   C31   A    
C146  N7    A    
C98   C103  S    
C39   C123  S    
C68   O27   S    
C31   H116  S    
C25   H111  S    
C76   H34   S    
C109  C116  A    
C1    C109  S    
C22   H105  S    
Cr2   O18   S    
C4    H58   S    
C142  H33   S    
C151  N19   A    
C118  C125  A    
C152  N16   A    
C122  C129  A    
Cr4   O8    S    
C124  C128  S    
C14   H83   S    
C89   C149  S    
C105  O15   A    
C110  C117  A    
C108  C141  A    
C16   H89   S    
C42   H6    S    
C101  O11   A    
C19   O30   S    
C120  O26   S    
C79   H37   S    
C32   C122  S    
C103  O13   A    
C16   H86   S    
C3    H54   S    
C60   C61   A    
C62   C63   A    
C153  N21   A    
C21   H102  S    
C50   C51   A    
C91   O35   A    
C81   C87   A    
C84   H41   S    
C48   C49   A    
C15   H85   S    
Cr3   O18   S    
C15   O28   S    
C42   C43   A    
C7    H67   S    
N18   N24   A    
C23   H107  S    
C9    H72   S    
C155  H48   S    
C127  C133  A    
C36   H119  S    
C112  C119  A    
C81   C100  A    
C18   H93   S    
C113  O4    A    
C149  N13   A    
C32   C33   A    
C144  H55   S    
C64   H25   S    
C22   H103  S    
Cr1   O36   S    
C73   O31   S    
C154  O20   S    
C14   H81   S    
C146  N24   A    
C133  C140  A    
C12   H79   S    
Cr3   O38   S    
C130  C137  A    
C77   H35   S    
C79   C86   A    
C114  C120  A    
C24   C133  S    
C65   C92   A    
C5    H59   S    
C139  H13   S    
C19   H96   S    
N12   N23   A    
C72   C98   A    
C17   H91   S    
C59   C64   A    
C154  H47   S    
C3    H56   S    
Cr5   O34   S    
C45   C51   A    
C15   C16   S    
C23   H106  S    
C119  O25   S    
N6    N13   A    
C1    O36   A    
C116  O21   S    
C48   H10   S    
C8    H68   S    
C45   C125  S    
C8    C9    S    
C78   C98   A    
C32   C38   A    
C40   H4    S    
C25   H108  S    
C91   O2    A    
C137  C143  A    
C26   C31   A    
C80   O38   A    
C105  O10   A    
C137  H110  S    
C60   H20   S    
C145  H66   S    
C61   H21   S    
N7    N14   A    
C104  O14   A    
C111  C113  S    
Cr4   O15   S    
C66   C73   A    
C150  N18   A    
C124  N22   A    
C23   O32   S    
C129  C136  A    
C35   C88   A    
C47   C48   A    
C71   O29   S    
C33   C34   A    
C24   N10   A    
Cr2   O13   S    
C69   O1    A    
C77   C97   A    
C87   H45   S    
C118  O24   S    
C111  C144  A    
C20   H98   S    
C27   H112  S    
C101  O7    A    
C40   C41   A    
C5    H61   S    
C12   C14   S    
C13   N9    A    
Cr5   O3    S    
C106  O8    A    
C33   H117  S    
C73   C99   A    
C34   H118  S    
C139  C145  A    
C30   H115  S    
Cr1   O5    S    
Cr2   O6    S    
C7    H64   S    
C11   H75   S    
Cr1   O18   S    
C69   O37   A    
N3    N20   A    
C50   H12   S    
C150  N14   A    
C37   H120  S    
C155  H49   S    
C117  C123  A    
C57   H28   S    
C35   C68   A    
C41   H5    S    
C23   C25   S    
C44   H8    S    
C156  O21   S    
C27   C28   A    
C138  H2    S    
C67   H31   S    
Cr3   O14   S    
C113  O34   A    
