data_mof_unit_59031.cif
_audit_creation_date              2012-12-11T14:39:21-0500
_audit_creation_method            fapswitch 2.2
_symmetry_space_group_name_H-M    P1
_symmetry_Int_Tables_number       1
_space_group_crystal_system       triclinic
_cell_length_a                    7.206351
_cell_length_b                    14.129917
_cell_length_c                    16.286914
_cell_angle_alpha                 90.0001
_cell_angle_beta                  96.837624
_cell_angle_gamma                 89.99989
_cell_volume                      1646.62190006

loop_
_atom_site_label
_atom_site_type_symbol
_atom_type_description
_atom_site_fract_x
_atom_site_fract_y
_atom_site_fract_z
_atom_type_partial_charge
O1    O     O_R   0.525340 0.338340 0.164530 -0.503113
O2    O     O_R   0.474660 0.661660 0.835470 -0.500873
O3    O     O_R   0.974660 0.838340 0.835470 -0.500879
O4    O     O_R   0.025340 0.161660 0.164530 -0.503100
O5    O     O_R   0.253520 0.352000 0.336710 -0.546376
O6    O     O_R   0.746480 0.648000 0.663290 -0.545906
O7    O     O_R   0.246480 0.852000 0.663290 -0.545906
O8    O     O_R   0.753520 0.148000 0.336710 -0.546376
O9    O     O_R   0.083330 0.168380 0.337300 -0.541635
O10   O     O_R   0.916670 0.831620 0.662700 -0.539281
O11   O     O_R   0.416670 0.668380 0.662700 -0.539283
O12   O     O_R   0.583330 0.331620 0.337300 -0.541636
C1    C     C_R   0.431913 0.368695 0.363793 0.665091
C2    C     C_R   0.568082 0.631221 0.636294 0.666080
C3    C     C_R   0.068082 0.868779 0.636294 0.666084
C4    C     C_R   0.931913 0.131305 0.363793 0.665094
O13   O     O_R   0.195840 0.349670 0.165140 -0.541063
O14   O     O_R   0.804160 0.650330 0.834860 -0.545035
O15   O     O_R   0.304160 0.849670 0.834860 -0.545037
O16   O     O_R   0.695840 0.150330 0.165140 -0.541058
C5    C     C_R   0.357675 0.369748 0.136094 0.802687
C6    C     C_R   0.640866 0.626132 0.860719 0.778043
C7    C     C_R   0.140870 0.873863 0.860723 0.778077
C8    C     C_R   0.857674 0.130253 0.136092 0.802677
O17   O     O_3   0.387830 0.193120 0.250910 -0.374958
O18   O     O_3   0.612170 0.806880 0.749090 -0.367604
O19   O     O_3   0.112170 0.693120 0.749090 -0.367602
O20   O     O_3   0.887830 0.306880 0.250910 -0.374968
V1    V     V_3+5 0.113010 0.264540 0.250910 1.475539
V2    V     V_3+5 0.886990 0.735460 0.749090 1.479928
V3    V     V_3+5 0.386990 0.764540 0.749090 1.479930
V4    V     V_3+5 0.613010 0.235460 0.250910 1.475538
H1    H     H_    0.162633 0.830195 0.265492 0.117482
H2    H     H_    0.837276 0.169785 0.734730 0.122493
H3    H     H_    0.337326 0.330207 0.734735 0.122489
H4    H     H_    0.662577 0.669814 0.265487 0.117481
C9    C     C_R   0.863182 0.183873 0.528515 -0.145197
C10   C     C_R   0.136768 0.816207 0.471672 -0.146008
C11   C     C_R   0.636741 0.683797 0.471670 -0.146014
C12   C     C_R   0.363211 0.316122 0.528518 -0.145204
C13   C     C_R   0.829720 0.211153 0.607642 -0.120915
C14   C     C_R   0.170226 0.788896 0.392568 -0.117404
C15   C     C_R   0.670184 0.711110 0.392564 -0.117402
C16   C     C_R   0.329761 0.288840 0.607646 -0.120908
C17   C     C_R   0.862761 0.148172 0.673291 -0.128039
C18   C     C_R   0.137167 0.851854 0.326915 -0.132696
C19   C     C_R   0.637123 0.648153 0.326911 -0.132701
C20   C     C_R   0.362802 0.351821 0.673295 -0.128052
C21   C     C_R   0.929716 0.057519 0.660284 -0.135851
C22   C     C_R   0.070212 0.942522 0.339894 -0.139224
C23   C     C_R   0.570181 0.557483 0.339891 -0.139226
C24   C     C_R   0.429745 0.442477 0.660287 -0.135856
C25   C     C_R   0.964068 0.027717 0.580468 0.056580
C26   C     C_R   0.035901 0.972369 0.419694 0.061845
C27   C     C_R   0.535886 0.527634 0.419692 0.061848
C28   C     C_R   0.464082 0.472280 0.580469 0.056589
C29   C     C_R   0.930105 0.091981 0.513344 0.057568
C30   C     C_R   0.069869 0.908116 0.486817 0.056988
C31   C     C_R   0.569854 0.591886 0.486816 0.056982
C32   C     C_R   0.430120 0.408016 0.513345 0.057562
C33   C     C_R   0.033930 0.936037 0.566997 -0.168805
C34   C     C_R   0.966058 0.064066 0.433143 -0.168369
C35   C     C_R   0.466058 0.435934 0.433143 -0.168363
C36   C     C_R   0.533930 0.563962 0.566997 -0.168801
H5    H     H_    0.955122 0.011469 0.713513 0.120606
H6    H     H_    0.044751 0.988550 0.286655 0.102599
H7    H     H_    0.544718 0.511454 0.286652 0.102589
H8    H     H_    0.455150 0.488527 0.713516 0.120578
C37   C     C_2   0.141967 0.946549 0.926713 -0.357140
C38   C     C_2   0.854562 0.064126 0.065082 -0.351865
C39   C     C_2   0.354562 0.435883 0.065092 -0.351849
C40   C     C_2   0.641949 0.553430 0.926699 -0.357159
C41   C     C_2   0.984275 0.991227 0.945186 0.274738
C42   C     C_2   0.994205 0.060437 0.015474 0.285071
C43   C     C_2   0.494165 0.439552 0.015462 0.285056
C44   C     C_2   0.484241 0.508776 0.945185 0.274755
H9    H     H_    0.837165 0.235864 0.479743 0.117480
H10   H     H_    0.162765 0.764216 0.520445 0.117137
H11   H     H_    0.662738 0.735787 0.520443 0.117137
H12   H     H_    0.337195 0.264131 0.479744 0.117479
H13   H     H_    0.778843 0.281708 0.618115 0.135478
H14   H     H_    0.221091 0.718334 0.382114 0.134873
H15   H     H_    0.721041 0.781674 0.382110 0.134866
H16   H     H_    0.278893 0.218284 0.618119 0.135473
O21   O     O_3   0.143089 0.122787 0.028657 -0.629018
H17   H     H_    0.214051 0.120969 0.980192 0.274885
O22   O     O_3   0.815056 0.974181 0.897726 -0.629052
H18   H     H_    0.723739 0.022735 0.910686 0.275535
O23   O     O_3   0.315000 0.525867 0.897755 -0.629039
H19   H     H_    0.223652 0.477331 0.910720 0.275537
O24   O     O_3   0.643001 0.377170 0.028613 -0.629032
H20   H     H_    0.713878 0.378960 0.980122 0.274878
H21   H     H_    0.734235 0.017715 0.052986 0.096117
H22   H     H_    0.275662 0.962375 0.962237 0.100601
H23   H     H_    0.775654 0.537569 0.962200 0.100626
H24   H     H_    0.234267 0.482318 0.053017 0.096108

loop_
_geom_bond_atom_site_label_1
_geom_bond_atom_site_label_2
_ccdc_geom_bond_type
O22   H18   S    
O1    C5    A    
C12   C32   A    
C27   C31   A    
C15   H15   S    
C41   C42   S    
C7    C37   S    
O3    C7    A    
C14   H14   S    
C40   C44   D    
O15   V3    S    
C8    C38   S    
C29   C34   A    
O21   H17   S    
C31   C36   A    
C22   C26   A    
C21   H5    S    
C5    C39   S    
C32   C35   A    
O20   V1    S    
O9    C4    A    
C10   C14   A    
O10   C3    A    
O16   V4    S    
O4    C8    A    
O11   C2    A    
O13   V1    S    
H4    C19   S    
C14   C18   A    
C41   O22   S    
C10   C30   A    
C40   H23   S    
C25   C33   A    
O16   C8    A    
C27   C35   A    
C38   C42   D    
C12   H12   S    
C37   C41   D    
O14   V2    S    
C12   C16   A    
O5    C1    A    
O4    V1    S    
C24   H8    S    
O9    V1    S    
C44   O23   S    
C30   C33   A    
O7    C3    A    
C11   C31   A    
O18   V3    S    
O8    C4    A    
O12   V4    S    
O19   V2    S    
H1    C18   S    
C4    C34   S    
H3    C20   S    
C6    C40   S    
O5    V1    S    
O7    V3    S    
O8    V4    S    
C38   H21   S    
C37   H22   S    
O24   H20   S    
C25   C29   A    
C19   C23   A    
C39   H24   S    
C26   C34   A    
C9    H9    S    
O1    V4    S    
O13   C5    A    
C28   C32   A    
O2    V3    S    
C11   H11   S    
O3    V2    S    
O15   C7    A    
C43   C44   S    
O2    C6    A    
O6    C2    A    
O10   V2    S    
C1    C35   S    
C17   C21   A    
C13   H13   S    
C28   C36   A    
C3    C33   S    
H2    C17   S    
C23   H7    S    
C22   H6    S    
C2    C36   S    
O6    V2    S    
C26   C30   A    
O14   C6    A    
C16   H16   S    
C11   C15   A    
C43   O24   S    
C10   H10   S    
C18   C22   A    
C39   C43   D    
O17   V4    S    
C21   C25   A    
C23   C27   A    
C42   O21   S    
C9    C13   A    
O11   V3    S    
C16   C20   A    
C20   C24   A    
O12   C1    A    
C13   C17   A    
O23   H19   S    
C15   C19   A    
C9    C29   A    
C24   C28   A    
