data_mof_unit_64364.cif
_audit_creation_date              2012-12-10T21:42:31-0500
_audit_creation_method            fapswitch 2.2
_symmetry_space_group_name_H-M    P1
_symmetry_Int_Tables_number       1
_space_group_crystal_system       triclinic
_cell_length_a                    10.653472
_cell_length_b                    16.108118
_cell_length_c                    16.830436
_cell_angle_alpha                 90.70587
_cell_angle_beta                  89.745197
_cell_angle_gamma                 91.767042
_cell_volume                      2886.61065897

loop_
_atom_site_label
_atom_site_type_symbol
_atom_type_description
_atom_site_fract_x
_atom_site_fract_y
_atom_site_fract_z
_atom_type_partial_charge
C1    C     C_R   0.496457 0.491528 0.653173 0.946029
C2    C     C_R   0.503543 0.508472 0.346827 0.946029
C3    C     C_R   0.127982 0.501282 0.501586 -0.181758
C4    C     C_R   0.872018 0.498718 0.498414 -0.181757
C5    C     C_R   0.061439 0.460722 0.562980 -0.028408
C6    C     C_R   0.938560 0.539277 0.437020 -0.028408
C7    C     C_R   0.503734 0.492441 0.739426 -0.187677
C8    C     C_R   0.496266 0.507559 0.260574 -0.187679
C9    C     C_R   0.476998 0.565388 0.783878 0.228256
C10   C     C_R   0.523002 0.434612 0.216122 0.228260
C11   C     C_R   0.504208 0.568519 0.864818 0.269468
C12   C     C_R   0.495793 0.431481 0.135182 0.269467
C13   C     C_R   0.546423 0.497091 0.902020 0.231448
C14   C     C_R   0.453578 0.502909 0.097980 0.231446
C15   C     C_R   0.571225 0.425399 0.858405 -0.142606
C16   C     C_R   0.428776 0.574601 0.141595 -0.142604
C17   C     C_R   0.550482 0.423035 0.777307 -0.223393
C18   C     C_R   0.449518 0.576965 0.222693 -0.223393
C19   C     C_R   0.433821 0.758763 0.464022 -0.029338
C20   C     C_R   0.566198 0.241237 0.535963 -0.029326
C21   C     C_R   0.429563 0.845889 0.467428 0.184696
C22   C     C_R   0.570454 0.154111 0.532555 0.184697
C23   C     C_R   0.739785 0.499523 0.498741 0.956707
C24   C     C_R   0.260215 0.500477 0.501259 0.956707
C25   C     C_R   0.513432 0.891079 0.518539 0.260776
C26   C     C_R   0.486563 0.108921 0.481459 0.260778
C27   C     C_R   0.595603 0.845643 0.565040 -0.262231
C28   C     C_R   0.404373 0.154358 0.434973 -0.262236
C29   C     C_R   0.595667 0.758654 0.559648 0.004830
C30   C     C_R   0.404311 0.241346 0.440366 0.004813
C31   C     C_R   0.810540 0.575407 0.229885 0.265734
C32   C     C_R   0.189460 0.424591 0.770114 0.265734
C33   C     C_R   0.865089 0.535677 0.294648 0.385892
C34   C     C_R   0.134911 0.464322 0.705352 0.385893
C35   C     C_R   0.873546 0.577077 0.368964 -0.021478
C36   C     C_R   0.126454 0.422922 0.631035 -0.021476
C37   C     C_R   0.826117 0.657060 0.377567 -0.110934
C38   C     C_R   0.173882 0.342940 0.622432 -0.110935
C39   C     C_R   0.768467 0.694838 0.313731 -0.157476
C40   C     C_R   0.231532 0.305161 0.686268 -0.157474
C41   C     C_R   0.761271 0.654343 0.240051 -0.212797
C42   C     C_R   0.238729 0.345655 0.759948 -0.212798
C43   C     C_R   0.068502 0.540747 0.439001 0.267051
C44   C     C_R   0.931498 0.459253 0.560999 0.267048
H1    H     H_    0.718241 0.684719 0.190520 0.201961
H2    H     H_    0.281759 0.315279 0.809479 0.201960
H3    H     H_    0.571934 0.367142 0.744132 0.213409
H4    H     H_    0.428066 0.632858 0.255868 0.213408
H5    H     H_    0.630659 0.276102 0.574067 0.197352
H6    H     H_    0.369377 0.723897 0.425907 0.197350
H7    H     H_    0.659329 0.877724 0.605819 0.210429
H8    H     H_    0.340629 0.122276 0.394206 0.210432
H9    H     H_    0.658805 0.724366 0.596176 0.173697
H10   H     H_    0.341157 0.275634 0.403849 0.173693
H11   H     H_    0.833857 0.690115 0.433861 0.176525
H12   H     H_    0.166141 0.309884 0.566137 0.176520
H13   H     H_    0.730838 0.756122 0.321106 0.179405
H14   H     H_    0.269160 0.243876 0.678893 0.179402
H15   H     H_    0.603913 0.370724 0.887809 0.212341
H16   H     H_    0.396088 0.629276 0.112190 0.212342
N1    N     N_2   0.552233 0.493642 0.984770 -0.090067
N2    N     N_2   0.447768 0.506358 0.015230 -0.090066
N3    N     N_R   0.515300 0.716920 0.509720 -0.118708
N4    N     N_R   0.484700 0.283080 0.490280 -0.118705
N5    N     N_2   0.513789 0.979615 0.529916 -0.093646
N6    N     N_2   0.486205 0.020386 0.470081 -0.093632
O1    O     O_R   0.494530 0.422540 0.612660 -0.627864
O2    O     O_R   0.505470 0.577460 0.387340 -0.627872
O3    O     O_R   0.504350 0.561840 0.618900 -0.579424
O4    O     O_R   0.495650 0.438160 0.381100 -0.579418
O5    O     O_R   0.678330 0.430350 0.496870 -0.579746
O6    O     O_R   0.321670 0.569650 0.503130 -0.579736
O7    O     O_R   0.688150 0.569660 0.503110 -0.639910
O8    O     O_R   0.311850 0.430340 0.496890 -0.639916
Zn1   Zn    Zn3+2 0.493440 0.406980 0.495830 1.007713
Zn2   Zn    Zn3+2 0.506560 0.593020 0.504170 1.007712
Br1   Br    Br    0.699505 0.103998 0.593391 -0.412270
Br2   Br    Br    0.300539 0.895998 0.406567 -0.412265
Br3   Br    Br    0.805848 0.525330 0.126010 -0.325604
Br4   Br    Br    0.194153 0.474668 0.873989 -0.325605
Cl1   Cl    Cl    0.925165 0.435386 0.282387 -0.457665
Cl2   Cl    Cl    0.074836 0.564613 0.717613 -0.457663
Br5   Br    Br    0.164040 0.594361 0.354599 -0.458937
Br6   Br    Br    0.835959 0.405640 0.645401 -0.458945
Br7   Br    Br    0.605458 0.340607 0.261285 -0.306623
Br8   Br    Br    0.394542 0.659393 0.738715 -0.306639
Br9   Br    Br    0.514881 0.329985 0.074483 -0.325150
Br10  Br    Br    0.485120 0.670015 0.925516 -0.325154

loop_
_geom_bond_atom_site_label_1
_geom_bond_atom_site_label_2
_ccdc_geom_bond_type
O5    Zn1   S    
C29   N3    A    
C10   Br7   S    
C30   N4    A    
C27   C29   A    
C43   Br5   S    
O6    Zn2   S    
C39   C41   A    
C30   H10   S    
C3    C43   A    
C35   C37   A    
C2    O2    A    
C42   H2    S    
N3    Zn2   S    
C39   H13   S    
C5    C36   S    
C6    C35   S    
O3    Zn2   S    
C7    C9    A    
C16   H16   S    
C33   C35   A    
C19   N3    A    
C7    C17   A    
C21   Br2   S    
C31   C33   A    
C40   C42   A    
C3    C24   S    
C23   O7    A    
C27   H7    S    
C40   H14   S    
O8    Zn1   S    
C26   N6    S    
C23   O5    A    
C25   N5    S    
C4    C6    A    
C4    C23   S    
C4    C44   A    
C3    C5    A    
C8    C18   A    
C32   C34   A    
C20   N4    A    
C20   H5    S    
C9    Br8   S    
C32   Br4   S    
C11   Br10  S    
C13   N1    S    
C9    C11   A    
C10   C12   A    
C16   C18   A    
C5    C44   A    
C12   C14   A    
C6    C43   A    
C13   C15   A    
C25   C27   A    
O7    Zn2   S    
C14   C16   A    
O1    Zn1   S    
C24   O6    A    
C15   C17   A    
C21   C25   A    
C41   H1    S    
C31   C41   A    
C12   Br9   S    
C19   C21   A    
C1    C7    S    
C15   H15   S    
C2    C8    S    
C17   H3    S    
C22   Br1   S    
C20   C22   A    
C44   Br6   S    
C18   H4    S    
C31   Br3   S    
C28   H8    S    
O2    Zn2   S    
C26   C28   A    
C28   C30   A    
C37   C39   A    
C38   C40   A    
C11   C13   A    
C19   H6    S    
C24   O8    A    
C29   H9    S    
C36   C38   A    
C1    O1    A    
N4    Zn1   S    
C34   C36   A    
N1    N2    D    
C1    O3    A    
C37   H11   S    
C38   H12   S    
C8    C10   A    
N5    N6    D    
C22   C26   A    
O4    Zn1   S    
C32   C42   A    
C34   Cl2   S    
C2    O4    A    
C33   Cl1   S    
C14   N2    S    
