data_mof_unit_23026.cif
_audit_creation_date              2012-12-10T18:04:36-0500
_audit_creation_method            fapswitch 2.2
_symmetry_space_group_name_H-M    P1
_symmetry_Int_Tables_number       1
_space_group_crystal_system       triclinic
_cell_length_a                    10.791391
_cell_length_b                    9.528576
_cell_length_c                    16.013236
_cell_angle_alpha                 90.053649
_cell_angle_beta                  90.169524
_cell_angle_gamma                 90.075207
_cell_volume                      1646.57708777

loop_
_atom_site_label
_atom_site_type_symbol
_atom_type_description
_atom_site_fract_x
_atom_site_fract_y
_atom_site_fract_z
_atom_type_partial_charge
C1    C     C_R   0.871465 0.500447 0.498964 -0.202654
C2    C     C_R   0.128433 0.499458 0.499568 -0.203765
C3    C     C_R   0.262594 0.499901 0.499767 0.743867
C4    C     C_R   0.737359 0.500114 0.499054 0.752441
C5    C     C_R   0.500130 0.499947 0.341372 0.806348
C6    C     C_R   0.500453 0.500053 0.658628 0.809470
C7    C     C_R   0.497912 0.629132 0.955966 -0.030909
C8    C     C_R   0.497771 0.370868 0.044020 -0.026433
C9    C     C_R   0.504141 0.629047 0.044279 -0.027147
C10   C     C_R   0.504273 0.370971 0.955741 -0.027546
C11   C     C_R   0.501089 0.500092 0.912486 -0.048924
C12   C     C_R   0.500846 0.499916 0.087517 -0.045777
C13   C     C_1   0.500935 0.500155 0.822427 -0.091724
C14   C     C_1   0.500581 0.499851 0.177575 -0.082088
C15   C     C_1   0.500357 0.499859 0.252493 -0.150758
C16   C     C_1   0.500733 0.500145 0.747508 -0.160426
C17   C     C_R   0.422366 0.074174 0.448477 0.007680
C18   C     C_R   0.577614 0.925822 0.551531 0.000670
C19   C     C_R   0.577588 0.074575 0.551546 0.009828
C20   C     C_R   0.422355 0.925411 0.448479 0.003966
C21   C     C_R   0.065008 0.442153 0.568741 -0.034189
C22   C     C_R   0.934920 0.552865 0.428688 -0.024728
C23   C     C_R   0.934625 0.443061 0.568121 -0.023878
C24   C     C_R   0.065152 0.556666 0.430219 -0.026337
Cu1   Cu    Cu3+1 0.500000 0.640660 0.500000 0.955996
Cu2   Cu    Cu3+1 0.500000 0.359340 0.500000 0.978648
N1    N     N_R   0.500000 0.852070 0.500000 -0.170387
N2    N     N_R   0.500000 0.147930 0.500000 -0.172134
O1    O     O_R   0.319640 0.618740 0.499990 -0.578040
O2    O     O_R   0.680360 0.381260 0.500010 -0.557844
O3    O     O_R   0.680360 0.618740 0.500010 -0.594392
O4    O     O_R   0.319640 0.381260 0.499990 -0.572215
O5    O     O_R   0.499970 0.618750 0.380310 -0.586936
O6    O     O_R   0.500030 0.381250 0.619690 -0.573943
O7    O     O_R   0.500030 0.618750 0.619690 -0.575521
O8    O     O_R   0.499970 0.381250 0.380310 -0.573754
H1    H     H_    0.360150 0.130004 0.407177 0.137145
H2    H     H_    0.639814 0.869995 0.592843 0.136767
H3    H     H_    0.639714 0.130717 0.592889 0.163796
H4    H     H_    0.360120 0.869247 0.407186 0.144073
C25   C     C_2   0.517924 0.762168 0.092545 0.517025
H5    H     H_    0.475364 0.772997 0.153518 0.063306
O9    O     O_2   0.581657 0.858476 0.066418 -0.458178
C26   C     C_2   0.518256 0.237895 0.907552 0.514779
H6    H     H_    0.475946 0.226936 0.846332 0.071063
O10   O     O_2   0.581894 0.141782 0.934043 -0.458376
C27   C     C_2   0.484190 0.762322 0.907954 0.506305
H7    H     H_    0.526693 0.773348 0.846982 0.062453
O11   O     O_2   0.420574 0.858462 0.934288 -0.457950
C28   C     C_2   0.483843 0.237641 0.091955 0.504371
H8    H     H_    0.526099 0.226734 0.153173 0.067654
O12   O     O_2   0.420315 0.141323 0.065257 -0.459748
C29   C     C_2   0.137345 0.394373 0.643363 0.426783
H9    H     H_    0.226650 0.441347 0.657293 0.043246
O13   O     O_2   0.100772 0.300485 0.688781 -0.471155
C30   C     C_2   0.863925 0.593408 0.352259 0.444650
H10   H     H_    0.775046 0.645468 0.357287 0.075893
O14   O     O_2   0.901738 0.563402 0.282707 -0.494213
C31   C     C_2   0.861790 0.393215 0.640898 0.473500
H11   H     H_    0.802171 0.465916 0.674033 0.019140
O15   O     O_2   0.861354 0.269376 0.660295 -0.484113
C32   C     C_2   0.136898 0.621640 0.360704 0.478228
H12   H     H_    0.224934 0.577200 0.341699 0.032068
O16   O     O_2   0.100899 0.728648 0.326519 -0.504979

loop_
_geom_bond_atom_site_label_1
_geom_bond_atom_site_label_2
_ccdc_geom_bond_type
Cu1   O3    S    
C28   O12   D    
Cu2   O4    S    
C32   H12   S    
C20   N1    A    
C9    C25   S    
Cu1   N1    S    
C11   C13   S    
C25   H5    S    
Cu2   N2    S    
C27   H7    S    
C22   C30   S    
C8    C12   A    
C1    C4    S    
C2    C21   A    
C29   O13   D    
C28   H8    S    
C18   H2    S    
C4    O2    A    
C1    C22   A    
C27   O11   D    
C17   H1    S    
C29   H9    S    
C30   H10   S    
C21   C29   S    
C19   N2    A    
C25   O9    D    
C3    O1    A    
C19   H3    S    
C24   C32   S    
Cu1   O7    S    
Cu2   O8    S    
C30   O14   D    
C2    C3    S    
C1    C23   A    
C5    O5    A    
C21   C23   A    
C2    C24   A    
C3    O4    A    
C20   H4    S    
C9    C12   A    
C22   C24   A    
C5    C15   S    
C4    O3    A    
C31   O15   D    
C10   C11   A    
C10   C26   S    
C5    O8    A    
C8    C28   S    
C31   H11   S    
C17   C20   A    
C26   H6    S    
Cu1   O1    S    
C8    C10   A    
C18   C19   A    
C13   C16   T    
Cu1   O5    S    
C7    C9    A    
C14   C15   T    
C7    C11   A    
C32   O16   D    
C26   O10   D    
C23   C31   S    
Cu1   Cu2   S    
C17   N2    A    
C6    C16   S    
Cu2   O6    S    
C6    O7    A    
C18   N1    A    
C6    O6    A    
C12   C14   S    
Cu2   O2    S    
C7    C27   S    
