data_mof_unit_50827.cif
_audit_creation_date              2012-12-10T17:10:24-0500
_audit_creation_method            fapswitch 2.2
_symmetry_space_group_name_H-M    P1
_symmetry_Int_Tables_number       1
_space_group_crystal_system       triclinic
_cell_length_a                    10.972864
_cell_length_b                    13.062071
_cell_length_c                    11.6465
_cell_angle_alpha                 99.036637
_cell_angle_beta                  93.501805
_cell_angle_gamma                 90.107693
_cell_volume                      1645.36502287

loop_
_atom_site_label
_atom_site_type_symbol
_atom_type_description
_atom_site_fract_x
_atom_site_fract_y
_atom_site_fract_z
_atom_type_partial_charge
C1    C     C_R   0.500399 0.299767 0.479458 0.823384
C2    C     C_R   0.500070 0.700519 0.520255 0.844228
C3    C     C_R   0.504522 0.813223 0.529543 -0.116185
C4    C     C_R   0.495961 0.187541 0.468792 -0.107140
C5    C     C_R   0.405850 0.027461 0.369135 -0.161556
C6    C     C_R   0.592192 0.974296 0.630780 -0.175440
C7    C     C_R   0.420957 0.133292 0.378476 -0.234681
C8    C     C_R   0.572962 0.868888 0.624001 -0.227480
C9    C     C_R   0.558302 0.135368 0.551473 -0.044839
C10   C     C_R   0.450096 0.864706 0.441552 -0.054659
C11   C     C_R   0.538792 0.027985 0.545431 0.085745
C12   C     C_R   0.464693 0.972912 0.451195 0.085362
C13   C     C_R   0.428840 0.376442 0.020777 0.350641
C14   C     C_R   0.585098 0.619600 0.978739 0.375202
C15   C     C_R   0.429956 0.391908 0.144103 -0.061828
C16   C     C_R   0.582448 0.602881 0.854764 -0.057469
C17   C     C_R   0.527673 0.555344 0.157151 0.029677
C18   C     C_R   0.472066 0.445531 0.843170 0.074219
C19   C     C_R   0.528870 0.544641 0.034108 -0.082821
C20   C     C_R   0.475600 0.455235 0.965848 -0.086313
C21   C     C_R   0.262108 0.496490 0.500898 0.823872
C22   C     C_R   0.737802 0.493584 0.498604 0.827886
C23   C     C_R   0.123235 0.551148 0.718493 -0.183877
C24   C     C_R   0.873746 0.453360 0.278726 -0.261237
C25   C     C_R   0.068375 0.542109 0.822165 0.488834
C26   C     C_R   0.923017 0.391648 0.184146 0.486157
C27   C     C_R   0.958086 0.485220 0.813767 -0.302512
C28   C     C_R   0.039448 0.352819 0.198573 -0.237418
C29   C     C_R   0.895033 0.457991 0.706465 -0.153793
C30   C     C_R   0.109474 0.381394 0.302735 -0.212388
C31   C     C_R   0.942454 0.482545 0.603890 0.077914
C32   C     C_R   0.059113 0.443645 0.398677 0.085257
C33   C     C_R   0.066908 0.508567 0.608013 -0.010971
C34   C     C_R   0.932943 0.462879 0.391504 0.013098
C35   C     C_R   0.871751 0.481006 0.497074 -0.150719
C36   C     C_R   0.128500 0.485330 0.502723 -0.162289
Cu1   Cu    Cu3+1 0.509250 0.507730 0.615930 0.954978
Cu2   Cu    Cu3+1 0.490750 0.492270 0.384070 0.955202
H1    H     H_    0.074861 0.301333 0.127710 0.144952
H2    H     H_    0.917176 0.464809 0.889308 0.178958
H3    H     H_    0.207880 0.594426 0.727362 0.185952
H4    H     H_    0.792184 0.494159 0.259426 0.179514
H5    H     H_    0.811058 0.414676 0.705357 0.216393
H6    H     H_    0.199794 0.349132 0.309032 0.158751
H7    H     H_    0.616434 0.829701 0.690702 0.154611
H8    H     H_    0.370968 0.173500 0.316239 0.146541
H9    H     H_    0.344785 0.989870 0.298629 0.167012
H10   H     H_    0.649385 0.012810 0.703642 0.169458
H11   H     H_    0.427077 0.379506 0.789460 0.188242
H12   H     H_    0.569804 0.622395 0.211371 0.197087
H13   H     H_    0.627834 0.655747 0.808651 0.135470
H14   H     H_    0.397862 0.330777 0.187416 0.132299
N1    N     N_R   0.523180 0.519350 0.790130 -0.220583
N2    N     N_R   0.476820 0.480650 0.209870 -0.216598
O1    O     O_R   0.506570 0.354460 0.582000 -0.581887
O2    O     O_R   0.493430 0.645540 0.418000 -0.567442
O3    O     O_R   0.490940 0.341410 0.386200 -0.610442
O4    O     O_R   0.509060 0.658590 0.613800 -0.597615
O5    O     O_R   0.327470 0.506520 0.597900 -0.597848
O6    O     O_R   0.672530 0.493480 0.402100 -0.604093
O7    O     O_R   0.311840 0.493460 0.402100 -0.560609
O8    O     O_R   0.688160 0.506540 0.597900 -0.590398
O9    O     O_3   0.402722 0.280214 0.953448 -0.614968
C37   C     C_3   0.291334 0.236836 0.978664 0.062403
H15   H     H_    0.232942 0.221258 0.896340 0.176040
H16   H     H_    0.239073 0.289390 0.040889 0.113753
C38   C     C_3   0.315640 0.133979 0.022905 -0.347305
H17   H     H_    0.361303 0.080319 0.955450 0.240246
H18   H     H_    0.377516 0.147419 0.102828 0.210243
C39   C     C_3   0.198003 0.082998 0.050586 -0.925219
H19   H     H_    0.156035 0.131335 0.124546 0.249585
H20   H     H_    0.218968 0.006069 0.075735 0.262679
H21   H     H_    0.132080 0.071861 0.973272 0.262032
O10   O     O_3   0.650264 0.700242 0.049586 -0.625303
C40   C     C_3   0.662213 0.791937 0.000392 0.077815
H22   H     H_    0.649698 0.858235 0.070939 0.193319
H23   H     H_    0.590438 0.801020 0.931003 0.117523
C41   C     C_3   0.791421 0.800014 0.958960 -0.379224
H24   H     H_    0.859061 0.791467 0.031592 0.233803
H25   H     H_    0.806421 0.736891 0.885693 0.208155
C42   C     C_3   0.814351 0.904255 0.920320 -0.910002
H26   H     H_    0.742447 0.919969 0.854529 0.252855
H27   H     H_    0.904350 0.903578 0.881502 0.262599
H28   H     H_    0.815790 0.967187 0.996350 0.260767
O11   O     O_3   0.130322 0.585054 0.927099 -0.621371
C43   C     C_3   0.054515 0.597938 0.022251 0.026589
H29   H     H_    0.043817 0.522495 0.053400 0.184656
H30   H     H_    0.963484 0.628630 0.998014 0.146459
C44   C     C_3   0.113115 0.675505 0.121699 -0.319191
H31   H     H_    0.202806 0.645374 0.149815 0.250850
H32   H     H_    0.127759 0.750611 0.090722 0.216102
C45   C     C_3   0.032210 0.692772 0.225161 -0.823654
H33   H     H_    0.936503 0.708243 0.196692 0.242867
H34   H     H_    0.066203 0.760571 0.288648 0.282209
H35   H     H_    0.033886 0.623461 0.269246 0.267376
O12   O     O_3   0.862034 0.372607 0.074991 -0.651314
C46   C     C_3   0.749317 0.320770 0.079633 0.055886
H36   H     H_    0.693535 0.328077 0.998804 0.181536
H37   H     H_    0.694733 0.356700 0.152381 0.153169
C47   C     C_3   0.768138 0.205244 0.085166 -0.365177
H38   H     H_    0.816729 0.169029 0.008317 0.226249
H39   H     H_    0.824637 0.196086 0.165315 0.221514
C48   C     C_3   0.646137 0.149546 0.086984 -0.875711
H40   H     H_    0.594672 0.187115 0.161205 0.259068
H41   H     H_    0.661657 0.067578 0.097562 0.246550
H42   H     H_    0.591292 0.151185 0.004005 0.297100
C49   C     C_2   0.380555 0.805889 0.338824 0.819425
O13   O     O_2   0.292897 0.752317 0.352544 -0.611635
O14   O     O_R   0.417899 0.810468 0.227004 -0.776721
H43   H     H_    0.365352 0.766208 0.163609 0.321474
C50   C     C_2   0.648884 0.192022 0.638419 0.821554
O15   O     O_2   0.740677 0.228624 0.605408 -0.622323
O16   O     O_R   0.628363 0.204608 0.756984 -0.762884
H44   H     H_    0.697441 0.244007 0.806673 0.323785

loop_
_geom_bond_atom_site_label_1
_geom_bond_atom_site_label_2
_ccdc_geom_bond_type
C9    C50   S    
C27   C29   A    
C24   H4    S    
C19   C20   A    
C16   H13   S    
C42   H28   S    
C42   H26   S    
C21   C36   S    
O11   C43   S    
C22   C35   S    
C5    H9    S    
C6    H10   S    
C32   C36   A    
C24   C26   A    
C21   O5    A    
C22   O6    A    
C43   H30   S    
C33   C36   A    
C18   C20   A    
C34   C35   A    
C16   N1    A    
C45   H33   S    
C18   N1    A    
C46   H37   S    
C8    H7    S    
C50   O15   D    
C23   C33   A    
C13   O9    S    
C49   O13   D    
C31   C33   A    
C39   H19   S    
C44   H32   S    
C21   O7    A    
Cu1   O4    S    
Cu2   O7    S    
Cu1   N1    S    
C23   C25   A    
C29   H5    S    
C49   O14   S    
C30   H6    S    
C10   C49   S    
C4    C7    A    
C25   O11   S    
C42   H27   S    
C46   H36   S    
C26   O12   S    
O10   C40   S    
C38   H17   S    
C37   C38   S    
C5    C12   A    
C48   H41   S    
C3    C8    A    
C6    C11   A    
C5    C7    A    
C41   H24   S    
C6    C8    A    
C28   H1    S    
C47   C48   S    
C24   C34   A    
C38   H18   S    
C32   C34   A    
C40   H22   S    
C7    H8    S    
Cu1   Cu2   S    
C1    O3    A    
C22   O8    A    
Cu2   O3    S    
C40   H23   S    
Cu2   N2    S    
C27   H2    S    
O12   C46   S    
C39   H21   S    
C47   H39   S    
C50   O16   S    
C15   H14   S    
C44   C45   S    
C9    C11   A    
C15   N2    A    
Cu1   O5    S    
C10   C12   A    
Cu2   O6    S    
C13   C15   A    
C14   C16   A    
C44   H31   S    
C14   O10   S    
C46   C47   S    
O16   H44   S    
C13   C20   A    
C43   H29   S    
C14   C19   A    
C43   C44   S    
C17   H12   S    
C11   C12   A    
C2    O4    A    
C25   C27   A    
C26   C28   A    
C23   H3    S    
C38   C39   S    
C37   H15   S    
C1    C4    S    
C28   C30   A    
C2    C3    S    
C1    O1    A    
C29   C31   A    
C3    C10   A    
C2    O2    A    
O14   H43   S    
C30   C32   A    
C41   C42   S    
C45   H34   S    
C31   C35   A    
C47   H38   S    
C17   C19   A    
C48   H42   S    
C41   H25   S    
C45   H35   S    
C40   C41   S    
O9    C37   S    
Cu1   O1    S    
Cu2   O2    S    
C48   H40   S    
Cu1   O8    S    
C39   H20   S    
C4    C9    A    
C17   N2    A    
C18   H11   S    
C37   H16   S    
