data_mof_unit_50950.cif
_audit_creation_date              2013-03-05T15:55:16-0500
_audit_creation_method            fapswitch 2.2
_symmetry_space_group_name_H-M    P1
_symmetry_Int_Tables_number       1
_space_group_crystal_system       triclinic
_cell_length_a                    27.633539
_cell_length_b                    10.725858
_cell_length_c                    9.874942
_cell_angle_alpha                 89.143538
_cell_angle_beta                  90.202893
_cell_angle_gamma                 91.750856
_cell_volume                      2925.16056276

loop_
_atom_site_label
_atom_site_type_symbol
_atom_site_description
_atom_site_fract_x
_atom_site_fract_y
_atom_site_fract_z
_atom_type_partial_charge
O1    O     O_R   0.500000 0.316780 0.614690 -0.645253
O2    O     O_R   0.500000 0.316750 0.385360 -0.644241
C1    C     C_R   0.502857 0.259773 0.502160 0.902166
O3    O     O_R   0.428760 0.500030 0.614650 -0.649555
O4    O     O_R   0.428750 0.500010 0.385320 -0.643133
C2    C     C_R   0.405970 0.499944 0.499643 0.843154
Zn1   Zn    Zn3+2 0.500000 0.500020 0.653130 0.958762
Zn2   Zn    Zn3+2 0.500000 0.499980 0.346870 0.945491
O5    O     O_R   0.500000 0.683250 0.614640 -0.627013
O6    O     O_R   0.500000 0.683220 0.385310 -0.625366
O7    O     O_R   0.571250 0.499990 0.614680 -0.570845
O8    O     O_R   0.571240 0.499970 0.385350 -0.614827
C3    C     C_R   0.495073 0.738876 0.499495 0.885965
C4    C     C_R   0.593737 0.498059 0.500208 0.960331
C5    C     C_R   0.174924 0.431022 0.416773 0.503459
O9    O     O_2   0.197686 0.335879 0.358880 -0.561443
N1    N     N_R   0.200944 0.518798 0.487604 -0.355536
C6    C     C_R   0.179072 0.615217 0.549464 0.506039
C7    C     C_R   0.278839 0.528720 0.371891 -0.102952
C8    C     C_R   0.328906 0.523254 0.374568 -0.219528
C9    C     C_R   0.326594 0.486351 0.617910 -0.229528
C10   C     C_R   0.276327 0.490954 0.614736 -0.094764
C11   C     C_R   0.252451 0.512536 0.491714 0.312396
C12   C     C_R   0.101247 0.537513 0.467537 -0.052532
C13   C     C_R   0.124706 0.439423 0.404228 -0.020543
C14   C     C_R   0.097715 0.351701 0.330449 -0.137187
C15   C     C_R   0.128783 0.625912 0.541388 -0.021210
C16   C     C_R   0.353164 0.502651 0.497673 -0.036134
H1    H     H_    0.344560 0.469832 0.713896 0.164831
H2    H     H_    0.255902 0.477891 0.707518 0.147288
H3    H     H_    0.114898 0.274506 0.282339 0.190842
C17   C     C_R   0.646100 0.508882 0.499109 -0.156006
C18   C     C_R   0.972650 0.471152 0.365623 0.043565
C19   C     C_R   0.975644 0.643963 0.528360 0.043727
C20   C     C_R   0.948849 0.559068 0.445919 0.073611
C21   C     C_R   0.944621 0.396477 0.276185 -0.213567
C22   C     C_R   0.894518 0.400069 0.274926 -0.126242
C23   C     C_R   0.870624 0.478640 0.362076 -0.028414
C24   C     C_R   0.897610 0.560227 0.445788 -0.051514
C25   C     C_R   0.873233 0.641104 0.531365 -0.027726
C26   C     C_R   0.822604 0.634508 0.536541 0.522009
N2    N     N_R   0.797333 0.551340 0.457794 -0.349114
C27   C     C_R   0.820079 0.476339 0.369025 0.521487
C28   C     C_R   0.725994 0.426924 0.527788 -0.151077
C29   C     C_R   0.675806 0.410280 0.541545 0.271207
C30   C     C_R   0.666639 0.619723 0.444841 -0.251713
C31   C     C_R   0.716428 0.634351 0.432187 -0.060603
C32   C     C_R   0.746108 0.537895 0.473129 0.238739
O10   O     O_2   0.793759 0.398915 0.288921 -0.537282
C33   C     C_R   0.023364 0.459734 0.378250 0.045106
C34   C     C_R   0.050327 0.546791 0.457558 0.071620
C35   C     C_R   0.026918 0.642312 0.527982 0.044109
C36   C     C_R   0.048016 0.361510 0.317414 -0.214753
H4    H     H_    0.749834 0.353497 0.559179 0.185270
H5    H     H_    0.874546 0.339189 0.206652 0.194482
H6    H     H_    0.960354 0.334893 0.204472 0.145512
H7    H     H_    0.029761 0.287905 0.262340 0.145102
O11   O     O_2   0.206012 0.701132 0.617099 -0.561221
C37   C     C_R   0.105772 0.723771 0.603702 -0.133866
H8    H     H_    0.348567 0.536503 0.280486 0.168096
H9    H     H_    0.260429 0.546051 0.276759 0.146250
H10   H     H_    0.126296 0.794444 0.658604 0.191429
C38   C     C_R   0.949986 0.725447 0.611409 -0.212477
C39   C     C_R   0.899770 0.723654 0.612866 -0.128269
O12   O     O_2   0.798816 0.708434 0.621619 -0.540606
C40   C     C_R   0.055819 0.732137 0.597147 -0.214328
H11   H     H_    0.967536 0.788977 0.680698 0.144844
H12   H     H_    0.643889 0.694754 0.411056 0.166298
H13   H     H_    0.881811 0.786362 0.679989 0.193994
H14   H     H_    0.731980 0.719908 0.389175 0.165166
H15   H     H_    0.041070 0.811731 0.645679 0.144673
H16   H     H_    0.511676 0.114445 0.289245 0.174996
C41   C     C_R   0.506200 0.106468 0.763060 -0.115712
H17   H     H_    0.527203 0.191202 0.780038 0.207062
C42   C     C_R   0.489402 0.042554 0.878499 -0.151035
H18   H     H_    0.495126 0.082256 0.977675 0.151436
C43   C     C_R   0.464206 0.929354 0.865676 -0.156194
H19   H     H_    0.449195 0.882047 0.954307 0.142259
C44   C     C_R   0.460253 0.874443 0.739060 -0.146805
H20   H     H_    0.440505 0.786042 0.732723 0.161785
C45   C     C_R   0.481489 0.933310 0.623271 0.091788
C46   C     C_R   0.497740 0.057549 0.631832 0.095264
C47   C     C_R   0.504631 0.125754 0.508147 -0.088866
C48   C     C_R   0.505569 0.064564 0.384221 -0.203356
H21   H     H_    0.504088 0.891637 0.284972 0.170821
C49   C     C_R   0.499521 0.937669 0.380849 -0.211077
C50   C     C_R   0.488921 0.871259 0.500065 -0.120911
H22   H     H_    0.554580 0.639795 0.123984 0.152787
C51   C     C_R   0.435814 0.337663 0.142229 -0.170244
H23   H     H_    0.433632 0.331539 0.249594 0.208208
C52   C     C_R   0.404079 0.258295 0.072600 -0.200321
H24   H     H_    0.379446 0.195966 0.127891 0.163315
C53   C     C_R   0.404076 0.258515 0.932481 -0.187984
H25   H     H_    0.379589 0.196023 0.878439 0.163026
C54   C     C_R   0.435932 0.337780 0.861269 -0.178060
H26   H     H_    0.434401 0.330724 0.754025 0.206645
C55   C     C_R   0.468406 0.419950 0.928481 0.154245
C56   C     C_R   0.468388 0.419961 0.073309 0.167041
N3    N     N_R   0.499540 0.498800 0.142780 -0.124694
C57   C     C_R   0.530065 0.576978 0.070665 -0.109806
H27   H     H_    0.554526 0.639812 0.872360 0.162732
C58   C     C_R   0.530043 0.576959 0.927289 -0.089764
N4    N     N_R   0.499520 0.498720 0.857170 -0.127979
N5    N     N_R   0.656323 0.292127 0.591758 0.201511
O13   O     O_R   0.681546 0.192112 0.582384 -0.362545
O14   O     O_R   0.615398 0.284360 0.656317 -0.406220

loop_
_geom_bond_atom_site_label_1
_geom_bond_atom_site_label_2
_geom_bond_distance
_ccdc_geom_bond_type
C53   H25   1.082769 S    
C26   N2    1.366348 A    
C20   C24   1.416350 A    
C54   H26   1.063451 S    
C12   C15   1.408008 A    
N5    O14   1.300029 A    
C55   C56   1.430169 A    
C43   H19   1.082583 S    
Zn1   O7    2.006497 S    
N1    C11   1.427342 S    
C47   C48   1.397952 A    
C21   C22   1.386234 A    
Zn2   N3    2.015598 S    
C48   C49   1.367095 A    
C37   C40   1.387265 A    
C23   C24   1.408050 A    
O7    C4    1.292600 A    
C5    C13   1.398305 A    
C52   C53   1.383637 A    
C5    O9    1.350231 S    
C18   C21   1.414187 A    
C5    N1    1.366517 A    
C19   C20   1.420149 A    
C17   C29   1.416107 A    
O5    C3    1.284908 A    
C6    O11   1.349971 S    
C2    C16   1.460439 S    
C40   H15   1.076794 S    
C51   C52   1.390714 A    
C12   C34   1.416603 A    
C14   H3    1.083557 S    
C53   C54   1.390334 A    
Zn1   N4    2.014810 S    
C9    C10   1.391679 A    
C41   C42   1.394937 A    
O3    Zn1   2.003635 S    
N5    O13   1.301649 A    
C45   C46   1.396812 A    
C43   C44   1.392575 A    
C41   H17   1.078253 S    
C38   H11   1.076604 S    
H16   C48   1.083952 S    
C33   C36   1.414408 A    
C34   C35   1.420132 A    
H27   C58   1.081757 S    
C12   C13   1.407907 A    
O3    C2    1.296664 A    
C52   H24   1.082744 S    
C44   C45   1.418074 A    
C36   H7    1.077058 S    
C49   C50   1.394174 A    
C27   O10   1.350179 S    
C26   O12   1.349939 S    
C8    C16   1.404004 A    
C33   C34   1.419721 A    
C18   C33   1.415374 A    
H21   C49   1.083843 S    
C9    H1    1.083191 S    
C44   H20   1.081979 S    
O1    C1    1.280155 A    
C7    C11   1.397922 A    
C42   H18   1.082936 S    
C31   H14   1.082938 S    
C30   H12   1.084244 S    
C22   C23   1.395175 A    
C21   H6    1.077280 S    
C29   N5    1.443318 S    
C55   N4    1.375148 A    
C31   C32   1.394076 A    
Zn2   O8    2.003632 S    
C3    C50   1.435303 S    
C57   C58   1.415832 A    
N1    C6    1.366629 A    
N2    C32   1.426842 S    
C39   H13   1.083548 S    
C42   C43   1.388275 A    
H22   C57   1.081805 S    
C25   C26   1.399770 A    
C9    C16   1.404113 A    
O8    C4    1.291674 A    
C56   N3    1.376747 A    
C1    C47   1.440125 S    
C8    H8    1.083237 S    
N2    C27   1.366198 A    
C14   C36   1.385988 A    
C41   C46   1.421240 A    
C24   C25   1.407862 A    
C35   C40   1.414673 A    
C28   C29   1.399711 A    
Zn1   O5    1.996131 S    
C30   C31   1.385868 A    
C37   H10   1.083527 S    
C10   H2    1.082876 S    
O1    Zn1   2.007291 S    
C17   C30   1.401643 A    
O2    Zn2   1.996129 S    
C6    C15   1.399787 A    
C4    C17   1.448153 S    
O6    C3    1.293244 A    
O4    Zn2   2.006499 S    
C54   C55   1.409785 A    
C19   C35   1.417560 A    
C25   C39   1.395320 A    
N3    C57   1.365635 A    
C51   C56   1.410824 A    
C7    C8    1.386703 A    
O2    C1    1.300485 A    
C13   C14   1.395042 A    
C23   C27   1.398117 A    
C15   C37   1.395543 A    
C45   C50   1.414118 A    
O4    C2    1.294504 A    
C7    H9    1.083083 S    
C19   C38   1.415106 A    
C18   C20   1.419312 A    
C58   N4    1.365688 A    
C38   C39   1.387325 A    
C22   H5    1.083533 S    
C28   H4    1.083193 S    
Zn2   O6    2.007290 S    
C46   C47   1.424655 A    
C10   C11   1.399990 A    
C51   H23   1.063089 S    
C28   C32   1.399812 A    
