data_mof_unit_55686.cif
_audit_creation_date              2012-12-10T20:28:38-0500
_audit_creation_method            fapswitch 2.2
_symmetry_space_group_name_H-M    P1
_symmetry_Int_Tables_number       1
_space_group_crystal_system       triclinic
_cell_length_a                    10.670225
_cell_length_b                    10.552665
_cell_length_c                    9.883234
_cell_angle_alpha                 89.985477
_cell_angle_beta                  91.719858
_cell_angle_gamma                 91.27079
_cell_volume                      1112.07033091

loop_
_atom_site_label
_atom_site_type_symbol
_atom_type_description
_atom_site_fract_x
_atom_site_fract_y
_atom_site_fract_z
_atom_type_partial_charge
C1    C     C_R   0.510514 0.259990 0.500124 0.869158
C2    C     C_R   0.070529 0.577742 0.617874 0.085243
C3    C     C_R   0.131191 0.550008 0.496935 -0.133854
C4    C     C_R   0.061955 0.526096 0.378568 -0.230568
C5    C     C_R   0.935484 0.504610 0.383584 -0.215142
C6    C     C_R   0.876886 0.503216 0.508482 -0.112756
C7    C     C_R   0.584789 0.066129 0.614755 0.127792
C8    C     C_R   0.547418 0.130476 0.497806 -0.152909
C9    C     C_R   0.552118 0.066595 0.373691 -0.224375
C10   C     C_R   0.550708 0.935478 0.373298 -0.225649
C11   C     C_R   0.549660 0.870751 0.497556 -0.106107
C12   C     C_R   0.262451 0.519890 0.498714 0.938958
C13   C     C_R   0.588015 0.936385 0.614734 0.077846
C14   C     C_3   0.553931 0.926105 0.760150 -0.491417
C15   C     C_3   0.546091 0.070098 0.758680 0.002567
C16   C     C_R   0.393387 0.465337 0.066065 0.045001
C17   C     C_R   0.598361 0.550091 0.075220 -0.111757
C18   C     C_R   0.597512 0.551598 0.931397 -0.158362
C19   C     C_R   0.395389 0.463519 0.924213 0.081850
C20   C     C_3   0.326449 0.340614 0.910047 -0.029763
C21   C     C_3   0.309731 0.346158 0.065058 0.311278
C22   C     C_R   0.511979 0.740065 0.500042 0.896760
C23   C     C_R   0.741340 0.496442 0.502777 0.865776
C24   C     C_R   0.128626 0.647551 0.726656 0.264627
C25   C     C_R   0.073490 0.646340 0.853627 -0.244449
C26   C     C_R   0.963323 0.576668 0.872604 -0.237672
C27   C     C_R   0.901192 0.518408 0.762364 -0.186269
C28   C     C_R   0.947195 0.531855 0.630106 0.063448
H1    H     H_    0.106247 0.520225 0.282851 0.188541
H2    H     H_    0.631441 0.888319 0.824820 0.211961
H3    H     H_    0.448406 0.101230 0.768915 0.115091
H4    H     H_    0.884375 0.486521 0.288903 0.163517
H5    H     H_    0.544137 0.115794 0.278123 0.206682
H6    H     H_    0.537486 0.886758 0.277280 0.176764
N1    N     N_R   0.499160 0.499140 0.142800 -0.096048
N2    N     N_R   0.499160 0.499180 0.857150 -0.109480
O1    O     O_R   0.500020 0.316790 0.614690 -0.622014
O2    O     O_R   0.500000 0.316760 0.385350 -0.618974
O3    O     O_R   0.316770 0.500020 0.614690 -0.576408
O4    O     O_R   0.316760 0.499980 0.385350 -0.623304
O5    O     O_R   0.500000 0.683240 0.614650 -0.607513
O6    O     O_R   0.499980 0.683210 0.385310 -0.629194
O7    O     O_R   0.683240 0.500020 0.614650 -0.637627
O8    O     O_R   0.683230 0.499980 0.385310 -0.626252
Zn1   Zn    Zn3+2 0.500010 0.500020 0.653130 0.945138
Zn2   Zn    Zn3+2 0.499990 0.499980 0.346870 0.945137
N3    N     N_2   0.636124 0.134444 0.851069 -0.280608
H7    H     H_    0.608551 0.223620 0.878432 0.233576
C29   C     C_3   0.769001 0.131250 0.824030 -0.747845
H8    H     H_    0.823639 0.170412 0.912441 0.226257
H9    H     H_    0.790138 0.190338 0.734100 0.229046
H10   H     H_    0.799252 0.032766 0.807053 0.244081
H11   H     H_    0.678811 0.588654 0.131640 0.141186
H12   H     H_    0.675977 0.593679 0.880136 0.151056
N4    N     N_2   0.214354 0.350137 0.823648 -0.264494
H13   H     H_    0.139737 0.398446 0.858756 0.253479
C30   C     C_3   0.180759 0.240251 0.741883 -0.779823
H14   H     H_    0.097900 0.261446 0.675703 0.237227
H15   H     H_    0.157430 0.158012 0.807106 0.220856
H16   H     H_    0.259262 0.216001 0.676079 0.246423
H17   H     H_    0.391310 0.268403 0.875580 0.150961
N5    N     N_2   0.183942 0.376611 0.107657 -0.309915
H18   H     H_    0.149820 0.461018 0.070913 0.196553
C31   C     C_3   0.089718 0.275987 0.114834 -0.798097
H19   H     H_    0.000254 0.315807 0.148051 0.229414
H20   H     H_    0.118521 0.203527 0.190171 0.259349
H21   H     H_    0.072295 0.231270 0.014493 0.245289
N6    N     N_2   0.363138 0.241122 0.141506 -0.273182
H22   H     H_    0.337158 0.242563 0.240918 0.272552
C32   C     C_3   0.349449 0.114634 0.084022 -0.883489
H23   H     H_    0.349065 0.042493 0.165862 0.240297
H24   H     H_    0.429951 0.095624 0.019513 0.256996
H25   H     H_    0.260689 0.102626 0.023732 0.259084
N7    N     N_2   0.235389 0.727654 0.706034 -0.285890
H26   H     H_    0.287139 0.747489 0.793540 0.220078
C33   C     C_3   0.208511 0.840462 0.627806 -0.839390
H27   H     H_    0.296332 0.895663 0.611471 0.235727
H28   H     H_    0.142987 0.901208 0.682603 0.241642
H29   H     H_    0.166760 0.815022 0.526912 0.248372
H30   H     H_    0.117400 0.697114 0.938312 0.135177
H31   H     H_    0.925292 0.568652 0.972678 0.148479
H32   H     H_    0.820997 0.458964 0.784241 0.175112
H33   H     H_    0.462003 0.878459 0.775134 0.189191

loop_
_geom_bond_atom_site_label_1
_geom_bond_atom_site_label_2
_ccdc_geom_bond_type
N4    H13   S    
C16   C21   S    
C25   H30   S    
C19   C20   S    
C33   H29   S    
C15   N3    S    
C7    C8    A    
N3    C29   S    
O4    Zn2   S    
C26   C27   A    
N7    C33   S    
C33   H28   S    
C19   N2    A    
C16   N1    A    
C5    C6    A    
C30   H15   S    
C22   O5    A    
C1    C8    S    
C23   O7    A    
O6    Zn2   S    
C20   H17   S    
N5    C31   S    
C3    C12   S    
C6    C28   A    
C8    C9    A    
C29   H9    S    
C32   H23   S    
C9    C10   A    
C4    H1    S    
C1    O1    A    
O3    Zn1   S    
C5    H4    S    
C7    C15   S    
C13   C14   S    
C9    H5    S    
C14   H33   S    
C14   H2    S    
C20   N4    S    
O8    Zn2   S    
N7    H26   S    
C31   H21   S    
C33   H27   S    
N6    H22   S    
C30   H16   S    
C25   C26   A    
C23   O8    A    
C31   H20   S    
C12   O4    A    
N5    H18   S    
N3    H7    S    
C29   H10   S    
C32   H25   S    
C17   C18   A    
N2    Zn1   S    
C10   H6    S    
C24   C25   A    
O7    Zn1   S    
C21   N5    S    
C1    O2    A    
C26   H31   S    
N4    C30   S    
C21   N6    S    
C2    C24   A    
O1    Zn1   S    
C3    C4    A    
C17   H11   S    
C27   H32   S    
C4    C5    A    
C2    C28   A    
C15   H3    S    
C11   C22   S    
C31   H19   S    
C12   O3    A    
C2    C3    A    
C11   C13   A    
C24   N7    S    
C30   H14   S    
C22   O6    A    
C16   C19   A    
C6    C23   S    
O2    Zn2   S    
C10   C11   A    
C18   H12   S    
C7    C13   A    
C20   C21   S    
N6    C32   S    
C29   H8    S    
C27   C28   A    
O5    Zn1   S    
C14   C15   S    
C32   H24   S    
C17   N1    A    
N1    Zn2   S    
C18   N2    A    
