data_mof_unit_44289.cif
_audit_creation_date              2012-12-10T17:40:28-0500
_audit_creation_method            fapswitch 2.2
_symmetry_space_group_name_H-M    P1
_symmetry_Int_Tables_number       1
_space_group_crystal_system       triclinic
_cell_length_a                    13.709758
_cell_length_b                    15.085338
_cell_length_c                    15.895635
_cell_angle_alpha                 89.881147
_cell_angle_beta                  70.14458
_cell_angle_gamma                 89.988842
_cell_volume                      3092.03814815

loop_
_atom_site_label
_atom_site_type_symbol
_atom_type_description
_atom_site_fract_x
_atom_site_fract_y
_atom_site_fract_z
_atom_type_partial_charge
C1    C     C_R   0.500051 0.671517 0.499842 0.823768
C2    C     C_R   0.499947 0.328485 0.500163 0.824425
C3    C     C_R   0.374221 0.481763 0.094494 -0.204558
C4    C     C_R   0.626137 0.486119 0.905540 -0.199990
C5    C     C_R   0.303213 0.480154 0.049826 -0.200741
C6    C     C_R   0.697168 0.484945 0.950166 -0.199592
C7    C     C_R   0.588260 0.185232 0.501198 -0.231871
C8    C     C_R   0.411734 0.814774 0.498825 -0.231603
C9    C     C_R   0.499884 0.231624 0.500323 -0.079429
C10   C     C_R   0.500110 0.768380 0.499696 -0.079477
C11   C     C_R   0.411475 0.185271 0.499518 -0.231666
C12   C     C_R   0.588515 0.814733 0.500511 -0.231796
C13   C     C_R   0.410911 0.092912 0.499373 0.104048
C14   C     C_R   0.589076 0.907094 0.500664 0.104109
C15   C     C_R   0.499954 0.046472 0.500124 0.064428
C16   C     C_R   0.500034 0.953534 0.499913 0.064421
C17   C     C_R   0.588920 0.092870 0.501079 0.104153
C18   C     C_R   0.411070 0.907136 0.498954 0.104098
C19   C     C_R   0.322887 0.046257 0.498422 -0.194969
C20   C     C_R   0.677101 0.953749 0.501616 -0.195027
C21   C     C_R   0.322971 0.953835 0.498198 -0.194902
C22   C     C_R   0.677018 0.046172 0.501836 -0.194947
C23   C     C_R   0.437273 0.499800 0.672203 0.807315
C24   C     C_R   0.562708 0.500046 0.327815 0.807179
C25   C     C_R   0.230888 0.550545 0.439381 0.042437
C26   C     C_R   0.769257 0.448540 0.559926 0.042140
C27   C     C_R   0.183393 0.449333 0.560555 0.040936
C28   C     C_R   0.816711 0.550562 0.439434 0.039907
C29   C     C_R   0.078605 0.449686 0.564338 -0.153538
C30   C     C_R   0.921640 0.549482 0.435187 -0.154382
C31   C     C_R   0.051961 0.499519 0.499740 -0.012630
C32   C     C_R   0.948242 0.499424 0.499703 -0.011824
C33   C     C_R   0.129347 0.549416 0.435130 -0.157379
C34   C     C_R   0.870939 0.449104 0.564009 -0.156683
C35   C     C_R   0.000324 0.400794 0.629795 0.379909
C36   C     C_R   0.000245 0.597499 0.369062 0.379331
C37   C     C_R   0.897889 0.400142 0.629451 0.376119
C38   C     C_R   0.102863 0.597317 0.368933 0.376678
C39   C     C_R   0.400421 0.496895 0.770350 -0.053502
C40   C     C_R   0.599523 0.497728 0.229704 -0.053652
C41   C     C_R   0.263067 0.484659 0.913373 -0.179016
C42   C     C_R   0.737174 0.488796 0.086635 -0.179895
C43   C     C_R   0.294866 0.489590 0.820462 -0.185056
C44   C     C_R   0.705248 0.492688 0.179562 -0.186266
C45   C     C_R   0.473481 0.499328 0.813951 -0.243412
C46   C     C_R   0.526377 0.498820 0.186134 -0.238937
C47   C     C_R   0.443969 0.491112 0.907309 0.091594
C48   C     C_R   0.556130 0.491409 0.092756 0.091337
C49   C     C_R   0.336526 0.485436 0.957048 0.157611
C50   C     C_R   0.663708 0.488357 0.042984 0.153586
C51   C     C_R   0.517900 0.489140 0.952414 0.063225
C52   C     C_R   0.482273 0.488108 0.047647 0.065430
Cu1   Cu    Cu3+1 0.402580 0.500010 0.499990 0.942156
Cu2   Cu    Cu3+1 0.597420 0.499990 0.500010 0.941662
H1    H     H_    0.221299 0.474855 0.088455 0.152578
H2    H     H_    0.779224 0.481924 0.911449 0.159352
H3    H     H_    0.290956 0.591620 0.394853 0.133018
H4    H     H_    0.709072 0.407238 0.603915 0.131855
H5    H     H_    0.208675 0.408671 0.605218 0.130202
H6    H     H_    0.791467 0.591535 0.394966 0.130912
H7    H     H_    0.446398 0.507144 0.226800 0.144239
H8    H     H_    0.553183 0.509033 0.773214 0.147780
H9    H     H_    0.763105 0.491990 0.212009 0.151618
H10   H     H_    0.237064 0.487621 0.787989 0.149952
H11   H     H_    0.180934 0.479656 0.951168 0.138021
H12   H     H_    0.819430 0.485795 0.048794 0.138558
H13   H     H_    0.341259 0.475248 0.166054 0.138044
H14   H     H_    0.659416 0.482314 0.833916 0.135696
H15   H     H_    0.656656 0.220855 0.501938 0.162304
H16   H     H_    0.343339 0.779152 0.498080 0.162489
H17   H     H_    0.343028 0.220925 0.498911 0.162623
H18   H     H_    0.656962 0.779080 0.501119 0.162545
H19   H     H_    0.254072 0.081239 0.497833 0.155045
H20   H     H_    0.745916 0.918767 0.502204 0.154930
H21   H     H_    0.254216 0.918887 0.497453 0.155133
H22   H     H_    0.745775 0.081120 0.502578 0.155259
N1    N     N_R   0.256170 0.500070 0.500040 -0.182769
N2    N     N_R   0.743830 0.499930 0.499960 -0.182646
O1    O     O_R   0.417730 0.629750 0.499970 -0.587018
O2    O     O_R   0.582270 0.370250 0.500030 -0.587433
O3    O     O_R   0.582270 0.629730 0.499980 -0.586928
O4    O     O_R   0.417730 0.370270 0.500020 -0.586820
O5    O     O_R   0.371590 0.500020 0.629830 -0.590135
O6    O     O_R   0.628410 0.499980 0.370170 -0.590518
O7    O     O_R   0.536130 0.499990 0.629840 -0.593790
O8    O     O_R   0.463870 0.500010 0.370160 -0.593825
O9    O     O_3   0.019688 0.353871 0.697117 -0.680732
H23   H     H_    0.069907 0.387648 0.716799 0.298376
O10   O     O_3   0.981142 0.643909 0.301324 -0.678952
H24   H     H_    0.929934 0.610539 0.282544 0.299779
O11   O     O_3   0.826266 0.351836 0.696071 -0.679782
H25   H     H_    0.758953 0.383047 0.714341 0.295609
O12   O     O_3   0.175465 0.643268 0.300898 -0.677582
H26   H     H_    0.241208 0.609486 0.282041 0.297754

loop_
_geom_bond_atom_site_label_1
_geom_bond_atom_site_label_2
_ccdc_geom_bond_type
C36   O10   S    
O9    H23   S    
O12   H26   S    
C27   C29   A    
C34   C37   A    
C22   H22   S    
Cu2   O6    S    
C47   C49   A    
Cu1   Cu2   S    
C40   C46   A    
C26   N2    A    
C25   H3    S    
C25   N1    A    
Cu1   O1    S    
C11   H17   S    
C1    O3    A    
C15   C16   A    
C18   C21   A    
C45   H8    S    
C7    C9    A    
C45   C47   A    
C35   O9    S    
C26   C34   A    
C47   C51   A    
C7    C17   A    
C31   C33   A    
Cu1   O8    S    
C28   N2    A    
C39   C45   A    
C48   C50   A    
C12   H18   S    
C41   C43   A    
C5    C49   A    
C42   C44   A    
C10   C12   A    
C41   C49   A    
C43   H10   S    
Cu2   O2    S    
C28   H6    S    
C44   H9    S    
C46   C48   A    
C37   O11   S    
C46   H7    S    
C51   C52   A    
C14   C20   A    
C19   H19   S    
C4    C6    A    
C6    H2    S    
O11   H25   S    
C4    H14   S    
C13   C19   A    
C41   H11   S    
C4    C51   A    
C27   N1    A    
C8    C18   A    
Cu1   O4    S    
C32   C34   A    
Cu1   N1    S    
C9    C11   A    
C31   C32   A    
C40   C44   A    
C20   H20   S    
C6    C50   A    
C26   H4    S    
C23   O5    A    
C42   C50   A    
C16   C18   A    
C12   C14   A    
C13   C15   A    
C1    O1    A    
C14   C16   A    
C2    O4    A    
C15   C17   A    
C29   C35   A    
C35   C37   A    
C5    H1    S    
C3    H13   S    
C1    C10   S    
C33   C38   A    
C20   C22   A    
C3    C5    A    
C7    H15   S    
Cu2   O7    S    
C39   C43   A    
C3    C52   A    
C21   H21   S    
C8    H16   S    
C17   C22   A    
C30   C36   A    
Cu1   O5    S    
C28   C30   A    
C24   O6    A    
C29   C31   A    
C27   H5    S    
C30   C32   A    
C11   C13   A    
C23   C39   S    
C38   O12   S    
C36   C38   A    
C24   C40   S    
C2    O2    A    
C48   C52   A    
C8    C10   A    
C23   O7    A    
C42   H12   S    
Cu2   N2    S    
O10   H24   S    
C2    C9    S    
C24   O8    A    
Cu2   O3    S    
C25   C33   A    
C19   C21   A    
