data_mof_unit_51283.cif
_audit_creation_date              2012-12-10T17:19:22-0500
_audit_creation_method            fapswitch 2.2
_symmetry_space_group_name_H-M    P1
_symmetry_Int_Tables_number       1
_space_group_crystal_system       triclinic
_cell_length_a                    15.046474
_cell_length_b                    10.855291
_cell_length_c                    9.657112
_cell_angle_alpha                 88.542689
_cell_angle_beta                  88.374355
_cell_angle_gamma                 94.386618
_cell_volume                      1571.47677433

loop_
_atom_site_label
_atom_site_type_symbol
_atom_type_description
_atom_site_fract_x
_atom_site_fract_y
_atom_site_fract_z
_atom_type_partial_charge
C1    C     C_R   0.498848 0.261636 0.502912 0.802358
C2    C     C_R   0.912481 0.587357 0.415280 0.107725
C3    C     C_R   0.942406 0.334276 0.673030 -0.201117
C4    C     C_R   0.035210 0.336005 0.673023 -0.169056
C5    C     C_R   0.087746 0.421669 0.588445 0.099301
C6    C     C_R   0.047108 0.506694 0.502727 0.016888
C7    C     C_R   0.099629 0.594370 0.417911 0.061430
C8    C     C_R   0.056865 0.677699 0.333220 -0.144356
C9    C     C_R   0.964279 0.673933 0.331882 -0.221394
C10   C     C_R   0.180263 0.422616 0.587199 -0.250657
C11   C     C_R   0.232810 0.508216 0.503609 -0.114887
C12   C     C_R   0.329186 0.502128 0.501406 0.847323
C13   C     C_R   0.193235 0.595929 0.419835 0.187502
C14   C     C_R   0.465189 0.099342 0.768241 -0.117076
C15   C     C_R   0.423795 0.029112 0.878159 -0.097201
C16   C     C_R   0.387833 0.909880 0.856899 -0.093213
C17   C     C_R   0.401065 0.856550 0.729523 -0.115852
C18   C     C_R   0.447734 0.924105 0.619316 0.095965
C19   C     C_R   0.469254 0.052279 0.632427 0.098401
C20   C     C_R   0.491948 0.125463 0.509013 -0.120624
C21   C     C_R   0.496035 0.067498 0.381240 -0.242427
C22   C     C_R   0.485886 0.940437 0.372944 -0.008186
C23   C     C_R   0.489221 0.735242 0.498461 0.856063
C24   C     C_R   0.471536 0.867043 0.495296 -0.124980
C25   C     C_R   0.651328 0.607888 0.130226 0.040136
C26   C     C_R   0.732284 0.600811 0.057778 -0.281521
C27   C     C_R   0.732117 0.598057 0.914946 -0.229613
C28   C     C_R   0.651465 0.608097 0.850514 0.338744
C29   C     C_R   0.571363 0.559801 0.920741 0.089258
C30   C     C_R   0.571501 0.559132 0.069673 0.120682
C31   C     C_R   0.433281 0.441778 0.079626 -0.040764
C32   C     C_R   0.433549 0.439825 0.933076 0.312132
C33   C     C_R   0.670960 0.498972 0.498768 0.834878
C34   C     C_R   0.819978 0.583772 0.414110 -0.217754
C35   C     C_R   0.767699 0.498182 0.497643 -0.052188
C36   C     C_R   0.808082 0.416057 0.585796 -0.247381
C37   C     C_R   0.901058 0.417431 0.587493 0.108140
C38   C     C_R   0.953587 0.503712 0.501732 0.080415
Cu1   Cu    Cu3+1 0.499990 0.499990 0.640660 1.002668
Cu2   Cu    Cu3+1 0.500010 0.500010 0.359340 0.992784
H1    H     H_    0.789254 0.650652 0.351643 0.144386
H2    H     H_    0.495071 0.187817 0.795839 0.184761
H3    H     H_    0.418657 0.068183 0.979887 0.154227
H4    H     H_    0.352114 0.857150 0.940405 0.176299
H5    H     H_    0.372261 0.763247 0.716830 0.159733
H6    H     H_    0.379321 0.392174 0.139126 0.172466
H7    H     H_    0.795060 0.626105 0.105819 0.162549
H8    H     H_    0.794477 0.621747 0.858102 0.190599
H9    H     H_    0.767071 0.350798 0.651803 0.147762
H10   H     H_    0.903004 0.267600 0.739311 0.156800
H11   H     H_    0.065966 0.270415 0.739283 0.165097
H12   H     H_    0.211476 0.354249 0.648574 0.201504
H13   H     H_    0.093931 0.745922 0.266448 0.197984
H14   H     H_    0.933109 0.738826 0.265220 0.152461
H15   H     H_    0.508088 0.121440 0.285494 0.167803
N1    N     N_R   0.500860 0.501210 0.147910 -0.212106
N2    N     N_R   0.500890 0.501290 0.852040 -0.217780
O1    O     O_R   0.499990 0.319640 0.618810 -0.582097
O2    O     O_R   0.500000 0.319660 0.381240 -0.587913
O3    O     O_R   0.370250 0.499960 0.618800 -0.550600
O4    O     O_R   0.370260 0.499980 0.381230 -0.557887
O5    O     O_R   0.500000 0.680340 0.618760 -0.550139
O6    O     O_R   0.500010 0.680360 0.381190 -0.563346
O7    O     O_R   0.629740 0.500020 0.618770 -0.574769
O8    O     O_R   0.629750 0.500040 0.381200 -0.593976
C39   C     C_1   0.486835 0.889947 0.235986 0.342603
N3    N     N_1   0.487730 0.849325 0.126422 -0.277555
C40   C     C_1   0.653465 0.708960 0.224005 0.324536
N4    N     N_1   0.660157 0.791643 0.297406 -0.298163
Br1   Br    Br    0.659317 0.756597 0.737435 -0.500168
Br2   Br    Br    0.339111 0.337852 0.857559 -0.570884
Br3   Br    Br    0.267444 0.720483 0.314044 -0.566733

loop_
_geom_bond_atom_site_label_1
_geom_bond_atom_site_label_2
_ccdc_geom_bond_type
C27   H8    S    
C8    C9    A    
C35   C36   A    
C10   H12   S    
C33   O8    A    
C7    C8    A    
Cu1   O7    S    
C25   C40   S    
C26   C27   A    
C29   C30   A    
Cu2   O6    S    
C18   C24   A    
C36   C37   A    
C17   H5    S    
C34   C35   A    
C1    O2    A    
C5    C6    A    
C15   C16   A    
Cu1   N2    S    
C18   C19   A    
C22   C39   S    
C23   O5    A    
C19   C20   A    
C16   C17   A    
Cu2   N1    S    
C31   H6    S    
C23   C24   S    
C6    C38   A    
C31   N1    A    
C16   H4    S    
C14   H2    S    
C2    C34   A    
C23   O6    A    
C39   N3    T    
Cu2   O2    S    
C21   C22   A    
C34   H1    S    
C32   N2    A    
C3    H10   S    
C32   Br2   S    
C4    H11   S    
Cu1   Cu2   S    
C21   H15   S    
C40   N4    T    
C25   C26   A    
Cu1   O1    S    
C30   N1    A    
Cu2   O4    S    
C37   C38   A    
C2    C38   A    
C31   C32   A    
C17   C18   A    
C26   H7    S    
C29   N2    A    
Cu2   O8    S    
C22   C24   A    
C3    C4    A    
C25   C30   A    
Cu1   O5    S    
C28   C29   A    
C1    C20   S    
C14   C19   A    
C28   Br1   S    
C4    C5    A    
C8    H13   S    
C11   C12   S    
C6    C7    A    
C13   Br3   S    
C15   H3    S    
C5    C10   A    
C1    O1    A    
C12   O4    A    
C11   C13   A    
C33   O7    A    
Cu1   O3    S    
C33   C35   S    
C10   C11   A    
C12   O3    A    
C7    C13   A    
C20   C21   A    
C3    C37   A    
C27   C28   A    
C14   C15   A    
C9    H14   S    
C2    C9    A    
C36   H9    S    
