data_mof_unit_30200.cif
_audit_creation_date              2012-10-26T21:17:10-0400
_audit_creation_method            fapswitch 2.2
_symmetry_space_group_name_H-M    P1
_symmetry_Int_Tables_number       1
_space_group_crystal_system       triclinic
_cell_length_a                    14.318148
_cell_length_b                    10.915688
_cell_length_c                    9.834352
_cell_angle_alpha                 94.572125
_cell_angle_beta                  89.730164
_cell_angle_gamma                 92.136455
_cell_volume                      1531.07628881

loop_
_atom_site_label
_atom_site_type_symbol
_atom_type_description
_atom_site_fract_x
_atom_site_fract_y
_atom_site_fract_z
_atom_type_partial_charge
C1    C     C_R   0.496886 0.266109 0.494167 0.557842
C2    C     C_R   0.498874 0.735013 0.506231 0.516665
C3    C     C_R   0.668531 0.498899 0.499373 0.538288
C4    C     C_1   0.229017 0.499602 0.499961 -0.062690
C5    C     C_1   0.143498 0.498845 0.499028 -0.058297
C6    C     C_1   0.042718 0.497531 0.497997 -0.014717
C7    C     C_1   0.957175 0.496509 0.497312 -0.012900
C8    C     C_1   0.856414 0.495965 0.496939 -0.058767
C9    C     C_3   0.398536 0.882808 0.717976 0.024431
C10   C     C_3   0.307812 0.851842 0.636872 -0.262578
C11   C     C_3   0.235487 0.786675 0.723010 -0.482881
C12   C     C_1   0.770908 0.496618 0.497568 -0.055506
C13   C     C_3   0.687155 0.096061 0.308400 0.002447
C14   C     C_3   0.762509 0.195076 0.285146 -0.234382
C15   C     C_3   0.810580 0.170861 0.147335 -0.465374
C16   C     C_2   0.384282 0.091079 0.450476 0.206415
C17   C     C_3   0.292289 0.374212 0.855390 0.020448
C18   C     C_3   0.230835 0.282935 0.766453 -0.237284
C19   C     C_3   0.127309 0.307722 0.787050 -0.479839
C20   C     C_3   0.612253 0.659373 0.873283 0.064529
C21   C     C_3   0.703355 0.588705 0.880842 -0.257657
C22   C     C_3   0.783322 0.653816 0.808100 -0.478835
C23   C     C_2   0.547839 0.930337 0.428987 -0.036915
C24   C     C_2   0.393035 0.321463 0.131288 0.246281
C25   C     C_2   0.595534 0.487456 0.120961 0.452370
C26   C     C_2   0.501581 0.869835 0.523786 0.266797
C27   C     C_2   0.557603 0.065876 0.441828 0.281232
C28   C     C_2   0.482989 0.134754 0.473743 0.098531
C29   C     C_2   0.443846 0.427058 0.914408 0.492603
C30   C     C_2   0.444062 0.426081 0.072563 0.151953
C31   C     C_R   0.331434 0.499887 0.500179 0.512253
Cu1   Cu    Cu3+1 0.500020 0.500020 0.638630 1.000854
Cu2   Cu    Cu3+1 0.499980 0.499980 0.361370 0.942128
H1    H     H_    0.582558 0.880434 0.344350 0.065328
H2    H     H_    0.720197 0.005266 0.305982 0.125241
H3    H     H_    0.730030 0.286147 0.288687 0.208748
H4    H     H_    0.815612 0.197722 0.367541 0.172598
H5    H     H_    0.864789 0.244380 0.133980 0.153152
H6    H     H_    0.758976 0.170745 0.063308 0.189686
H7    H     H_    0.844714 0.080862 0.141811 0.139062
H8    H     H_    0.328468 0.143032 0.499139 0.076651
H9    H     H_    0.282037 0.468790 0.824791 0.125859
H10   H     H_    0.268302 0.371170 0.962566 0.114325
H11   H     H_    0.249331 0.289873 0.657564 0.155878
H12   H     H_    0.380857 0.951661 0.802638 0.180569
H13   H     H_    0.243743 0.187753 0.792514 0.185408
H14   H     H_    0.113032 0.403695 0.766068 0.155153
H15   H     H_    0.106040 0.292937 0.893448 0.151269
H16   H     H_    0.084934 0.243884 0.716309 0.153462
H17   H     H_    0.623783 0.746470 0.938459 0.115284
H18   H     H_    0.605652 0.691190 0.772663 0.193098
H19   H     H_    0.727834 0.587826 0.986667 0.133756
H20   H     H_    0.693875 0.492159 0.837659 0.227507
H21   H     H_    0.845251 0.595312 0.801654 0.158726
H22   H     H_    0.803058 0.742500 0.866030 0.139758
H23   H     H_    0.422769 0.804322 0.771243 0.180781
H24   H     H_    0.762909 0.673725 0.703822 0.153361
H25   H     H_    0.358368 0.331466 0.228545 0.134503
H26   H     H_    0.643272 0.561656 0.158020 0.096898
H27   H     H_    0.278031 0.938059 0.606703 0.179264
H28   H     H_    0.320909 0.791507 0.543154 0.186228
H29   H     H_    0.262559 0.698755 0.753247 0.157690
H30   H     H_    0.170558 0.766128 0.662850 0.156848
H31   H     H_    0.218347 0.846082 0.816103 0.154213
H32   H     H_    0.635168 0.094941 0.223847 0.160642
N1    N     N_2   0.499070 0.498660 0.846910 -0.026392
N2    N     N_2   0.499040 0.498630 0.153040 -0.263282
O1    O     O_R   0.500010 0.321960 0.617040 -0.433682
O2    O     O_3   0.645798 0.123145 0.437481 -0.577753
O3    O     O_2   0.363980 0.002136 0.371460 -0.515855
O4    O     O_3   0.386757 0.341523 0.839407 -0.523113
O5    O     O_3   0.528654 0.602682 0.922899 -0.552069
O6    O     O_2   0.390304 0.219565 0.070098 -0.478211
O7    O     O_2   0.626243 0.393007 0.064856 -0.552883
O8    O     O_R   0.499990 0.321920 0.382900 -0.506992
O9    O     O_R   0.376070 0.500020 0.617100 -0.484565
O10   O     O_R   0.376040 0.499980 0.382950 -0.517065
O11   O     O_R   0.500010 0.678080 0.617100 -0.530136
O12   O     O_R   0.499990 0.678040 0.382960 -0.505240
O13   O     O_R   0.623960 0.500020 0.617050 -0.495475
O14   O     O_R   0.623930 0.499980 0.382900 -0.512383
O15   O     O_3   0.471046 0.938082 0.641990 -0.583297

loop_
_geom_bond_atom_site_label_1
_geom_bond_atom_site_label_2
_ccdc_geom_bond_type
C16   C28   S    
C9    H12   S    
C25   N2    S    
C11   H29   S    
C22   H24   S    
C7    C8    S    
C22   H21   S    
C13   H32   S    
C18   C19   S    
C20   H18   S    
C11   H30   S    
C14   H3    S    
C5    C6    S    
C19   H14   S    
C24   O6    D    
C1    O1    A    
C25   O7    D    
C23   C26   D    
C17   H9    S    
C20   H17   S    
C3    C12   S    
Cu2   O8    S    
N1    O5    S    
C3    O14   A    
C1    C28   S    
C2    O12   A    
C23   C27   S    
C9    C10   S    
C30   N2    D    
C27   O2    S    
C9    O15   S    
Cu1   O1    S    
C26   O15   S    
C13   C14   S    
C3    O13   A    
C18   H13   S    
C31   O10   A    
C1    O8    A    
C16   O3    D    
C11   H31   S    
C19   H15   S    
Cu2   O12   S    
C10   H27   S    
C17   H10   S    
C15   H5    S    
C29   C30   S    
C2    O11   A    
C18   H11   S    
Cu1   O13   S    
C19   H16   S    
C8    C12   T    
C23   H1    S    
C17   C18   S    
C2    C26   S    
C9    H23   S    
C15   H6    S    
C6    C7    T    
C17   O4    S    
C10   H28   S    
Cu2   N2    S    
Cu1   N1    S    
C4    C5    T    
Cu1   O9    S    
C13   H2    S    
C22   H22   S    
Cu1   Cu2   S    
C14   H4    S    
C21   H20   S    
Cu2   O10   S    
C31   O9    A    
C13   O2    S    
C24   C30   S    
C15   H7    S    
C4    C31   S    
C10   C11   S    
Cu1   O11   S    
C29   N1    D    
C20   C21   S    
C24   H25   S    
C27   C28   D    
C14   C15   S    
C20   O5    S    
C25   H26   S    
C21   C22   S    
Cu2   O14   S    
C16   H8    S    
C21   H19   S    
C29   O4    S    
