data_mof_unit_54464.cif
_audit_creation_date              2012-12-11T14:07:41-0500
_audit_creation_method            fapswitch 2.2
_symmetry_space_group_name_H-M    P1
_symmetry_Int_Tables_number       1
_space_group_crystal_system       triclinic
_cell_length_a                    19.691641
_cell_length_b                    16.985945
_cell_length_c                    15.39326
_cell_angle_alpha                 89.81924
_cell_angle_beta                  53.453549
_cell_angle_gamma                 90.217558
_cell_volume                      4136.25395

loop_
_atom_site_label
_atom_site_type_symbol
_atom_type_description
_atom_site_fract_x
_atom_site_fract_y
_atom_site_fract_z
_atom_type_partial_charge
C1    C     C_R   0.375855 0.197886 0.994351 -0.117715
C2    C     C_R   0.710535 0.853441 0.981692 0.156588
C3    C     C_R   0.150058 0.684354 0.074380 0.145702
C4    C     C_R   0.210546 0.353459 0.981666 0.156553
C5    C     C_R   0.620571 0.819040 0.691543 0.032019
C6    C     C_R   0.692280 0.138766 0.679955 0.108360
C7    C     C_R   0.120435 0.318986 0.691620 0.031391
C8    C     C_R   0.192286 0.638758 0.679956 0.108331
C9    C     C_3   0.178856 0.132753 0.519386 -0.143532
C10   C     C_3   0.359462 0.793741 0.486521 -0.183732
C11   C     C_3   0.678709 0.632881 0.519263 -0.143798
C12   C     C_R   0.339283 0.825619 0.051449 -0.111149
C13   C     C_3   0.859459 0.293747 0.486524 -0.183562
C14   C     C_3   0.127547 0.184628 0.621886 -0.466645
C15   C     C_3   0.302331 0.746101 0.592244 -0.471934
C16   C     C_3   0.627739 0.684666 0.621871 -0.467928
C17   C     C_3   0.802319 0.246113 0.592251 -0.472000
C18   C     C_3   0.312303 0.217082 0.450182 -0.298546
C19   C     C_3   0.377740 0.671357 0.378186 -0.270908
C20   C     C_3   0.812315 0.716799 0.450367 -0.298729
C21   C     C_3   0.877739 0.171360 0.378190 -0.270745
C22   C     C_3   0.711035 0.752488 0.404697 -0.360119
C23   C     C_R   0.875859 0.697886 0.994348 -0.117792
C24   C     C_3   0.756606 0.268029 0.442807 -0.377035
C25   C     C_3   0.210706 0.252294 0.404879 -0.359239
C26   C     C_3   0.256604 0.768024 0.442812 -0.377103
C27   C     C_3   0.253348 0.183018 0.421744 0.135928
C28   C     C_3   0.350817 0.760791 0.397510 0.220212
C29   C     C_3   0.753396 0.683025 0.421704 0.136349
C30   C     C_3   0.850819 0.260795 0.397510 0.220177
C31   C     C_3   0.666575 0.768491 0.595814 0.211087
C32   C     C_3   0.753969 0.181240 0.578213 0.206094
C33   C     C_3   0.166432 0.268426 0.595898 0.210921
C34   C     C_R   0.839284 0.325619 0.051449 -0.111067
C35   C     C_3   0.253974 0.681232 0.578212 0.205970
C36   C     C_3   0.760844 0.765834 0.553955 0.309264
C37   C     C_3   0.819273 0.124583 0.486320 0.301314
C38   C     C_3   0.260674 0.265696 0.554167 0.309034
C39   C     C_3   0.319271 0.624576 0.486313 0.301389
C40   C     C_R   0.401481 0.799740 0.206880 -0.175008
C41   C     C_R   0.348230 0.168875 0.218080 -0.105228
C42   C     C_R   0.901484 0.299740 0.206878 -0.174877
C43   C     C_R   0.848221 0.668861 0.218067 -0.104017
C44   C     C_3   0.662749 0.803778 0.505301 -0.455585
C45   C     C_R   0.669470 0.917505 0.050679 -0.104547
C46   C     C_3   0.700698 0.220660 0.546306 -0.459385
C47   C     C_3   0.162678 0.303749 0.505342 -0.455072
C48   C     C_3   0.200698 0.720659 0.546316 -0.459250
C49   C     C_2   0.189980 0.741144 0.101350 -0.190308
C50   C     C_2   0.284573 0.315250 0.960397 -0.176089
C51   C     C_2   0.689985 0.241141 0.101344 -0.190446
C52   C     C_2   0.784595 0.815258 0.960363 -0.175986
C53   C     C_2   0.709880 0.313465 0.056594 -0.170440
C54   C     C_2   0.811891 0.747971 0.904520 -0.168513
C55   C     C_2   0.209877 0.813467 0.056597 -0.170121
C56   C     C_R   0.633221 0.105402 0.105651 -0.158001
C57   C     C_2   0.311893 0.247976 0.904518 -0.168676
C58   C     C_R   0.328661 0.913574 0.953548 -0.149878
C59   C     C_R   0.366123 0.111644 0.895884 -0.143149
C60   C     C_R   0.828661 0.413573 0.953547 -0.149929
C61   C     C_R   0.866129 0.611644 0.895880 -0.143149
C62   C     C_R   0.357944 0.076549 0.313619 -0.136751
C63   C     C_R   0.411306 0.891028 0.300901 -0.066015
C64   C     C_R   0.857924 0.576527 0.313609 -0.137019
C65   C     C_R   0.911310 0.391028 0.300899 -0.066216
C66   C     C_R   0.348383 0.188091 0.931750 0.138173
C67   C     C_R   0.169475 0.417517 0.050664 -0.104501
C68   C     C_R   0.286283 0.852559 0.027779 0.149221
C69   C     C_R   0.848393 0.688090 0.931743 0.138057
C70   C     C_R   0.786284 0.352558 0.027778 0.149415
C71   C     C_R   0.396005 0.811997 0.299670 0.074131
C72   C     C_R   0.307365 0.136673 0.321394 0.038361
C73   C     C_R   0.896010 0.311997 0.299667 0.074175
C74   C     C_R   0.807361 0.636659 0.321373 0.038564
C75   C     C_R   0.622959 0.200368 0.012109 -0.121703
C76   C     C_R   0.660045 0.822082 0.955018 -0.092467
C77   C     C_R   0.122956 0.700369 0.012112 -0.121309
C78   C     C_R   0.133217 0.605404 0.105656 -0.158230
C79   C     C_R   0.160063 0.322106 0.954977 -0.092765
C80   C     C_R   0.605144 0.802188 0.789462 -0.033406
C81   C     C_R   0.650490 0.171542 0.782087 -0.121419
C82   C     C_R   0.105071 0.302166 0.789507 -0.033927
C83   C     C_R   0.150493 0.671538 0.782087 -0.121394
C84   C     C_R   0.642497 0.077917 0.685882 -0.122642
C85   C     C_R   0.597611 0.895776 0.693644 -0.150797
C86   C     C_R   0.142501 0.577908 0.685885 -0.122746
C87   C     C_R   0.097551 0.395748 0.693678 -0.150628
C88   C     C_2   0.388289 0.263277 0.358711 0.542825
C89   C     C_R   0.650062 0.184352 0.074375 0.145674
C90   C     C_2   0.379674 0.630968 0.289301 0.457082
C91   C     C_2   0.888806 0.762448 0.358848 0.543894
C92   C     C_2   0.879665 0.130970 0.289313 0.456688
C93   C     C_2   0.205161 0.058485 0.545973 0.480132
C94   C     C_2   0.448901 0.799162 0.454060 0.514795
C95   C     C_2   0.704668 0.558246 0.545593 0.480975
C96   C     C_2   0.948896 0.299165 0.454071 0.514879
Cl1   Cl    Cl    0.777256 0.727076 0.649359 -0.753696
Cl2   Cl    Cl    0.880384 0.073023 0.519885 -0.643941
Cl3   Cl    Cl    0.276904 0.226313 0.649479 -0.754500
Cl4   Cl    Cl    0.380380 0.573001 0.519870 -0.643785
H1    H     H_    0.385207 0.252982 0.020833 0.091170
H2    H     H_    0.757225 0.288038 0.656415 0.154787
H3    H     H_    0.060829 0.188048 0.650047 0.177438
H4    H     H_    0.257242 0.788023 0.656418 0.154955
H5    H     H_    0.125221 0.158327 0.689884 0.182035
H6    H     H_    0.338603 0.719321 0.618999 0.200901
H7    H     H_    0.625876 0.658315 0.689498 0.182024
H8    H     H_    0.838584 0.219340 0.619020 0.200918
H9    H     H_    0.339743 0.166261 0.464780 0.126685
H10   H     H_    0.443650 0.668339 0.352194 0.189724
H11   H     H_    0.839166 0.665807 0.465589 0.126598
H12   H     H_    0.329511 0.776983 0.102826 0.103320
H13   H     H_    0.943650 0.168341 0.352191 0.189711
H14   H     H_    0.757671 0.791053 0.335813 0.202550
H15   H     H_    0.745962 0.247957 0.383054 0.209762
H16   H     H_    0.257119 0.290816 0.335782 0.202012
H17   H     H_    0.245958 0.747946 0.383062 0.209692
H18   H     H_    0.667302 0.729600 0.387202 0.186030
H19   H     H_    0.736699 0.330822 0.460007 0.208842
H20   H     H_    0.166758 0.229197 0.387856 0.186084
H21   H     H_    0.236696 0.830817 0.460007 0.208938
H22   H     H_    0.595934 0.809110 0.534283 0.177349
H23   H     H_    0.885210 0.752981 0.020832 0.091262
H24   H     H_    0.652376 0.260136 0.612110 0.199744
H25   H     H_    0.095874 0.309318 0.534348 0.176924
H26   H     H_    0.152385 0.760140 0.612121 0.199841
H27   H     H_    0.691868 0.863664 0.481965 0.189182
H28   H     H_    0.666080 0.175611 0.533823 0.184322
H29   H     H_    0.192025 0.363544 0.481865 0.189941
H30   H     H_    0.166070 0.675613 0.533845 0.184271
H31   H     H_    0.398549 0.744757 0.174849 0.117408
H32   H     H_    0.328879 0.218247 0.193912 0.102844
H33   H     H_    0.898553 0.244756 0.174848 0.117411
H34   H     H_    0.829511 0.276984 0.102826 0.103310
H35   H     H_    0.828862 0.718240 0.193916 0.102737
H36   H     H_    0.785039 0.827541 0.537998 0.147959
H37   H     H_    0.784513 0.077834 0.476987 0.113162
H38   H     H_    0.284823 0.327406 0.538751 0.148097
H39   H     H_    0.284505 0.577835 0.476978 0.113320
H40   H     H_    0.216663 0.717850 0.140509 0.140376
H41   H     H_    0.304545 0.334222 0.009177 0.128590
H42   H     H_    0.716668 0.217847 0.140503 0.140450
H43   H     H_    0.804618 0.834258 0.009073 0.128569
H44   H     H_    0.681262 0.337811 0.020464 0.127297
H45   H     H_    0.135976 0.114694 0.498073 0.181362
H46   H     H_    0.794218 0.730161 0.852906 0.174505
H47   H     H_    0.181259 0.837813 0.020467 0.127371
H48   H     H_    0.294257 0.230187 0.852850 0.174512
H49   H     H_    0.307158 0.947900 0.915036 0.103843
H50   H     H_    0.362385 0.086056 0.834562 0.110642
H51   H     H_    0.807159 0.447897 0.915032 0.103765
H52   H     H_    0.862391 0.586056 0.834558 0.110518
H53   H     H_    0.351495 0.042202 0.377000 0.098194
H54   H     H_    0.419854 0.921447 0.355267 0.079951
H55   H     H_    0.851447 0.542183 0.377017 0.097723
H56   H     H_    0.334422 0.854790 0.506963 0.103477
H57   H     H_    0.919859 0.421448 0.355262 0.079853
H58   H     H_    0.615867 0.256953 0.986349 0.089359
H59   H     H_    0.670286 0.770802 0.907583 0.125401
H60   H     H_    0.115865 0.756953 0.986351 0.089467
H61   H     H_    0.170311 0.270832 0.907531 0.125541
H62   H     H_    0.606546 0.745313 0.819985 0.119080
H63   H     H_    0.669071 0.221561 0.806573 0.095887
H64   H     H_    0.106439 0.245295 0.820067 0.119475
H65   H     H_    0.169075 0.721556 0.806572 0.095892
H66   H     H_    0.652914 0.043794 0.620066 0.096733
H67   H     H_    0.635684 0.615296 0.497996 0.181626
H68   H     H_    0.590594 0.925352 0.637214 0.095947
H69   H     H_    0.152921 0.543776 0.620073 0.096817
H70   H     H_    0.090563 0.425330 0.637225 0.095951
H71   H     H_    0.690836 0.951451 0.089528 0.104228
H72   H     H_    0.637288 0.078102 0.165967 0.107775
H73   H     H_    0.190832 0.451456 0.089526 0.104231
H74   H     H_    0.137282 0.578105 0.165974 0.107793
H75   H     H_    0.450170 0.236042 0.311904 0.027403
H76   H     H_    0.439974 0.614541 0.215346 0.043055
H77   H     H_    0.950547 0.734977 0.312991 0.027273
H78   H     H_    0.834423 0.354798 0.506958 0.102935
H79   H     H_    0.939960 0.114538 0.215357 0.043181
H80   H     H_    0.243830 0.061823 0.574638 0.053431
H81   H     H_    0.458239 0.816924 0.513964 0.004012
H82   H     H_    0.743287 0.561100 0.574362 0.051210
H83   H     H_    0.958230 0.316937 0.513974 0.003922
H84   H     H_    0.560889 0.688044 0.650563 0.177522
N1    N     N_R   0.408680 0.130160 0.995800 -0.044020
N2    N     N_R   0.403730 0.078230 0.935950 -0.042450
N3    N     N_R   0.903730 0.421770 0.935950 -0.045408
N4    N     N_R   0.903730 0.578230 0.935950 -0.042440
N5    N     N_R   0.426630 0.075970 0.212960 -0.050250
N6    N     N_R   0.426630 0.924030 0.212960 -0.040621
N7    N     N_R   0.926630 0.575970 0.212960 -0.050303
N8    N     N_R   0.926630 0.424030 0.212960 -0.040553
N9    N     N_R   0.591320 0.134600 0.004200 -0.043866
N10   N     N_R   0.591320 0.865400 0.004200 -0.054341
N11   N     N_R   0.091320 0.634600 0.004200 -0.043924
N12   N     N_R   0.408680 0.869840 0.995800 -0.051583
N13   N     N_R   0.091320 0.365400 0.004200 -0.054319
N14   N     N_R   0.578320 0.867660 0.846880 -0.046314
N15   N     N_R   0.578320 0.132340 0.846880 -0.045444
N16   N     N_R   0.078320 0.367660 0.846880 -0.046321
N17   N     N_R   0.078320 0.632340 0.846880 -0.045448
N18   N     N_R   0.573370 0.074390 0.787040 -0.043033
N19   N     N_R   0.573370 0.925610 0.787040 -0.032270
N20   N     N_R   0.073370 0.574390 0.787040 -0.043043
N21   N     N_R   0.073370 0.425610 0.787040 -0.032274
N22   N     N_R   0.596270 0.927870 0.064040 -0.043751
N23   N     N_R   0.908680 0.630160 0.995800 -0.044070
N24   N     N_R   0.596270 0.072130 0.064040 -0.041041
N25   N     N_R   0.096270 0.427870 0.064040 -0.043745
N26   N     N_R   0.096270 0.572130 0.064040 -0.041063
N27   N     N_R   0.908680 0.369840 0.995800 -0.051576
N28   N     N_R   0.421680 0.867580 0.153120 -0.040483
N29   N     N_R   0.421680 0.132420 0.153120 -0.048422
N30   N     N_R   0.921680 0.367580 0.153120 -0.040470
N31   N     N_R   0.921680 0.632420 0.153120 -0.048418
N32   N     N_R   0.403730 0.921770 0.935950 -0.045423
Ni1   Ni    Ni4+2 0.500000 0.131190 0.000000 0.221530
Ni2   Ni    Ni4+2 0.500000 0.868810 0.000000 0.219899
Ni3   Ni    Ni4+2 0.000000 0.631190 0.000000 0.221759
Ni4   Ni    Ni4+2 1.000000 0.368810 0.000000 0.219922
Ni5   Ni    Ni4+2 0.488650 0.000000 0.862740 0.220294
Ni6   Ni    Ni4+2 0.988650 0.500000 0.862740 0.220252
Ni7   Ni    Ni4+2 0.511350 1.000000 0.137260 0.227667
Ni8   Ni    Ni4+2 0.011350 0.500000 0.137260 0.227630
O1    O     O_2   0.381103 0.329761 0.334788 -0.583478
O2    O     O_2   0.314766 0.616865 0.298532 -0.601171
O3    O     O_2   0.882206 0.828762 0.333887 -0.583698
O4    O     O_2   0.814754 0.116871 0.298550 -0.601235
O5    O     O_2   0.182376 0.994084 0.536775 -0.588272
O6    O     O_2   0.510859 0.785993 0.362040 -0.599530
O7    O     O_2   0.681662 0.494089 0.536063 -0.587682
O8    O     O_2   0.010856 0.285982 0.362059 -0.599538

loop_
_geom_bond_atom_site_label_1
_geom_bond_atom_site_label_2
_ccdc_geom_bond_type
C6    C32   S    
N4    N23   A    
N16   N21   A    
C79   N13   A    
C22   C29   S    
C86   N20   A    
C76   N10   A    
C8    C83   A    
C12   N12   A    
C23   C69   A    
C50   C57   D    
N15   Ni1   S    
C18   H9    S    
C57   H48   S    
C57   C66   S    
C83   N17   A    
C43   N31   A    
C14   C33   S    
N11   Ni3   S    
C55   C68   S    
C3    C49   S    
N10   Ni2   S    
N5    N29   A    
C26   C28   S    
C16   C31   S    
N9    Ni1   S    
N27   Ni4   S    
C12   C68   A    
C64   H55   S    
C9    C27   S    
C45   N22   A    
C88   H75   S    
N1    Ni1   S    
C47   H29   S    
C42   H33   S    
C15   H6    S    
C46   H28   S    
C40   C71   A    
C95   O7    D    
C10   C94   S    
C10   C15   S    
C59   C66   A    
N12   N32   A    
C8    C35   S    
C59   H50   S    
C58   H49   S    
C34   H34   S    
C10   C28   S    
C13   H78   S    
C86   H69   S    
C90   H76   S    
N21   Ni6   S    
C65   C73   A    
N19   Ni5   S    
C59   N2    A    
N8    N30   A    
N6    N28   A    
N32   Ni5   S    
C87   N21   A    
C16   H7    S    
N7    N31   A    
C14   H5    S    
C7    C87   A    
C42   C73   A    
C39   Cl4   S    
N15   N18   A    
C26   H17   S    
C36   Cl1   S    
C94   H81   S    
C15   H4    S    
N13   Ni4   S    
C25   C47   S    
C50   H41   S    
C26   C48   S    
C78   N26   A    
C54   H46   S    
C44   H27   S    
C91   O3    D    
C9    H45   S    
C43   C74   A    
C14   H3    S    
N9    N24   A    
C37   H37   S    
C56   H72   S    
C11   H67   S    
C81   H63   S    
N18   Ni5   S    
C46   H24   S    
N14   Ni2   S    
C2    C52   S    
C32   C46   S    
C79   H61   S    
C35   C48   S    
C36   H36   S    
C15   C35   S    
C37   Cl2   S    
C93   H80   S    
C52   C54   D    
C47   H25   S    
C62   N5    A    
C20   C29   S    
C2    C45   A    
N10   N22   A    
C20   C91   S    
C39   H39   S    
C52   H43   S    
N26   Ni8   S    
C31   C44   S    
C7    C33   S    
C13   C96   S    
C13   C30   S    
C84   N18   A    
N17   Ni3   S    
N11   N26   A    
C21   H13   S    
C17   H8    S    
C10   H56   S    
C30   C73   S    
N29   Ni1   S    
C23   H23   S    
C29   C74   S    
C49   C55   D    
C87   H70   S    
C48   H26   S    
C61   N4    A    
C18   C88   S    
C4    C50   S    
N24   Ni7   S    
C60   H51   S    
C35   C39   S    
C17   H2    S    
C82   N16   A    
C6    C84   A    
C42   N30   A    
C92   H79   S    
N31   Ni3   S    
C41   H32   S    
C20   H11   S    
C41   N29   A    
C11   C16   S    
C55   H47   S    
C88   O1    D    
C56   N24   A    
C65   N8    A    
C60   C70   A    
N22   Ni7   S    
C45   H71   S    
C80   N14   A    
N5    Ni7   S    
C1    C66   A    
C38   H38   S    
C9    C14   S    
C62   C72   A    
C32   C37   S    
C5    C80   A    
C43   H35   S    
C19   C28   S    
C83   H65   S    
N8    Ni8   S    
C85   N19   A    
C19   C39   S    
C4    C79   A    
C41   C72   A    
N3    N27   A    
C75   N9    A    
C75   H58   S    
C65   H57   S    
C56   C89   A    
C26   H21   S    
C40   H31   S    
C63   C71   A    
C1    H1    S    
N16   Ni4   S    
N17   N20   A    
C25   H16   S    
C28   C71   S    
C96   H83   S    
C3    C77   A    
C25   H20   S    
C9    C93   S    
C12   H12   S    
C64   N7    A    
C2    C76   A    
N13   N25   A    
C94   O6    D    
C78   H74   S    
C19   H10   S    
C93   O5    D    
C22   H18   S    
C34   C70   A    
C24   H19   S    
C22   C44   S    
C23   N23   A    
C85   H68   S    
N20   Ni6   S    
C90   O2    D    
C18   C27   S    
C63   H54   S    
C53   C70   S    
C38   Cl3   S    
C81   N15   A    
C4    C67   A    
N12   Ni2   S    
C16   H84   S    
C95   H82   S    
C51   H42   S    
N3    Ni6   S    
C1    N1    A    
C25   C27   S    
C63   N6    A    
C21   C30   S    
C40   N28   A    
N23   Ni3   S    
C33   C38   S    
C62   H53   S    
C13   C17   S    
C53   H44   S    
C61   C69   A    
C18   C38   S    
C24   C46   S    
C19   C90   S    
N30   Ni4   S    
C76   H59   S    
C51   C89   S    
C11   C29   S    
C60   N3    A    
C48   H30   S    
C58   C68   A    
N1    N2    A    
C54   C69   S    
N28   Ni2   S    
C67   H73   S    
C33   C47   S    
C91   H77   S    
C44   H22   S    
C67   N25   A    
C8    C86   A    
C96   O8    D    
C77   N11   A    
N25   Ni8   S    
C61   H52   S    
C24   C30   S    
C84   H66   S    
C34   N27   A    
C75   C89   A    
C77   H60   S    
N2    Ni5   S    
C20   C36   S    
C82   H64   S    
C22   H14   S    
C7    C82   A    
C21   C37   S    
C92   O4    D    
C24   H15   S    
C80   H62   S    
C49   H40   S    
N14   N19   A    
C6    C81   A    
C17   C32   S    
C64   C74   A    
C31   C36   S    
C11   C95   S    
C51   C53   D    
N6    Ni7   S    
C3    C78   A    
N7    Ni8   S    
C5    C85   A    
C27   C72   S    
N4    Ni6   S    
C5    C31   S    
C21   C92   S    
C58   N32   A    
