data_mof_unit_64886.cif
_audit_creation_date              2012-12-10T18:49:12-0500
_audit_creation_method            fapswitch 2.2
_symmetry_space_group_name_H-M    P1
_symmetry_Int_Tables_number       1
_space_group_crystal_system       triclinic
_cell_length_a                    19.494792
_cell_length_b                    18.143457
_cell_length_c                    15.899069
_cell_angle_alpha                 90.716539
_cell_angle_beta                  91.375342
_cell_angle_gamma                 88.4366
_cell_volume                      5619.43911756

loop_
_atom_site_label
_atom_site_type_symbol
_atom_type_description
_atom_site_fract_x
_atom_site_fract_y
_atom_site_fract_z
_atom_type_partial_charge
C1    C     C_R   0.367735 0.500747 0.501345 0.789030
C2    C     C_R   0.817653 0.559098 0.472823 -0.128951
C3    C     C_R   0.853667 0.493458 0.489416 0.092198
C4    C     C_R   0.708686 0.495768 0.480755 -0.094043
C5    C     C_R   0.964304 0.531849 0.556897 0.148398
C6    C     C_R   0.966987 0.450468 0.433513 0.144012
C7    C     C_R   0.499834 0.499758 0.340107 0.798338
C8    C     C_R   0.035830 0.532202 0.558329 -0.136797
C9    C     C_R   0.038384 0.448351 0.438710 -0.120451
C10   C     C_R   0.072958 0.490632 0.499363 0.086134
C11   C     C_R   0.929141 0.491792 0.493418 -0.004349
C12   C     C_3   0.575823 0.541609 0.957564 0.245103
C13   C     C_R   0.186776 0.460861 0.566000 0.124960
C14   C     C_R   0.180900 0.528323 0.433729 0.125430
C15   C     C_R   0.258785 0.467303 0.569916 0.013444
C16   C     C_R   0.253213 0.531399 0.433991 0.011815
C17   C     C_R   0.292199 0.501338 0.502595 -0.123197
C18   C     C_R   0.148251 0.493201 0.499650 -0.035523
C19   C     C_R   0.463257 0.715970 0.435594 0.000301
C20   C     C_R   0.453415 0.283172 0.447397 0.007622
C21   C     C_R   0.463667 0.792841 0.421590 0.012433
C22   C     C_R   0.449095 0.205470 0.441722 0.002510
C23   C     C_3   0.566346 0.542979 0.056610 -0.443719
C24   C     C_R   0.500949 0.838189 0.478379 0.031554
C25   C     C_R   0.496834 0.160908 0.488155 0.057338
C26   C     C_R   0.632569 0.498790 0.492912 0.815766
C27   C     C_R   0.537884 0.804010 0.544468 -0.311059
C28   C     C_R   0.542400 0.196087 0.543693 -0.316817
C29   C     C_R   0.537952 0.727046 0.554034 0.339405
C30   C     C_R   0.542830 0.273306 0.550241 0.332933
C31   C     C_R   0.550813 0.959979 0.427621 0.078025
C32   C     C_R   0.552063 0.039422 0.434466 0.082275
C33   C     C_R   0.500070 0.078148 0.480397 0.063427
C34   C     C_1   0.505933 0.504390 0.824854 -0.029256
C35   C     C_R   0.501032 0.921000 0.472786 0.053682
C36   C     C_R   0.450539 0.038000 0.521018 -0.202386
C37   C     C_R   0.451586 0.961074 0.518215 -0.206317
C38   C     C_R   0.500757 0.500506 0.659932 0.863778
C39   C     C_3   0.437385 0.547733 0.046231 -0.082309
C40   C     C_3   0.507042 0.421846 0.045722 -0.091564
C41   C     C_3   0.496656 0.425296 0.948886 -0.096968
C42   C     C_3   0.441351 0.549787 0.948360 -0.076668
C43   C     C_1   0.503564 0.502203 0.749420 -0.096928
C44   C     C_3   0.501046 0.502247 0.083115 0.138713
C45   C     C_1   0.500622 0.501137 0.175438 -0.075958
C46   C     C_3   0.507193 0.506273 0.917264 0.093742
C47   C     C_3   0.298402 0.438449 0.647122 -0.373650
C48   C     C_3   0.286660 0.488825 0.724182 -0.318692
C49   C     C_3   0.305680 0.448836 0.805598 -0.820920
C50   C     C_3   0.287608 0.563224 0.358292 -0.363822
C51   C     C_3   0.282929 0.647881 0.359176 -0.296560
C52   C     C_3   0.294690 0.677981 0.271743 -0.858817
C53   C     C_3   0.424602 0.823710 0.345876 -0.411076
C54   C     C_3   0.451967 0.790291 0.263407 -0.376667
C55   C     C_3   0.417882 0.826588 0.186469 -0.819072
C56   C     C_1   0.500239 0.499875 0.250764 -0.202733
C57   C     C_3   0.393442 0.172516 0.386309 -0.448109
C58   C     C_3   0.323611 0.180252 0.428305 -0.326845
C59   C     C_3   0.267260 0.145733 0.373837 -0.810737
C60   C     C_3   0.601038 0.916698 0.372106 -0.408772
C61   C     C_3   0.587615 0.932624 0.278212 -0.355921
C62   C     C_3   0.634480 0.886068 0.221920 -0.856470
C63   C     C_3   0.609860 0.083201 0.397284 -0.405070
C64   C     C_3   0.584880 0.132892 0.324186 -0.367954
C65   C     C_3   0.642250 0.147544 0.263288 -0.837021
C66   C     C_3   0.366737 0.520069 0.074531 -0.438799
C67   C     C_R   0.747083 0.427158 0.482880 0.126641
C68   C     C_3   0.307422 0.575460 0.056111 -0.351947
C69   C     C_3   0.239269 0.546310 0.084958 -0.799327
C70   C     C_3   0.460868 0.363796 0.086524 -0.385145
C71   C     C_3   0.502113 0.312942 0.146703 -0.343293
C72   C     C_3   0.455260 0.260115 0.189702 -0.864876
C73   C     C_3   0.588866 0.619865 0.916640 -0.292670
C74   C     C_3   0.589471 0.690551 0.971826 -0.333681
C75   C     C_3   0.656070 0.698977 0.023484 -0.831926
C76   C     C_3   0.640416 0.490705 0.936910 -0.378731
C77   C     C_3   0.711459 0.518212 0.967506 -0.389154
C78   C     C_R   0.745742 0.561670 0.467299 0.063337
C79   C     C_3   0.767369 0.459033 0.953368 -0.761155
C80   C     C_3   0.719076 0.352278 0.457103 -0.364305
C81   C     C_3   0.717569 0.341541 0.360990 -0.352845
C82   C     C_3   0.652975 0.374733 0.318815 -0.775613
C83   C     C_3   0.712382 0.634086 0.438559 -0.362408
C84   C     C_3   0.679061 0.625843 0.350475 -0.320416
C85   C     C_3   0.642348 0.697134 0.323410 -0.858972
C86   C     C_R   0.818468 0.428217 0.494249 -0.152618
Cu1   Cu    Cu3+1 0.500000 0.573360 0.499980 0.959561
Cu2   Cu    Cu3+1 0.500000 0.426640 0.499980 0.948446
H1    H     H_    0.396570 0.521036 0.920854 0.153543
H2    H     H_    0.413407 0.932218 0.552546 0.163771
H3    H     H_    0.751324 0.677563 0.434905 0.187711
H4    H     H_    0.560840 0.402205 0.057503 0.171554
H5    H     H_    0.441706 0.605172 0.070931 0.178089
H6    H     H_    0.563051 0.598844 0.084267 0.181923
H7    H     H_    0.611306 0.516825 0.089796 0.158580
H8    H     H_    0.847883 0.376912 0.500668 0.158634
H9    H     H_    0.846416 0.608414 0.462802 0.152022
H10   H     H_    0.293929 0.485463 0.860065 0.242359
H11   H     H_    0.361168 0.433242 0.807127 0.250919
H12   H     H_    0.275173 0.398371 0.811029 0.274626
H13   H     H_    0.442861 0.410404 0.932907 0.144377
H14   H     H_    0.318476 0.538482 0.719370 0.225064
H15   H     H_    0.232204 0.508019 0.727259 0.251948
H16   H     H_    0.282898 0.381199 0.659326 0.230955
H17   H     H_    0.354434 0.433859 0.638542 0.202296
H18   H     H_    0.345054 0.657886 0.248215 0.246875
H19   H     H_    0.253441 0.659990 0.227381 0.280813
H20   H     H_    0.293089 0.739039 0.274049 0.245512
H21   H     H_    0.232123 0.668707 0.380348 0.249615
H22   H     H_    0.321315 0.669784 0.404742 0.209367
H23   H     H_    0.342277 0.545409 0.353821 0.172034
H24   H     H_    0.062690 0.564357 0.605921 0.172520
H25   H     H_    0.263139 0.540355 0.300297 0.211289
H26   H     H_    0.361603 0.818797 0.186151 0.258291
H27   H     H_    0.427966 0.886512 0.186270 0.247948
H28   H     H_    0.438933 0.801025 0.128380 0.251564
H29   H     H_    0.508234 0.796815 0.261179 0.233750
H30   H     H_    0.442576 0.730340 0.259910 0.215461
H31   H     H_    0.369540 0.811268 0.351691 0.197367
H32   H     H_    0.427853 0.884606 0.343523 0.212084
H33   H     H_    0.263075 0.173203 0.311800 0.254651
H34   H     H_    0.278550 0.085925 0.364112 0.252135
H35   H     H_    0.067225 0.416372 0.392923 0.177743
H36   H     H_    0.217328 0.152468 0.405592 0.251404
H37   H     H_    0.326015 0.152635 0.490333 0.224265
H38   H     H_    0.310159 0.239556 0.438803 0.222014
H39   H     H_    0.390735 0.201198 0.325264 0.197603
H40   H     H_    0.404846 0.113506 0.371823 0.214875
H41   H     H_    0.689149 0.894061 0.240179 0.262136
H42   H     H_    0.622603 0.826954 0.226296 0.250071
H43   H     H_    0.626313 0.902893 0.155439 0.250790
H44   H     H_    0.533337 0.922113 0.261002 0.227994
H45   H     H_    0.596280 0.990900 0.264412 0.239929
H46   H     H_    0.435022 0.681178 0.392516 0.148660
H47   H     H_    0.654736 0.928666 0.391188 0.188809
H48   H     H_    0.597105 0.856447 0.380419 0.212915
H49   H     H_    0.688436 0.166882 0.298107 0.254291
H50   H     H_    0.656351 0.096586 0.227684 0.254738
H51   H     H_    0.624796 0.190465 0.217779 0.248403
H52   H     H_    0.541582 0.107467 0.288677 0.214995
H53   H     H_    0.566598 0.186954 0.349536 0.228607
H54   H     H_    0.633689 0.117875 0.447397 0.190973
H55   H     H_    0.652710 0.046981 0.376233 0.210741
H56   H     H_    0.226467 0.495249 0.049329 0.258312
H57   H     H_    0.418726 0.317325 0.409523 0.144319
H58   H     H_    0.241941 0.534042 0.153111 0.255897
H59   H     H_    0.197783 0.588379 0.073456 0.260552
H60   H     H_    0.317517 0.628666 0.088848 0.235191
H61   H     H_    0.302366 0.585614 0.987599 0.253452
H62   H     H_    0.354988 0.467290 0.041796 0.204030
H63   H     H_    0.368350 0.510391 0.143408 0.210287
H64   H     H_    0.416355 0.291723 0.226407 0.247357
H65   H     H_    0.428925 0.224510 0.142414 0.264481
H66   H     H_    0.486208 0.224585 0.233122 0.239536
H67   H     H_    0.541200 0.280431 0.111126 0.233686
H68   H     H_    0.567422 0.837313 0.588394 0.178218
H69   H     H_    0.528980 0.346236 0.195747 0.227696
H70   H     H_    0.419078 0.390699 0.122453 0.205977
H71   H     H_    0.436202 0.328406 0.037549 0.220393
H72   H     H_    0.664784 0.653283 0.068286 0.246420
H73   H     H_    0.700460 0.700802 0.981147 0.258025
H74   H     H_    0.653391 0.751444 0.060131 0.243798
H75   H     H_    0.585112 0.738582 0.929046 0.232693
H76   H     H_    0.543915 0.695535 0.012128 0.223463
H77   H     H_    0.636149 0.619090 0.879443 0.192185
H78   H     H_    0.551565 0.630507 0.864847 0.205416
H79   H     H_    0.577554 0.163270 0.582606 0.172492
H80   H     H_    0.757092 0.409037 0.990175 0.254839
H81   H     H_    0.769685 0.443957 0.885533 0.270824
H82   H     H_    0.817944 0.480326 0.974240 0.252467
H83   H     H_    0.726402 0.567708 0.933075 0.236701
H84   H     H_    0.711769 0.532354 0.035465 0.222188
H85   H     H_    0.635391 0.436530 0.966227 0.223939
H86   H     H_    0.642310 0.481204 0.867755 0.224054
H87   H     H_    0.606658 0.349494 0.344217 0.266142
H88   H     H_    0.650294 0.435357 0.328550 0.233499
H89   H     H_    0.654024 0.363254 0.250089 0.220928
H90   H     H_    0.411393 0.066635 0.557054 0.157577
H91   H     H_    0.763497 0.365520 0.333087 0.253427
H92   H     H_    0.719510 0.281609 0.346573 0.208907
H93   H     H_    0.753468 0.308034 0.483694 0.166960
H94   H     H_    0.669382 0.339181 0.482959 0.238872
H95   H     H_    0.600717 0.711902 0.367422 0.265243
H96   H     H_    0.679316 0.742590 0.322561 0.254608
H97   H     H_    0.619435 0.689816 0.259312 0.234738
H98   H     H_    0.719416 0.611350 0.304392 0.217433
H99   H     H_    0.641421 0.581078 0.348707 0.218142
H100  H     H_    0.675704 0.656207 0.485065 0.242180
I1    I     I_    0.134871 0.396420 0.656605 -0.393851
I2    I     I_    0.119358 0.574974 0.331802 -0.414861
I3    I     I_    0.601100 0.684511 0.653463 -0.379071
I4    I     I_    0.610320 0.316069 0.644292 -0.325002
I5    I     I_    0.549691 0.334845 0.885325 -0.408981
I6    I     I_    0.416007 0.658379 0.899188 -0.489716
I7    I     I_    0.913246 0.590867 0.654400 -0.347549
I8    I     I_    0.921476 0.395304 0.328432 -0.407202
N1    N     N_R   0.500020 0.683620 0.499990 -0.194543
N2    N     N_R   0.500020 0.316380 0.499990 -0.201612
O1    O     O_R   0.400180 0.561980 0.499960 -0.577796
O2    O     O_R   0.400180 0.438020 0.499960 -0.596659
O3    O     O_R   0.500000 0.561980 0.379420 -0.594027
O4    O     O_R   0.500000 0.438020 0.379420 -0.590164
O5    O     O_R   0.599810 0.561930 0.500000 -0.563852
O6    O     O_R   0.599810 0.438070 0.500000 -0.569289
O7    O     O_R   0.499990 0.561930 0.620540 -0.545142
O8    O     O_R   0.499990 0.438070 0.620540 -0.550131

loop_
_geom_bond_atom_site_label_1
_geom_bond_atom_site_label_2
_ccdc_geom_bond_type
C75   H72   S    
C59   H33   S    
C66   C68   S    
Cu1   Cu2   S    
C38   O7    A    
C27   C29   A    
C73   C74   S    
C62   H42   S    
C84   H98   S    
C24   C27   A    
Cu1   O1    S    
Cu2   O2    S    
C22   C57   S    
C6    I8    S    
C81   C82   S    
C53   H32   S    
C61   H45   S    
C53   C54   S    
C25   C28   A    
C51   H22   S    
C12   C23   S    
C40   C70   S    
C13   C18   A    
C75   H74   S    
C79   H82   S    
C36   C37   A    
C35   C37   A    
C16   C50   S    
C5    C11   A    
C7    O4    A    
C8    H24   S    
C74   H75   S    
C76   H85   S    
C55   H28   S    
C27   H68   S    
C33   C36   A    
C13   I1    S    
C70   H71   S    
C42   C46   S    
Cu2   N2    S    
C42   I6    S    
C14   C18   A    
C39   H5    S    
C41   I5    S    
C68   H61   S    
C61   H44   S    
C49   H10   S    
C78   C83   S    
C52   H19   S    
Cu1   O7    S    
C83   C84   S    
C45   C56   T    
C23   H7    S    
C16   C17   A    
C47   H17   S    
C22   C25   A    
C41   C46   S    
C29   I3    S    
C70   C71   S    
C34   C46   S    
C14   C16   A    
C80   H94   S    
C79   H80   S    
C9    C10   A    
C60   H48   S    
C28   H79   S    
C5    I7    S    
C65   H49   S    
C59   H34   S    
C52   H18   S    
C51   H21   S    
C12   C73   S    
C3    C86   A    
C69   H58   S    
C62   H41   S    
C1    O1    A    
C7    C56   S    
C57   H40   S    
Cu1   O5    S    
C39   C42   S    
C77   C79   S    
C85   H97   S    
C71   H69   S    
C19   N1    A    
C24   C35   S    
C72   H66   S    
C74   C75   S    
C20   N2    A    
C51   C52   S    
C36   H90   S    
C84   C85   S    
C2    H9    S    
C73   H77   S    
Cu2   O8    S    
C6    C11   A    
C15   C47   S    
C68   C69   S    
C72   H64   S    
C58   C59   S    
C48   H15   S    
Cu2   O6    S    
C23   C44   S    
C60   C61   S    
C70   H70   S    
C65   H51   S    
C31   C60   S    
C26   O6    A    
C4    C78   A    
C2    C78   A    
C6    C9    A    
C49   H11   S    
C4    C26   S    
C47   C48   S    
C77   H83   S    
C71   H67   S    
C38   C43   S    
C50   C51   S    
C80   H93   S    
C76   C77   S    
C60   H47   S    
C81   H91   S    
C85   H95   S    
C86   H8    S    
C65   H50   S    
C37   H2    S    
C12   C46   S    
C40   C41   S    
C30   N2    A    
C82   H88   S    
C58   H38   S    
C85   H96   S    
C30   I4    S    
C13   C15   A    
C69   H59   S    
C39   C66   S    
C31   C35   A    
C83   H100  S    
C21   C24   A    
C1    O2    A    
Cu1   N1    S    
C54   H30   S    
C44   C45   S    
C64   H52   S    
C59   H36   S    
C15   C17   A    
C54   C55   S    
C48   C49   S    
C67   C86   A    
C63   H55   S    
C72   H65   S    
C38   O8    A    
C19   C21   A    
C62   H43   S    
C31   C32   A    
C67   C80   S    
C81   H92   S    
C20   C22   A    
C80   C81   S    
C68   H60   S    
C57   H39   S    
C4    C67   A    
C69   H56   S    
C53   H31   S    
C28   C30   A    
C66   H62   S    
C39   C44   S    
C55   H26   S    
C32   C63   S    
C83   H3    S    
C1    C17   S    
C23   H6    S    
C48   H14   S    
C75   H73   S    
C42   H1    S    
C64   C65   S    
C50   H25   S    
C12   C76   S    
C2    C3    A    
C66   H63   S    
C7    O3    A    
C32   C33   A    
C49   H12   S    
C74   H76   S    
C79   H81   S    
C57   C58   S    
C47   H16   S    
C55   H27   S    
C10   C18   S    
C77   H84   S    
C21   C53   S    
C82   H89   S    
C76   H86   S    
C50   H23   S    
C9    H35   S    
C63   H54   S    
C41   H13   S    
C26   O5    A    
C19   H46   S    
C61   C62   S    
C73   H78   S    
C40   H4    S    
C3    C11   S    
C63   C64   S    
C14   I2    S    
C40   C44   S    
C29   N1    A    
C71   C72   S    
C82   H87   S    
C52   H20   S    
C58   H37   S    
C8    C10   A    
C64   H53   S    
C54   H29   S    
C5    C8    A    
C20   H57   S    
C84   H99   S    
Cu2   O4    S    
C34   C43   T    
Cu1   O3    S    
C25   C33   S    
