data_mof_unit_39176.cif
_audit_creation_date              2012-12-11T15:12:41-0500
_audit_creation_method            fapswitch 2.2
_symmetry_space_group_name_H-M    P1
_symmetry_Int_Tables_number       1
_space_group_crystal_system       triclinic
_cell_length_a                    22.322648
_cell_length_b                    6.937051
_cell_length_c                    19.381866
_cell_angle_alpha                 89.997732
_cell_angle_beta                  99.360626
_cell_angle_gamma                 90.00012
_cell_volume                      2961.38139852

loop_
_atom_site_label
_atom_site_type_symbol
_atom_type_description
_atom_site_fract_x
_atom_site_fract_y
_atom_site_fract_z
_atom_type_partial_charge
O1    O     O_R   0.448420 0.506120 0.415750 -0.536530
O2    O     O_R   0.551580 0.006120 0.584250 -0.536530
O3    O     O_R   0.436490 0.174470 0.555610 -0.536028
O4    O     O_R   0.563510 0.674470 0.444390 -0.536022
C1    C     C_R   0.421200 0.344601 0.575870 0.719283
C2    C     C_R   0.578803 0.844607 0.424133 0.719284
O5    O     O_R   0.441310 0.176330 0.414520 -0.537354
O6    O     O_R   0.558690 0.676330 0.585480 -0.537358
O7    O     O_R   0.556430 0.007110 0.442150 -0.532117
O8    O     O_R   0.443570 0.507110 0.557850 -0.532108
C3    C     C_R   0.426746 0.344859 0.388276 0.695767
C4    C     C_R   0.573254 0.844851 0.611724 0.695766
O9    O     O_3   0.537770 0.339560 0.509230 -0.367072
O10   O     O_3   0.462230 0.839560 0.490770 -0.367068
V1    V     V_3+5 0.492990 0.064280 0.498290 1.466959
V2    V     V_3+5 0.507010 0.564280 0.501710 1.466968
C5    C     C_R   0.869403 0.947528 0.692793 -0.085259
C6    C     C_R   0.130590 0.447377 0.307206 -0.085303
H1    H     H_    0.781949 0.954079 0.578334 0.154916
H2    H     H_    0.218046 0.453990 0.421664 0.155057
C7    C     C_R   0.885728 0.939515 0.820041 -0.100155
C8    C     C_R   0.114270 0.439483 0.179958 -0.100154
C9    C     C_R   0.590301 0.803078 0.740622 -0.066806
C10   C     C_R   0.409706 0.303213 0.259374 -0.066825
C11   C     C_R   0.628691 0.771430 0.803634 -0.163417
C12   C     C_R   0.371320 0.271611 0.196356 -0.163343
C13   C     C_R   0.691681 0.788062 0.809022 -0.046320
C14   C     C_R   0.308329 0.288209 0.190968 -0.046326
C15   C     C_R   0.718114 0.856284 0.751093 0.036565
C16   C     C_R   0.281890 0.356351 0.248902 0.036538
C17   C     C_R   0.678514 0.875419 0.685180 0.059520
C18   C     C_R   0.321487 0.375440 0.314819 0.059523
C19   C     C_R   0.782137 0.896298 0.754412 0.070960
C20   C     C_R   0.217865 0.396321 0.245585 0.070974
C21   C     C_R   0.805920 0.923321 0.691158 0.083274
C22   C     C_R   0.194078 0.423264 0.308840 0.083262
C23   C     C_R   0.765768 0.930144 0.627333 -0.172322
C24   C     C_R   0.234228 0.430086 0.372665 -0.172360
C25   C     C_R   0.703601 0.912733 0.624715 -0.176204
C26   C     C_R   0.296397 0.412705 0.375284 -0.176198
C27   C     C_R   0.822965 0.919343 0.818212 -0.205044
C28   C     C_R   0.177036 0.419399 0.181785 -0.205072
C29   C     C_R   0.909132 0.951863 0.757223 -0.097632
C30   C     C_R   0.090861 0.451690 0.242776 -0.097604
C31   C     C_R   0.614591 0.848790 0.680165 -0.135518
C32   C     C_R   0.385410 0.348830 0.319835 -0.135525
H3    H     H_    0.609284 0.722882 0.848499 0.144049
H4    H     H_    0.390730 0.223127 0.151486 0.144081
H5    H     H_    0.675278 0.924810 0.573955 0.107010
H6    H     H_    0.324719 0.424767 0.426046 0.107019
C33   C     C_3   0.809627 0.752951 0.262584 -0.346823
C34   C     C_3   0.190233 0.253590 0.737227 -0.346567
C35   C     C_3   0.783990 0.108288 0.246714 -0.169257
C36   C     C_3   0.216238 0.608516 0.753545 -0.169132
C37   C     C_3   0.735333 0.086888 0.295771 -0.380060
C38   C     C_3   0.264840 0.587029 0.704424 -0.380066
H7    H     H_    0.768692 0.222802 0.207625 0.120476
H8    H     H_    0.231698 0.722506 0.792787 0.120644
H9    H     H_    0.698166 0.192470 0.279459 0.170854
H10   H     H_    0.302095 0.692268 0.720783 0.171214
C39   C     C_1   0.624420 0.854277 0.378697 -0.143856
C40   C     C_1   0.375589 0.354258 0.621314 -0.143807
C41   C     C_3   0.791152 0.914383 0.207348 0.143922
C42   C     C_3   0.208859 0.414369 0.792669 0.143722
C43   C     C_3   0.761879 0.732453 0.312842 -0.170798
C44   C     C_3   0.238020 0.232919 0.687024 -0.170811
C45   C     C_3   0.708548 0.879142 0.292475 0.152799
C46   C     C_3   0.291465 0.379106 0.707541 0.152595
C47   C     C_3   0.678954 0.841825 0.214688 -0.199403
C48   C     C_3   0.321008 0.341131 0.785301 -0.199311
C49   C     C_3   0.727893 0.856503 0.165019 -0.210047
C50   C     C_3   0.272047 0.355559 0.834947 -0.210109
C51   C     C_1   0.662232 0.864444 0.340196 -0.044178
C52   C     C_1   0.337782 0.364411 0.659819 -0.044070
C53   C     C_1   0.837801 0.929608 0.160066 -0.041541
C54   C     C_1   0.162205 0.429610 0.839944 -0.041442
C55   C     C_1   0.875653 0.940069 0.121626 -0.132018
C56   C     C_1   0.124350 0.440076 0.878380 -0.131988
O11   O     O_R   0.056480 0.288780 0.942210 -0.532981
O12   O     O_R   0.943520 0.788780 0.057790 -0.532987
O13   O     O_R   0.058700 0.616820 0.085490 -0.539780
O14   O     O_R   0.941300 0.116820 0.914510 -0.539779
C57   C     C_R   0.073262 0.448321 0.111756 0.711079
C58   C     C_R   0.926737 0.948328 0.888243 0.711067
O15   O     O_R   0.063520 0.618570 0.944410 -0.537151
O16   O     O_R   0.936480 0.118570 0.055590 -0.537136
O17   O     O_R   0.948420 0.787670 0.915740 -0.534948
O18   O     O_R   0.051580 0.287670 0.084260 -0.534955
C59   C     C_R   0.078812 0.449860 0.923916 0.729462
C60   C     C_R   0.921189 0.949856 0.076085 0.729459
O19   O     O_3   0.962260 0.453430 0.990800 -0.366284
O20   O     O_3   0.037740 0.953430 0.009200 -0.366294
V3    V     V_3+5 0.007000 0.728750 0.001710 1.491030
V4    V     V_3+5 0.993000 0.228750 0.998290 1.491061
C61   C     C_1   0.974001 0.975761 0.759218 0.312331
N1    N     N_1   0.025723 0.995264 0.761010 -0.330996
C62   C     C_1   0.025984 0.475380 0.240782 0.312361
N2    N     N_1   0.974256 0.494706 0.238995 -0.331232
H11   H     H_    0.855829 0.782877 0.292009 0.185681
H12   H     H_    0.144093 0.284301 0.707779 0.185713
C63   C     C_1   0.842203 0.175510 0.286868 0.317934
N3    N     N_1   0.887745 0.228113 0.318448 -0.282643
C64   C     C_1   0.158096 0.676708 0.713512 0.317308
N4    N     N_1   0.112611 0.730092 0.682025 -0.282865
H13   H     H_    0.754415 0.123911 0.350898 0.162565
H14   H     H_    0.245751 0.624436 0.649333 0.162554
H15   H     H_    0.733353 0.714282 0.139977 0.131505
H16   H     H_    0.266436 0.213090 0.859741 0.131344
C65   C     C_1   0.707581 0.992147 0.107059 0.324890
N5    N     N_1   0.691723 0.098344 0.061709 -0.316102
C66   C     C_1   0.292450 0.490345 0.893146 0.325033
N6    N     N_1   0.308379 0.595866 0.938686 -0.316202
C67   C     C_1   0.647923 0.652967 0.205870 0.302418
N7    N     N_1   0.623749 0.505033 0.198880 -0.316467
C68   C     C_1   0.351971 0.152155 0.793955 0.302262
N8    N     N_1   0.376097 0.004130 0.800819 -0.316827
H17   H     H_    0.813235 0.612986 0.235432 0.149974
H18   H     H_    0.186415 0.113475 0.764206 0.150256
H19   H     H_    0.743303 0.583367 0.308002 0.111679
H20   H     H_    0.256479 0.083686 0.691800 0.111753
H21   H     H_    0.642911 0.952545 0.200179 0.147807
H22   H     H_    0.357090 0.451649 0.799939 0.147786
C69   C     C_1   0.894391 0.968075 0.628501 0.331725
N9    N     N_1   0.914374 0.984488 0.577328 -0.264753
C70   C     C_1   0.105598 0.467840 0.371497 0.331814
N10   N     N_1   0.085609 0.484194 0.422668 -0.264661
H23   H     H_    0.807070 0.932081 0.867531 0.126910
H24   H     H_    0.192930 0.432214 0.132469 0.126935
C71   C     C_1   0.525815 0.773628 0.738064 0.310664
N11   N     N_1   0.474234 0.749591 0.735849 -0.330623
C72   C     C_1   0.474195 0.273840 0.261929 0.310705
N12   N     N_1   0.525780 0.249869 0.264143 -0.330716
C73   C     C_1   0.726249 0.704459 0.871387 0.300206
N13   N     N_1   0.753491 0.636343 0.921394 -0.345331
C74   C     C_1   0.273764 0.204654 0.128594 0.300363
N14   N     N_1   0.246524 0.136575 0.078581 -0.345361
C75   C     C_1   0.791274 0.754575 0.386416 0.339595
N15   N     N_1   0.814263 0.771859 0.444052 -0.319944
C76   C     C_1   0.208705 0.255549 0.613443 0.339796
N16   N     N_1   0.185779 0.273238 0.555801 -0.320149

loop_
_geom_bond_atom_site_label_1
_geom_bond_atom_site_label_2
_ccdc_geom_bond_type
C44   C46   S    
C63   N3    T    
C9    C31   A    
C37   H9    S    
C13   C15   A    
C14   C74   S    
C27   H23   S    
C66   N6    T    
O1    C3    A    
C58   O17   A    
O2    C4    A    
C2    O7    A    
C62   N2    T    
C34   C44   S    
C74   N14   T    
O5    C3    A    
C47   C67   S    
C70   N10   T    
C36   C42   S    
C37   H13   S    
O14   V4    S    
C2    C39   S    
C21   C23   A    
C10   C12   A    
C67   N7    T    
C49   H15   S    
C6    C70   S    
C46   C52   S    
C68   N8    T    
C15   C19   A    
O13   V3    S    
C9    C71   S    
C33   C43   S    
C47   C49   S    
O16   V4    S    
C19   C21   A    
C7    C29   A    
O15   V3    S    
C5    C69   S    
C8    C30   A    
C44   C76   S    
C50   H16   S    
C35   C63   S    
C43   C45   S    
C20   C28   A    
C29   C61   S    
C45   C51   S    
C16   C18   A    
H1    C23   S    
C11   H3    S    
C12   H4    S    
C43   C75   S    
C42   C54   S    
O5    V1    S    
C57   O18   A    
C50   C66   S    
O6    V2    S    
C44   H20   S    
O13   C57   A    
O18   V4    S    
C35   C37   S    
C56   C59   S    
C33   H11   S    
C36   C38   S    
C55   C60   S    
C16   C20   A    
C13   C73   S    
C36   C64   S    
C69   N9    T    
C33   C41   S    
O11   V4    S    
O4    C2    A    
O16   C60   A    
C35   H7    S    
C39   C51   T    
C38   C46   S    
C34   H12   S    
C38   H10   S    
C45   C47   S    
O4    V2    S    
C5    C29   A    
C6    C30   A    
O19   V3    S    
H2    C24   S    
C30   C62   S    
C48   H22   S    
C7    C58   S    
C47   H21   S    
O17   V3    S    
O6    C4    A    
O20   V4    S    
C43   H19   S    
O1    V2    S    
O2    V1    S    
C53   C55   T    
C38   H14   S    
C7    C27   A    
C46   C48   S    
C25   H5    S    
C41   C49   S    
O14   C58   A    
O9    V1    S    
C34   C42   S    
C73   N13   T    
O10   V2    S    
C72   N12   T    
C64   N4    T    
C18   C26   A    
O3    V1    S    
C71   N11   T    
C36   H8    S    
O15   C59   A    
C18   C32   A    
C54   C56   T    
C4    C31   S    
O3    C1    A    
C37   C45   S    
C76   N16   T    
C28   H24   S    
C48   C68   S    
C11   C13   A    
C75   N15   T    
C12   C14   A    
C19   C27   A    
C8    C57   S    
C22   C24   A    
O7    V1    S    
C10   C32   A    
C1    O8    A    
C15   C17   A    
O8    V2    S    
C65   N5    T    
O19   V4    S    
C24   C26   A    
C35   C41   S    
C10   C72   S    
C8    C28   A    
C41   C53   S    
C26   H6    S    
C49   C65   S    
C14   C16   A    
O20   V3    S    
C33   H17   S    
C17   C25   A    
C1    C40   S    
C20   C22   A    
C42   C50   S    
O12   C60   A    
O11   C59   A    
C9    C11   A    
C23   C25   A    
C17   C31   A    
O9    V2    S    
C61   N1    T    
O10   V1    S    
C40   C52   T    
C3    C32   S    
C48   C50   S    
C5    C21   A    
O12   V3    S    
C6    C22   A    
C34   H18   S    
