data_mof_unit_54750.cif
_audit_creation_date              2012-12-10T18:01:16-0500
_audit_creation_method            fapswitch 2.2
_symmetry_space_group_name_H-M    P1
_symmetry_Int_Tables_number       1
_space_group_crystal_system       triclinic
_cell_length_a                    9.509509
_cell_length_b                    10.828255
_cell_length_c                    17.325316
_cell_angle_alpha                 90.354798
_cell_angle_beta                  85.541063
_cell_angle_gamma                 90.066414
_cell_volume                      1778.57767649

loop_
_atom_site_label
_atom_site_type_symbol
_atom_type_description
_atom_site_fract_x
_atom_site_fract_y
_atom_site_fract_z
_atom_type_partial_charge
C1    C     C_R   0.500077 0.737946 0.500075 0.773093
C2    C     C_R   0.499923 0.262054 0.499925 0.773085
C3    C     C_R   0.626290 0.936368 0.506781 -0.185558
C4    C     C_R   0.373710 0.063632 0.493220 -0.185559
C5    C     C_R   0.626199 0.064117 0.506818 -0.196252
C6    C     C_R   0.373800 0.935883 0.493184 -0.196252
C7    C     C_R   0.499916 0.128223 0.500008 -0.016931
C8    C     C_R   0.500084 0.871777 0.499993 -0.016935
C9    C     C_R   0.918474 0.572190 0.551059 -0.010953
C10   C     C_R   0.081526 0.427810 0.448941 -0.010963
C11   C     C_R   0.067374 0.572151 0.551042 -0.030357
C12   C     C_R   0.932626 0.427849 0.448958 -0.030352
C13   C     C_R   0.481135 0.496438 0.649906 0.828100
C14   C     C_R   0.518865 0.503557 0.350094 0.828110
C15   C     C_R   0.469236 0.487447 0.734315 -0.096809
C16   C     C_R   0.530764 0.512542 0.265686 -0.096789
C17   C     C_R   0.576029 0.430827 0.773891 0.244175
C18   C     C_R   0.424003 0.569210 0.226111 0.244176
C19   C     C_R   0.565267 0.431779 0.854529 -0.287929
C20   C     C_R   0.434756 0.568253 0.145474 -0.287928
C21   C     C_R   0.449269 0.486796 0.896264 0.119673
C22   C     C_R   0.550722 0.513188 0.103738 0.119651
C23   C     C_R   0.339128 0.537442 0.856880 0.291438
C24   C     C_R   0.660832 0.462486 0.143120 0.291454
C25   C     C_R   0.349846 0.536848 0.776029 -0.330678
C26   C     C_R   0.650120 0.463083 0.223971 -0.330680
C27   C     C_2   0.442326 0.489502 0.981066 -0.212278
C28   C     C_2   0.557666 0.510494 0.018937 -0.212263
Cu1   Cu    Cu3+1 0.359340 0.499980 0.500000 0.947863
Cu2   Cu    Cu3+1 0.640660 0.500020 0.500000 0.947859
H1    H     H_    0.733211 0.420884 0.254180 0.159025
H2    H     H_    0.266729 0.579003 0.745820 0.159046
H3    H     H_    0.660047 0.521869 0.987365 0.180200
H4    H     H_    0.339948 0.478128 0.012641 0.180215
H5    H     H_    0.353327 0.613138 0.115399 0.147902
H6    H     H_    0.646722 0.386927 0.884602 0.147909
H7    H     H_    0.724906 0.888463 0.512328 0.147018
H8    H     H_    0.275094 0.111537 0.487673 0.147016
H9    H     H_    0.724756 0.112408 0.512412 0.149002
H10   H     H_    0.275244 0.887592 0.487590 0.149002
H11   H     H_    0.856653 0.630174 0.591851 0.118826
H12   H     H_    0.143347 0.369825 0.408149 0.118821
H13   H     H_    0.117912 0.630057 0.591833 0.114485
H14   H     H_    0.882088 0.369942 0.408167 0.114485
N1    N     N_R   0.147930 0.499970 0.499980 -0.155277
N2    N     N_R   0.852070 0.500030 0.500020 -0.155277
O1    O     O_R   0.381260 0.680340 0.500000 -0.586363
O2    O     O_R   0.618740 0.319660 0.500000 -0.586380
O3    O     O_R   0.618830 0.680370 0.500010 -0.591249
O4    O     O_R   0.381170 0.319630 0.499990 -0.591249
O5    O     O_R   0.367440 0.500000 0.613600 -0.594835
O6    O     O_R   0.632560 0.500000 0.386400 -0.594830
O7    O     O_R   0.605010 0.500030 0.613600 -0.550461
O8    O     O_R   0.394990 0.499970 0.386400 -0.550469
N3    N     N_2   0.693445 0.371417 0.733254 -0.410360
H15   H     H_    0.784496 0.373967 0.761975 0.241292
C29   C     C_3   0.663687 0.248633 0.705325 -0.646061
H16   H     H_    0.757242 0.212873 0.669800 0.220402
H17   H     H_    0.573132 0.250043 0.668554 0.222501
H18   H     H_    0.639327 0.185437 0.754890 0.209047
N4    N     N_2   0.306636 0.628686 0.266751 -0.410367
H19   H     H_    0.215583 0.626198 0.238031 0.241305
C30   C     C_3   0.336494 0.751447 0.294682 -0.646075
H20   H     H_    0.242970 0.787261 0.330209 0.220405
H21   H     H_    0.360903 0.814635 0.245117 0.209054
H22   H     H_    0.427051 0.749977 0.331451 0.222485
N5    N     N_2   0.218709 0.591066 0.898106 -0.441395
H23   H     H_    0.127366 0.581969 0.870076 0.248673
C31   C     C_3   0.239640 0.716580 0.923977 -0.713129
H24   H     H_    0.260405 0.778430 0.873388 0.225171
H25   H     H_    0.329358 0.721947 0.961242 0.242078
H26   H     H_    0.143263 0.749020 0.958437 0.226891
N6    N     N_2   0.781205 0.408794 0.101891 -0.441391
H27   H     H_    0.872555 0.417817 0.129922 0.248676
C32   C     C_3   0.760162 0.283306 0.076006 -0.713124
H28   H     H_    0.739405 0.221441 0.126588 0.225164
H29   H     H_    0.856485 0.250833 0.041510 0.226898
H30   H     H_    0.670397 0.278003 0.038769 0.242090

loop_
_geom_bond_atom_site_label_1
_geom_bond_atom_site_label_2
_ccdc_geom_bond_type
N3    H15   S    
C30   H21   S    
C10   H12   S    
C1    C8    S    
N6    H27   S    
C2    C7    S    
Cu1   O1    S    
Cu2   O2    S    
C19   C21   A    
C24   C26   A    
C19   H6    S    
C24   N6    S    
C29   H17   S    
Cu1   O8    S    
N4    C30   S    
C23   N5    S    
C31   H25   S    
C2    O4    A    
C13   O5    A    
C20   H5    S    
C14   O6    A    
C11   H13   S    
C17   N3    S    
C18   C20   A    
C25   H2    S    
C21   C27   S    
C30   H22   S    
C26   H1    S    
C27   H4    S    
C22   C28   S    
N6    C32   S    
C31   H24   S    
C4    C7    A    
C13   O7    A    
Cu1   O4    S    
C21   C23   A    
C16   C26   A    
Cu2   O7    S    
N5    H23   S    
C6    H10   S    
C4    C6    A    
C3    C8    A    
C5    C7    A    
C1    O1    A    
C29   H18   S    
C6    C8    A    
C2    O2    A    
Cu1   N1    S    
N5    C31   S    
C31   H26   S    
C32   H28   S    
Cu1   Cu2   S    
C32   H29   S    
C10   N1    A    
C9    C11   A    
C10   C12   A    
C12   N2    A    
C14   O8    A    
Cu2   O3    S    
C20   C22   A    
C28   H3    S    
C13   C15   S    
C14   C16   S    
C11   N1    A    
Cu1   O5    S    
C15   C17   A    
C5    H9    S    
Cu2   O6    S    
Cu2   N2    S    
C4    H8    S    
C3    C5    A    
C18   N4    S    
C9    H11   S    
N3    C29   S    
C12   H14   S    
C29   H16   S    
C17   C19   A    
C22   C24   A    
C23   C25   A    
N4    H19   S    
C32   H30   S    
C15   C25   A    
C30   H20   S    
C9    N2    A    
C3    H7    S    
C16   C18   A    
C27   C28   D    
C1    O3    A    
