data_mof_unit_27486.cif
_audit_creation_date              2013-03-05T16:21:41-0500
_audit_creation_method            fapswitch 2.2
_symmetry_space_group_name_H-M    P1
_symmetry_Int_Tables_number       1
_space_group_crystal_system       triclinic
_cell_length_a                    8.304802
_cell_length_b                    18.937739
_cell_length_c                    18.722035
_cell_angle_alpha                 103.895441
_cell_angle_beta                  90.897131
_cell_angle_gamma                 92.197821
_cell_volume                      2855.28240743

loop_
_atom_site_label
_atom_site_type_symbol
_atom_site_description
_atom_site_fract_x
_atom_site_fract_y
_atom_site_fract_z
_atom_type_partial_charge
P1    P     P_3+3 0.058010 0.429760 0.330690 0.472447
O1    O     O_2   0.885040 0.450540 0.321170 -0.367587
O2    O     O_3   0.133000 0.456200 0.410860 -0.396831
O3    O     O_3   0.639000 0.584840 0.375630 -0.374270
O4    O     O_2   0.759721 0.528483 0.245695 -0.396000
O5    O     O_3   0.045537 0.334481 0.305184 -0.550224
O6    O     O_3   0.674095 0.661718 0.266796 -0.501148
H1    H     H_    0.500726 0.701572 0.345085 0.054169
C1    C     C_3   0.615149 0.787223 0.305349 -0.864689
H2    H     H_    0.709658 0.798416 0.349754 0.280355
H3    H     H_    0.667651 0.796854 0.254142 0.257344
P2    P     P_3+3 0.631910 0.669560 0.569730 0.502914
P3    P     P_3+3 0.069512 0.717497 0.420466 0.489298
O7    O     O_2   0.804950 0.679010 0.548920 -0.308619
O8    O     O_3   0.051170 0.624120 0.414780 -0.392479
O9    O     O_2   0.929894 0.753774 0.467454 -0.318332
O10   O     O_3   0.645113 0.687975 0.665942 -0.584528
O11   O     O_3   0.028608 0.730902 0.332819 -0.534050
C2    C     C_3   0.088152 0.672739 0.279937 0.531827
H4    H     H_    0.010780 0.622745 0.275921 0.149494
H5    H     H_    0.213955 0.661774 0.293520 -0.061427
C3    C     C_3   0.084966 0.691848 0.205571 -0.975348
H6    H     H_    0.959507 0.701321 0.189915 0.283429
H7    H     H_    0.161605 0.741816 0.208192 0.255422
C4    C     C_3   0.078514 0.713184 0.707289 0.281204
H8    H     H_    0.955634 0.692722 0.688435 0.111827
C5    C     C_3   0.092332 0.734845 0.792081 -0.882139
H9    H     H_    0.049306 0.688212 0.813821 0.216786
H10   H     H_    0.220958 0.747189 0.809634 0.205022
Ba1   Ba    Ba6+2 0.844980 0.532260 0.467660 1.601361
C6    C     C_3   0.004125 0.306659 0.365460 0.251818
H11   H     H_    0.882328 0.323364 0.382938 0.088245
H12   H     H_    0.091379 0.326284 0.412134 0.112098
C7    C     C_3   0.007334 0.223588 0.342797 -0.123495
H13   H     H_    0.991864 0.201323 0.392054 0.085481
H14   H     H_    0.126489 0.207102 0.319702 0.127130
C8    C     C_3   0.665065 0.624057 0.689446 0.477880
H15   H     H_    0.782400 0.602002 0.671905 0.009699
H16   H     H_    0.571468 0.581795 0.666534 0.169977
C9    C     C_3   0.654408 0.641852 0.772699 -1.033608
H17   H     H_    0.761382 0.675348 0.798261 0.280027
H18   H     H_    0.648464 0.591451 0.792674 0.226561
H19   H     H_    0.544367 0.672386 0.789857 0.271566
P4    P     P_3+3 0.131690 0.570300 0.669320 0.543960
O12   O     O_2   0.304650 0.549490 0.678880 -0.329583
O13   O     O_3   0.056690 0.543860 0.589150 -0.322827
O14   O     O_3   0.550690 0.415220 0.624380 -0.404375
O15   O     O_3   0.193386 0.662212 0.679720 -0.529638
P5    P     P_3+3 0.112151 0.281423 0.578832 0.416591
O16   O     O_3   0.632900 0.410750 0.456460 -0.398245
O17   O     O_3   0.138520 0.375940 0.585230 -0.322909
O18   O     O_2   0.230280 0.245795 0.519392 -0.418188
O19   O     O_3   0.188600 0.253445 0.656063 -0.614332
Ba2   Ba    Ba6+2 0.344840 0.467800 0.532350 1.588168
P6    P     P_3+3 0.621327 0.575830 0.280832 0.437032
C10   C     C_3   0.549809 0.708941 0.292248 0.382373
H20   H     H_    0.451983 0.699977 0.249551 0.057591
H21   H     H_    0.516183 0.825038 0.322186 0.210991
O20   O     O_3   0.556800 0.589310 0.543550 -0.419987
C11   C     C_3   0.500067 0.348401 0.302818 0.437503
H22   H     H_    0.377957 0.362198 0.323576 0.084772
H23   H     H_    0.583074 0.397390 0.317960 0.115051
C12   C     C_3   0.488823 0.323808 0.219333 -0.936886
H24   H     H_    0.401643 0.276525 0.202343 0.276550
H25   H     H_    0.447620 0.368744 0.195870 0.205767
H26   H     H_    0.608974 0.307789 0.197340 0.275724
P7    P     P_3+3 0.565483 0.319176 0.426986 0.433889
O21   O     O_2   0.384750 0.321010 0.451130 -0.386544
O22   O     O_3   0.558701 0.291699 0.330793 -0.532228
H27   H     H_    0.131576 0.646726 0.162857 0.220831
C13   C     C_3   0.115556 0.278842 0.725223 0.718225
C14   C     C_3   0.152672 0.223235 0.770979 -0.823647
H28   H     H_    0.284364 0.221116 0.779854 0.250254
H29   H     H_    0.097363 0.238228 0.825992 0.254015
H30   H     H_    0.105726 0.167921 0.741701 0.226294
P8    P     P_3+3 0.579573 0.420163 0.718074 0.477655
C15   C     C_3   0.547203 0.281161 0.664211 0.601698
H31   H     H_    0.663969 0.288449 0.639320 -0.011280
O23   O     O_2   0.448889 0.469691 0.758044 -0.322682
O24   O     O_3   0.530967 0.333199 0.731550 -0.497084
H32   H     H_    0.454736 0.287436 0.623396 0.154216
H33   H     H_    0.632849 0.171073 0.647409 0.231983
C16   C     C_3   0.534081 0.203673 0.675567 -0.911332
H34   H     H_    0.419063 0.175300 0.652172 0.245574
H35   H     H_    0.543454 0.204022 0.734833 0.295262
C17   C     C_R   0.004939 0.465921 0.046078 0.018400
C18   C     C_R   0.914537 0.429484 0.090445 0.111313
C19   C     C_R   0.763451 0.396692 0.064597 -0.164046
C20   C     C_R   0.703099 0.399340 0.995195 -0.155790
C21   C     C_R   0.793405 0.434131 0.949803 0.106791
C22   C     C_R   0.944523 0.467991 0.975329 0.020538
C23   C     C_R   0.735923 0.434032 0.878895 -0.177704
C24   C     C_R   0.828290 0.466217 0.831559 -0.028482
C25   C     C_R   0.977339 0.503445 0.858291 0.053087
C26   C     C_R   0.035269 0.503497 0.930139 0.006110
C27   C     C_R   0.778644 0.460527 0.757580 0.137556
C28   C     C_R   0.878241 0.490066 0.711924 -0.433930
C29   C     C_R   0.017695 0.532904 0.738631 0.213446
C30   C     C_R   0.070142 0.539292 0.812913 0.016282
C31   C     C_R   0.156202 0.499330 0.071961 -0.017135
C32   C     C_R   0.215102 0.498655 0.143521 -0.000784
C33   C     C_R   0.120521 0.464382 0.189529 -0.055138
C34   C     C_R   0.974904 0.426880 0.160225 -0.113400
H36   H     H_    0.691395 0.369138 0.098203 0.138111
H37   H     H_    0.586212 0.373425 0.976688 0.155650
H38   H     H_    0.842388 0.481776 0.654587 0.151496
H39   H     H_    0.620374 0.406980 0.860689 0.206594
H40   H     H_    0.905222 0.396000 0.191383 0.174942
C35   C     C_R   0.216388 0.576286 0.841927 -0.174880
C36   C     C_R   0.276202 0.574037 0.911952 0.147881
C37   C     C_R   0.186003 0.537365 0.956217 0.036763
C38   C     C_R   0.247059 0.534699 0.026707 0.016381
C39   C     C_R   0.426766 0.607181 0.938132 -0.182720
C40   C     C_R   0.488501 0.603256 0.006882 -0.182223
C41   C     C_R   0.399253 0.567556 0.051794 0.130843
C42   C     C_R   0.367847 0.532757 0.168900 -0.019031
C43   C     C_R   0.459498 0.565291 0.121609 -0.257300
C44   C     C_R   0.423203 0.533911 0.241127 0.159561
C45   C     C_R   0.325816 0.502448 0.286569 -0.537304
C46   C     C_R   0.174675 0.469088 0.263222 0.252757
H41   H     H_    0.287177 0.605885 0.809963 0.155355
H42   H     H_    0.497506 0.636082 0.905425 0.147005
H43   H     H_    0.605654 0.628933 0.025284 0.141891
H44   H     H_    0.577525 0.590131 0.138757 0.178900
H45   H     H_    0.371763 0.500981 0.340335 0.166045
C47   C     C_R   0.681110 0.953828 0.537066 -0.015889
C48   C     C_R   0.745795 0.915945 0.586391 -0.135435
C49   C     C_R   0.901600 0.049249 0.561484 -0.194666
C50   C     C_R   0.747087 0.022927 0.532165 0.065191
C51   C     C_R   0.958703 0.119555 0.562426 -0.155277
C52   C     C_R   0.864046 0.166959 0.534494 0.001724
C53   C     C_R   0.714715 0.139527 0.498577 0.003664
C54   C     C_R   0.657099 0.067065 0.496368 0.042354
C55   C     C_R   0.913321 0.240846 0.540927 0.149977
C56   C     C_R   0.814206 0.285579 0.512233 -0.530602
C57   C     C_R   0.673607 0.257855 0.472061 0.217825
C58   C     C_R   0.622826 0.184534 0.464737 -0.010101
C59   C     C_R   0.534895 0.925885 0.499037 0.035008
C60   C     C_R   0.474153 0.854761 0.500592 0.036358
C61   C     C_R   0.556680 0.812870 0.542285 -0.128293
C62   C     C_R   0.673907 0.850220 0.594515 0.004869
H46   H     H_    0.851797 0.342039 0.517702 0.174898
H47   H     H_    0.077689 0.135903 0.585771 0.178854
C63   C     C_R   0.483291 0.154847 0.424046 0.004958
C64   C     C_R   0.427552 0.084430 0.421324 -0.190808
C65   C     C_R   0.508587 0.039884 0.459500 0.043028
C66   C     C_R   0.446940 0.969119 0.461065 0.061336
C67   C     C_R   0.295645 0.941292 0.428912 -0.208065
C68   C     C_R   0.326110 0.827318 0.463811 0.016784
C69   C     C_R   0.237032 0.872330 0.430432 -0.159293
C70   C     C_R   0.270475 0.755834 0.461797 0.115000
C71   C     C_R   0.370677 0.710796 0.490710 -0.467417
C72   C     C_R   0.511738 0.737284 0.532377 0.165345
H48   H     H_    0.413783 0.185531 0.393763 0.155258
H49   H     H_    0.120202 0.855265 0.404758 0.186874
H50   H     H_    0.982621 0.015658 0.582963 0.139256
H51   H     H_    0.837534 0.942071 0.626603 0.162773
H52   H     H_    0.319917 0.066819 0.388118 0.128014
H53   H     H_    0.216546 0.971679 0.402757 0.142708
C73   C     C_2   0.997935 0.800223 0.826047 0.701505
H54   H     H_    0.026129 0.852231 0.813331 0.046802
O25   O     O_2   0.892463 0.796095 0.869749 -0.562210
N1    N     N_R   0.880144 0.193077 0.288147 0.286321
O26   O     O_R   0.883121 0.206284 0.223106 -0.332730
O27   O     O_R   0.769992 0.147969 0.302201 -0.378773
N2    N     N_R   0.187400 0.350200 0.761616 0.237372
O28   O     O_R   0.176647 0.402799 0.728916 -0.371126
O29   O     O_R   0.246784 0.364291 0.828622 -0.405048
C74   C     C_2   0.936202 0.286114 0.720424 0.406132
H55   H     H_    0.891341 0.326132 0.693572 -0.015540
O30   O     O_2   0.842647 0.252047 0.750592 -0.591188
C75   C     C_2   0.680304 0.836703 0.668990 0.609397
H56   H     H_    0.576758 0.810843 0.688357 0.025230
O31   O     O_2   0.793714 0.859469 0.711559 -0.603786
C76   C     C_2   0.322053 0.635066 0.480638 0.836842
H57   H     H_    0.354925 0.595520 0.432152 -0.075696
O32   O     O_2   0.242181 0.616759 0.527239 -0.486281
C77   C     C_2   0.120507 0.777610 0.676114 0.621390
H58   H     H_    0.225919 0.812569 0.697161 -0.060797
O33   O     O_2   0.040971 0.789650 0.625363 -0.556663

loop_
_geom_bond_atom_site_label_1
_geom_bond_atom_site_label_2
_geom_bond_distance
_ccdc_geom_bond_type
C18   C19   1.403963 A    
C12   H25   1.109686 S    
C47   C48   1.410054 A    
C5    H10   1.112056 S    
C74   H55   1.079193 S    
C66   C67   1.411377 A    
P8    O23   1.544021 D    
O6    P6    1.749560 S    
P2    C72   1.907105 S    
P5    C55   1.850609 S    
C52   C55   1.418979 A    
C49   C50   1.412042 A    
H1    C10   1.112990 S    
C28   C29   1.401582 A    
C56   C57   1.393033 A    
C76   O32   1.211265 D    
C15   H31   1.100613 S    
C10   H20   1.109856 S    
Ba1   Ba2   4.596861 S    
C32   C33   1.425068 A    
P3    O11   1.749780 S    
C11   C12   1.520232 S    
C11   O22   1.402401 S    
C3    H7    1.110604 S    
C2    H5    1.110414 S    
C43   H44   1.080455 S    
C67   C69   1.383069 A    
O14   P8    1.746296 S    
C7    H13   1.109509 S    
C8    C9    1.518276 S    
C17   C22   1.418958 A    
C68   C70   1.405178 A    
O2    Ba2   2.814594 S    
Ba2   O21   2.864602 S    
C15   C16   1.532575 S    
C30   C35   1.411486 A    
C42   C43   1.410674 A    
C11   H23   1.111216 S    
P1    O1    1.522872 D    
C48   C62   1.401986 A    
C44   C45   1.400359 A    
P1    Ba1   3.389470 S    
C36   C37   1.409330 A    
C71   C76   1.441762 S    
P4    C29   1.873523 S    
C9    H19   1.110514 S    
C39   H42   1.080383 S    
C16   H34   1.107905 S    
C75   O31   1.220016 D    
C53   C54   1.426711 A    
P5    O17   1.769825 S    
C13   N2    1.459322 S    
P2    O10   1.751418 S    
C70   C71   1.405376 A    
C6    H12   1.109210 S    
C34   H40   1.079641 S    
C17   C31   1.409213 A    
C1    H2    1.110980 S    
C48   H51   1.079935 S    
C61   C72   1.432494 A    
C14   H28   1.107346 S    
C9    H18   1.105322 S    
O5    C6    1.397573 S    
Ba1   O16   2.808396 S    
C12   H26   1.110554 S    
Ba1   O20   2.912261 S    
N2    O29   1.303032 A    
C74   O30   1.220327 D    
C25   C26   1.421246 A    
O6    C10   1.404886 S    
O7    Ba1   2.864346 S    
C14   H30   1.111740 S    
O4    P6    1.541786 D    
C3    H27   1.107429 S    
C19   H36   1.082476 S    
P4    O13   1.573958 S    
C64   C65   1.411914 A    
Ba2   O20   2.807805 S    
C56   H46   1.082598 S    
C65   C66   1.423234 A    
P7    O21   1.573563 D    
C77   H58   1.085998 S    
C2    C3    1.520435 S    
C61   C62   1.410474 A    
P3    C70   1.872982 S    
C14   H29   1.112103 S    
C7    N1    1.460085 S    
C4    C77   1.505531 S    
O11   C2    1.404030 S    
C47   C50   1.423121 A    
C41   C43   1.403111 A    
C5    C73   1.504582 S    
C60   C68   1.417211 A    
C62   C75   1.477379 S    
P1    O5    1.750646 S    
C11   H22   1.109770 S    
P1    O2    1.573927 S    
C67   H53   1.075518 S    
C73   O25   1.220949 D    
O2    Ba1   2.921515 S    
C8    H15   1.098725 S    
C23   H39   1.080586 S    
C21   C23   1.403263 A    
C6    H11   1.102486 S    
C4    O15   1.398232 S    
C15   H32   1.104527 S    
C59   C66   1.420736 A    
C45   C46   1.398236 A    
P5    O18   1.542851 D    
C27   C28   1.394286 A    
O13   Ba2   2.922424 S    
C13   C74   1.504368 S    
C6    C7    1.529250 S    
C1    C10   1.520484 S    
O10   C8    1.398289 S    
C19   C20   1.398153 A    
C51   H47   1.077662 S    
C1    H3    1.110605 S    
C36   C39   1.403769 A    
O14   Ba2   2.783004 S    
C18   C34   1.404581 A    
C28   H38   1.082162 S    
C45   H45   1.077900 S    
C9    H17   1.103782 S    
C16   H35   1.109504 S    
C58   C63   1.398553 A    
P2    O7    1.510055 D    
O12   Ba2   2.839097 S    
C31   C38   1.410548 A    
C24   C27   1.416685 A    
C69   H49   1.078699 S    
P3    O8    1.746424 S    
O3    P6    1.745016 S    
N2    O28   1.293458 A    
C50   C54   1.416921 A    
C40   H43   1.083743 S    
C52   C53   1.420125 A    
O19   C13   1.422564 S    
C33   C46   1.425545 A    
C75   H56   1.083294 S    
O8    Ba1   2.755075 S    
C39   C40   1.397602 A    
O16   P7    1.755458 S    
C15   O24   1.413344 S    
C47   C59   1.415672 A    
C37   C38   1.419265 A    
P2    Ba1   3.408218 S    
C17   C18   1.408841 A    
Ba1   O13   2.813937 S    
P4    O12   1.523100 D    
P8    O24   1.758029 S    
C57   C58   1.409442 A    
C49   C51   1.392104 A    
C77   O33   1.219463 D    
C60   C61   1.425057 A    
C40   C41   1.402709 A    
C55   C56   1.393561 A    
C4    C5    1.542539 S    
C24   C25   1.422648 A    
O1    Ba1   2.838485 S    
O17   Ba2   2.755725 S    
C73   H54   1.085457 S    
C2    H4    1.110201 S    
P7    C57   1.842285 S    
C4    H8    1.099482 S    
C13   C14   1.545232 S    
O16   Ba2   2.911422 S    
C76   H57   1.075329 S    
C26   C37   1.409135 A    
C35   C36   1.405469 A    
P8    C27   1.859510 S    
C64   H52   1.075599 S    
C35   H41   1.079264 S    
C21   C22   1.409571 A    
C25   C30   1.426182 A    
P5    O19   1.771889 S    
C23   C24   1.410744 A    
C29   C30   1.426401 A    
C42   C44   1.416307 A    
C51   C52   1.401449 A    
C7    H14   1.111715 S    
P2    O20   1.580797 S    
C63   H48   1.079829 S    
C33   C34   1.412112 A    
N1    O26   1.301051 A    
C59   C60   1.427129 A    
C49   H50   1.079986 S    
C22   C26   1.410738 A    
C12   H24   1.110595 S    
P4    Ba2   3.390023 S    
C63   C64   1.383636 A    
C71   C72   1.403893 A    
C1    H21   1.110201 S    
C8    H16   1.098047 S    
H33   C16   1.108121 S    
P3    O9    1.546959 D    
C20   H37   1.083734 S    
C5    H9    1.107360 S    
C32   C42   1.422283 A    
C3    H6    1.110717 S    
N1    O27   1.300532 A    
C31   C32   1.422158 A    
C54   C65   1.420067 A    
C53   C58   1.415740 A    
P7    O22   1.749778 S    
C20   C21   1.403479 A    
C68   C69   1.397910 A    
P1    C46   1.877163 S    
C38   C41   1.409279 A    
O3    Ba1   2.783670 S    
P4    O15   1.759502 S    
P6    C44   1.862283 S    
