data_mof_unit_9373.cif
_audit_creation_date              2012-12-10T19:03:04-0500
_audit_creation_method            fapswitch 2.2
_symmetry_space_group_name_H-M    P1
_symmetry_Int_Tables_number       1
_space_group_crystal_system       triclinic
_cell_length_a                    10.777865
_cell_length_b                    10.853981
_cell_length_c                    9.572954
_cell_angle_alpha                 90.183554
_cell_angle_beta                  90.238326
_cell_angle_gamma                 90.076055
_cell_volume                      1119.85396608

loop_
_atom_site_label
_atom_site_type_symbol
_atom_type_description
_atom_site_fract_x
_atom_site_fract_y
_atom_site_fract_z
_atom_type_partial_charge
C1    C     C_R   0.503988 0.262911 0.499742 0.845219
C2    C     C_3   0.878101 0.498309 0.500243 0.063258
C3    C     C_3   0.928975 0.631570 0.477793 0.045629
C4    C     C_3   0.926270 0.408486 0.386062 -0.415990
C5    C     C_R   0.501765 0.063149 0.620729 0.127739
C6    C     C_R   0.509946 0.130328 0.498453 -0.090149
C7    C     C_R   0.521696 0.063966 0.372435 -0.227445
C8    C     C_R   0.518665 0.934810 0.372704 -0.178322
C9    C     C_R   0.504427 0.869997 0.499394 -0.103127
C10   C     C_R   0.495668 0.939021 0.621595 0.042377
C11   C     C_3   0.484425 0.934098 0.777485 -0.230729
C12   C     C_R   0.260223 0.496624 0.499812 0.847433
C13   C     C_3   0.491906 0.076199 0.774850 -0.530081
C14   C     C_R   0.557662 0.591994 0.074059 0.251748
C15   C     C_R   0.430979 0.416562 0.073301 0.306116
C16   C     C_R   0.430634 0.418162 0.923908 -0.124659
C17   C     C_R   0.558518 0.591291 0.927101 0.337330
C18   C     C_3   0.692677 0.622602 0.922622 -0.532142
C19   C     C_3   0.691408 0.625108 0.080717 -0.505360
C20   C     C_R   0.501007 0.737248 0.500197 0.842818
C21   C     C_R   0.740024 0.498627 0.500334 0.799933
C22   C     C_3   0.071141 0.455922 0.644986 -0.354188
C23   C     C_3   0.928993 0.451808 0.642694 -0.455223
C24   C     C_3   0.072761 0.627206 0.461626 -0.238603
C25   C     C_3   0.070076 0.404422 0.385508 -0.155619
C26   C     C_3   0.122229 0.495437 0.499618 -0.032205
Cu1   Cu    Cu3+1 0.499990 0.499980 0.640670 0.968554
Cu2   Cu    Cu3+1 0.500010 0.500020 0.359330 0.980021
H1    H     H_    0.102483 0.520729 0.727965 0.214409
H2    H     H_    0.892934 0.437312 0.281118 0.167072
H3    H     H_    0.096298 0.643073 0.349893 0.147109
H4    H     H_    0.533838 0.111132 0.274248 0.176166
H5    H     H_    0.527810 0.886486 0.274107 0.173634
H6    H     H_    0.565969 0.889628 0.827668 0.139375
H7    H     H_    0.405699 0.125339 0.804736 0.219817
H8    H     H_    0.578504 0.113576 0.822174 0.191010
H9    H     H_    0.107084 0.364282 0.676237 0.216380
H10   H     H_    0.375004 0.352998 0.865388 0.160162
H11   H     H_    0.748725 0.545442 0.881469 0.208455
H12   H     H_    0.710496 0.714034 0.874827 0.198042
H13   H     H_    0.749043 0.551117 0.127361 0.212846
H14   H     H_    0.705504 0.718834 0.124524 0.209510
H15   H     H_    0.896268 0.356186 0.662917 0.187228
H16   H     H_    0.895328 0.511003 0.728879 0.182035
H17   H     H_    0.904072 0.684420 0.573888 0.161981
H18   H     H_    0.099652 0.439132 0.281685 0.098173
H19   H     H_    0.886152 0.315364 0.404890 0.175846
N1    N     N_R   0.500800 0.500930 0.147930 -0.218071
N2    N     N_R   0.500800 0.500890 0.852020 -0.208383
O1    O     O_R   0.500000 0.319640 0.618810 -0.584936
O2    O     O_R   0.500010 0.319680 0.381230 -0.554921
O3    O     O_R   0.317690 0.499960 0.618790 -0.567173
O4    O     O_R   0.317700 0.500000 0.381210 -0.594818
O5    O     O_R   0.499990 0.680320 0.618770 -0.578112
O6    O     O_R   0.500000 0.680360 0.381190 -0.570065
O7    O     O_R   0.682300 0.500000 0.618790 -0.605471
O8    O     O_R   0.682310 0.500040 0.381210 -0.579086
N3    N     N_2   0.871208 0.691321 0.357936 -0.443788
H20   H     H_    0.899465 0.658196 0.262232 0.259203
C27   C     C_3   0.864216 0.824471 0.364225 -0.655983
H21   H     H_    0.812126 0.859543 0.272469 0.221013
H22   H     H_    0.958740 0.865199 0.363251 0.264789
H23   H     H_    0.814387 0.854297 0.459890 0.226185
C28   C     C_2   0.361187 0.885679 0.827430 0.935561
O9    O     O_2   0.264390 0.935569 0.791999 -0.575203
O10   O     O_R   0.358420 0.784762 0.917393 -0.779479
H24   H     H_    0.270936 0.760311 0.944338 0.344648
N4    N     N_2   0.354825 0.331513 0.146140 -0.374253
H25   H     H_    0.268863 0.367272 0.167994 0.250284
C29   C     C_3   0.348010 0.206750 0.092821 -0.676307
H26   H     H_    0.282457 0.201545 0.003182 0.221594
H27   H     H_    0.313024 0.145054 0.176095 0.271000
H28   H     H_    0.441194 0.173996 0.060542 0.211554
C30   C     C_2   0.134134 0.731954 0.540728 0.835245
O11   O     O_2   0.123150 0.741096 0.667342 -0.579589
O12   O     O_R   0.200976 0.820408 0.466354 -0.769804
H29   H     H_    0.233188 0.889503 0.527860 0.352801
C31   C     C_2   0.116940 0.272317 0.393578 0.844326
O13   O     O_2   0.082139 0.197797 0.305602 -0.599376
O14   O     O_R   0.201103 0.235381 0.496755 -0.787158
H30   H     H_    0.224695 0.145275 0.488291 0.340191

loop_
_geom_bond_atom_site_label_1
_geom_bond_atom_site_label_2
_ccdc_geom_bond_type
C22   H1    S    
C4    C25   S    
Cu1   O5    S    
C7    C8    A    
Cu2   O8    S    
C30   O12   S    
C27   H23   S    
C24   C26   S    
C13   H7    S    
C5    C6    A    
Cu2   O2    S    
C31   O14   S    
N3    C27   S    
C15   C16   A    
C23   H15   S    
C27   H22   S    
C18   C19   S    
C18   H12   S    
C8    C9    A    
C29   H26   S    
C1    O1    A    
C5    C13   S    
C12   O4    A    
Cu1   O1    S    
O10   H24   S    
C14   C17   A    
C3    C24   S    
C15   N1    A    
C2    C21   S    
C20   O6    A    
C12   O3    A    
Cu2   O6    S    
C30   O11   D    
C25   C31   S    
C16   N2    A    
C13   H8    S    
C20   O5    A    
C11   C28   S    
C17   N2    A    
C31   O13   D    
N4    H25   S    
C14   N1    A    
C25   C26   S    
C22   H9    S    
C3    H17   S    
C23   H16   S    
C1    C6    S    
C12   C26   S    
C27   H21   S    
C28   O10   S    
C2    C4    S    
C18   H11   S    
C21   O8    A    
C9    C20   S    
C29   H28   S    
C17   C18   S    
O12   H29   S    
C1    O2    A    
Cu1   Cu2   S    
Cu1   O3    S    
C9    C10   A    
Cu2   N1    S    
C7    H4    S    
Cu1   O7    S    
C14   C19   S    
C11   H6    S    
O14   H30   S    
C21   O7    A    
Cu2   O4    S    
C19   H14   S    
C6    C7    A    
C28   O9    D    
C2    C3    S    
N3    H20   S    
C24   H3    S    
C5    C10   A    
C11   C13   S    
C24   C30   S    
C15   N4    S    
C8    H5    S    
C10   C11   S    
C3    N3    S    
C19   H13   S    
N4    C29   S    
C22   C26   S    
C2    C23   S    
C22   C23   S    
C29   H27   S    
C25   H18   S    
C4    H2    S    
Cu1   N2    S    
C16   H10   S    
C4    H19   S    
