data_mof_unit_49380.cif
_audit_creation_date              2012-12-11T16:51:25-0500
_audit_creation_method            fapswitch 2.2
_symmetry_space_group_name_H-M    P1
_symmetry_Int_Tables_number       1
_space_group_crystal_system       triclinic
_cell_length_a                    24.489479
_cell_length_b                    17.200125
_cell_length_c                    15.610994
_cell_angle_alpha                 89.502896
_cell_angle_beta                  129.508988
_cell_angle_gamma                 90.702803
_cell_volume                      5072.92733446

loop_
_atom_site_label
_atom_site_type_symbol
_atom_type_description
_atom_site_fract_x
_atom_site_fract_y
_atom_site_fract_z
_atom_type_partial_charge
C1    C     C_R   0.843652 0.864743 0.230443 -0.074228
C2    C     C_R   0.139849 0.188133 0.502148 0.076716
C3    C     C_2   0.744469 0.256324 0.313349 0.627265
C4    C     C_R   0.317276 0.619726 0.497582 0.102779
C5    C     C_R   0.639848 0.688134 0.502152 0.076674
C6    C     C_R   0.852692 0.135014 0.141733 0.147397
C7    C     C_R   0.146914 0.128062 0.862965 0.146110
C8    C     C_R   0.352705 0.635045 0.141763 0.147464
C9    C     C_R   0.646915 0.628059 0.862967 0.146080
C10   C     C_R   0.775236 0.842200 0.604345 0.145551
C11   C     C_R   0.154180 0.722177 0.391877 0.160761
C12   C     C_R   0.275209 0.342237 0.604324 0.145464
C13   C     C_R   0.157843 0.869237 0.779678 -0.103336
C14   C     C_R   0.654183 0.222181 0.391877 0.160762
C15   C     C_R   0.760252 0.861046 0.503968 0.027647
C16   C     C_R   0.174182 0.748879 0.492879 0.068345
C17   C     C_R   0.260240 0.361058 0.503951 0.027717
C18   C     C_R   0.674185 0.248882 0.492879 0.068345
C19   C     C_R   0.690505 0.849342 0.405286 -0.188376
C20   C     C_R   0.226592 0.708316 0.590636 -0.135679
C21   C     C_R   0.190500 0.349332 0.405261 -0.188392
C22   C     C_R   0.726595 0.208319 0.590636 -0.135667
C23   C     C_R   0.144516 0.301017 0.406263 -0.173149
C24   C     C_R   0.343654 0.364741 0.230447 -0.074231
C25   C     C_R   0.768563 0.154974 0.589929 -0.179075
C26   C     C_R   0.644519 0.801030 0.406288 -0.173099
C27   C     C_R   0.268563 0.654974 0.589931 -0.179106
C28   C     C_R   0.168857 0.264044 0.505682 0.005488
C29   C     C_R   0.759534 0.145133 0.492419 0.037455
C30   C     C_R   0.668865 0.764040 0.505699 0.005373
C31   C     C_R   0.259534 0.645134 0.492421 0.037468
C32   C     C_R   0.230022 0.294478 0.605660 0.240310
C33   C     C_R   0.698029 0.173195 0.392274 0.115158
C34   C     C_R   0.730047 0.794446 0.605681 0.240402
C35   C     C_R   0.657845 0.369240 0.779686 -0.103314
C36   C     C_R   0.198027 0.673192 0.392275 0.115162
C37   C     C_3   0.791170 0.756201 0.711980 -0.274803
C38   C     C_3   0.183307 0.711953 0.292457 -0.293190
C39   C     C_3   0.291144 0.256274 0.712002 -0.274694
C40   C     C_3   0.683312 0.211957 0.292460 -0.293197
C41   C     C_R   0.092825 0.862191 0.406756 -0.119938
C42   C     C_R   0.886251 0.897153 0.592429 -0.134837
C43   C     C_R   0.592827 0.362193 0.406756 -0.119933
C44   C     C_R   0.386248 0.397157 0.592427 -0.134830
C45   C     C_3   0.840044 0.808755 0.709597 -0.635190
C46   C     C_R   0.885940 0.104830 0.591283 -0.098671
C47   C     C_3   0.133813 0.764718 0.290857 -0.564216
C48   C     C_3   0.340015 0.308833 0.709616 -0.635468
C49   C     C_3   0.633819 0.264725 0.290860 -0.564215
C50   C     C_2   0.161199 0.767445 0.898539 -0.322149
C51   C     C_2   0.840412 0.758968 0.117106 -0.291691
C52   C     C_2   0.661195 0.267443 0.898539 -0.322184
C53   C     C_2   0.340416 0.258962 0.117116 -0.291658
C54   C     C_2   0.182323 0.704217 0.877149 0.275166
C55   C     C_2   0.810105 0.700898 0.132327 0.264292
C56   C     C_2   0.682319 0.204217 0.877141 0.275133
C57   C     C_R   0.089081 0.144171 0.408430 -0.105841
C58   C     C_2   0.310103 0.200896 0.132331 0.264312
C59   C     C_2   0.802734 0.165285 0.028176 -0.205377
C60   C     C_2   0.194207 0.154694 0.978189 -0.172332
C61   C     C_2   0.302753 0.665344 0.028222 -0.205520
C62   C     C_2   0.694209 0.654692 0.978191 -0.172360
C63   C     C_2   0.732912 0.152949 0.968921 -0.158639
C64   C     C_2   0.264395 0.147853 0.040241 -0.156311
C65   C     C_2   0.232940 0.652969 0.968941 -0.158786
C66   C     C_2   0.764396 0.647854 0.040240 -0.156324
C67   C     C_R   0.169210 0.862059 0.591381 -0.092026
C68   C     C_R   0.385940 0.604830 0.591283 -0.098693
C69   C     C_R   0.811627 0.895555 0.408537 -0.086872
C70   C     C_R   0.669211 0.362060 0.591381 -0.092023
C71   C     C_R   0.311626 0.395559 0.408535 -0.086880
C72   C     C_R   0.064638 0.867820 0.776040 -0.114861
C73   C     C_R   0.931294 0.867991 0.221270 -0.136623
C74   C     C_R   0.564640 0.367824 0.776045 -0.114865
C75   C     C_R   0.431296 0.367987 0.221274 -0.136663
C76   C     C_R   0.871419 0.827095 0.188349 0.181049
C77   C     C_R   0.128052 0.831735 0.820100 0.187742
C78   C     C_R   0.371422 0.327090 0.188357 0.181003
C79   C     C_R   0.589082 0.644171 0.408433 -0.105805
C80   C     C_R   0.628055 0.331740 0.820110 0.187754
C81   C     C_R   0.146924 0.821268 0.497702 0.084741
C82   C     C_R   0.817418 0.880010 0.501201 0.087832
C83   C     C_R   0.646927 0.321270 0.497702 0.084741
C84   C     C_R   0.317413 0.380017 0.501197 0.087838
C85   C     C_R   0.811268 0.100825 0.406767 -0.146804
C86   C     C_R   0.161768 0.143995 0.593271 -0.127398
C87   C     C_R   0.311268 0.600826 0.406767 -0.146786
C88   C     C_R   0.661762 0.643997 0.593272 -0.127442
C89   C     C_R   0.922352 0.111276 0.198865 -0.152643
C90   C     C_R   0.817276 0.119725 0.497582 0.102766
C91   C     C_R   0.076013 0.108825 0.800471 -0.133550
C92   C     C_R   0.422361 0.611294 0.198883 -0.152664
C93   C     C_R   0.576013 0.608824 0.800473 -0.133517
C94   C     C_R   0.167086 0.107790 0.801281 -0.081158
C95   C     C_R   0.834258 0.113996 0.205643 -0.111389
C96   C     C_R   0.667087 0.607788 0.801282 -0.081405
C97   C     C_R   0.334263 0.614009 0.205655 -0.111407
C98   C     C_2   0.794728 0.771942 0.810305 0.542707
C99   C     C_2   0.244460 0.756323 0.313340 0.627247
C100  C     C_2   0.294662 0.272059 0.810280 0.542592
H1    H     H_    0.794099 0.852862 0.213264 0.115816
H2    H     H_    0.155163 0.672948 0.218993 0.107794
H3    H     H_    0.298441 0.194055 0.702960 0.124509
H4    H     H_    0.655167 0.172955 0.218994 0.107791
H5    H     H_    0.869318 0.852617 0.777411 0.192948
H6    H     H_    0.150511 0.826952 0.306800 0.216804
H7    H     H_    0.369263 0.352720 0.777398 0.192915
H8    H     H_    0.650520 0.326957 0.306808 0.216810
H9    H     H_    0.873287 0.775813 0.697094 0.216579
H10   H     H_    0.077327 0.754603 0.217535 0.180011
H11   H     H_    0.373283 0.275888 0.697166 0.216618
H12   H     H_    0.210742 0.861097 0.808503 0.095543
H13   H     H_    0.577333 0.254612 0.217537 0.180004
H14   H     H_    0.712519 0.113912 0.997797 0.131034
H15   H     H_    0.287805 0.116535 0.010870 0.116931
H16   H     H_    0.212558 0.613854 0.997762 0.131122
H17   H     H_    0.787806 0.616537 0.010869 0.116934
H18   H     H_    0.822335 0.203576 0.997153 0.141877
H19   H     H_    0.171782 0.187334 0.008441 0.151062
H20   H     H_    0.322342 0.703656 0.997217 0.141924
H21   H     H_    0.671784 0.687332 0.008443 0.151066
H22   H     H_    0.176910 0.776434 0.980421 0.133203
H23   H     H_    0.294100 0.352860 0.213269 0.115819
H24   H     H_    0.837781 0.759015 0.044970 0.143262
H25   H     H_    0.676888 0.276419 0.980414 0.133183
H26   H     H_    0.337790 0.259006 0.044985 0.143176
H27   H     H_    0.065499 0.849742 0.321548 0.100024
H28   H     H_    0.906586 0.905864 0.676520 0.099694
H29   H     H_    0.565503 0.349746 0.321548 0.100023
H30   H     H_    0.406582 0.405871 0.676517 0.099702
H31   H     H_    0.214219 0.849503 0.676021 0.090103
H32   H     H_    0.763261 0.899886 0.323711 0.079848
H33   H     H_    0.714220 0.349504 0.676022 0.090107
H34   H     H_    0.710744 0.361099 0.808509 0.095545
H35   H     H_    0.263261 0.399892 0.323708 0.079844
H36   H     H_    0.029944 0.855636 0.795034 0.098327
H37   H     H_    0.958292 0.859961 0.188207 0.088515
H38   H     H_    0.529944 0.355639 0.795037 0.098324
H39   H     H_    0.458294 0.359956 0.188212 0.088493
H40   H     H_    0.763170 0.092816 0.322349 0.071643
H41   H     H_    0.198193 0.160284 0.678869 0.117825
H42   H     H_    0.263170 0.592817 0.322349 0.071640
H43   H     H_    0.698181 0.660291 0.678868 0.117645
H44   H     H_    0.949791 0.109528 0.165512 0.098825
H45   H     H_    0.094551 0.284826 0.327530 0.128883
H46   H     H_    0.045865 0.107273 0.829288 0.096312
H47   H     H_    0.449801 0.609557 0.165531 0.098819
H48   H     H_    0.545865 0.607272 0.829289 0.096302
H49   H     H_    0.220379 0.105020 0.829765 0.072831
H50   H     H_    0.782505 0.116080 0.183327 0.076180
H51   H     H_    0.720379 0.605016 0.829767 0.072818
H52   H     H_    0.282503 0.616089 0.183321 0.076197
H53   H     H_    0.906974 0.103488 0.676634 0.080480
H54   H     H_    0.060161 0.160167 0.322619 0.093454
H55   H     H_    0.406974 0.603488 0.676634 0.080477
H56   H     H_    0.813036 0.130133 0.668116 0.125532
H57   H     H_    0.560169 0.660168 0.322623 0.093448
H58   H     H_    0.674103 0.868488 0.325894 0.127314
H59   H     H_    0.240858 0.723651 0.669603 0.144322
H60   H     H_    0.174105 0.368461 0.325867 0.127321
H61   H     H_    0.740863 0.223656 0.669604 0.144323
H62   H     H_    0.843088 0.759119 0.893097 -0.014709
H63   H     H_    0.253036 0.752716 0.253337 -0.029638
H64   H     H_    0.343105 0.259511 0.893137 -0.014602
H65   H     H_    0.753054 0.252706 0.253360 -0.029646
H66   H     H_    0.594546 0.784854 0.327557 0.128880
H67   H     H_    0.313037 0.630134 0.668119 0.125523
H68   H     H_    0.798428 0.693984 0.702865 0.124484
I1    I     I_    0.142834 0.672482 0.715598 -0.406039
I2    I     I_    0.819322 0.683766 0.276529 -0.397264
I3    I     I_    0.642849 0.172502 0.715590 -0.406023
I4    I     I_    0.319311 0.183766 0.276525 -0.397275
N1    N     N_R   0.888400 0.921830 0.294620 -0.052144
N2    N     N_R   0.874350 0.922400 0.443380 -0.038841
N3    N     N_R   0.625650 0.422400 0.556620 -0.043417
N4    N     N_R   0.374350 0.422400 0.443380 -0.038838
N5    N     N_R   0.054230 0.922730 0.705400 -0.047298
N6    N     N_R   0.945770 0.922730 0.294600 -0.043112
N7    N     N_R   0.554230 0.422730 0.705400 -0.047294
N8    N     N_R   0.445770 0.422730 0.294600 -0.043104
N9    N     N_R   0.873790 0.077030 0.443380 -0.039900
N10   N     N_R   0.126210 0.077030 0.556620 -0.048061
N11   N     N_R   0.373790 0.577030 0.443380 -0.039901
N12   N     N_R   0.111600 0.921830 0.705380 -0.048239
N13   N     N_R   0.626210 0.577030 0.556620 -0.048038
N14   N     N_R   0.945200 0.076700 0.294600 -0.042240
N15   N     N_R   0.054800 0.076700 0.705400 -0.043538
N16   N     N_R   0.445200 0.576700 0.294600 -0.042243
N17   N     N_R   0.554800 0.576700 0.705400 -0.043533
N18   N     N_R   0.111030 0.077600 0.705380 -0.050114
N19   N     N_R   0.888970 0.077600 0.294620 -0.044277
N20   N     N_R   0.611030 0.577600 0.705380 -0.050086
N21   N     N_R   0.388970 0.577600 0.294620 -0.044282
N22   N     N_R   0.919490 0.077280 0.556590 -0.041074
N23   N     N_R   0.388400 0.421830 0.294620 -0.052142
N24   N     N_R   0.080510 0.077280 0.443410 -0.043587
N25   N     N_R   0.419490 0.577280 0.556590 -0.041078
N26   N     N_R   0.580510 0.577280 0.443410 -0.043589
N27   N     N_R   0.611600 0.421830 0.705380 -0.048230
N28   N     N_R   0.079940 0.922160 0.443410 -0.041626
N29   N     N_R   0.920060 0.922160 0.556590 -0.037168
N30   N     N_R   0.579940 0.422160 0.443410 -0.041625
N31   N     N_R   0.420060 0.422160 0.556590 -0.037169
N32   N     N_R   0.125650 0.922400 0.556620 -0.043419
Ni1   Ni    Ni4+2 0.882160 0.999430 0.370180 0.216380
Ni2   Ni    Ni4+2 0.117840 0.999430 0.629820 0.217862
Ni3   Ni    Ni4+2 0.382160 0.499430 0.370180 0.216370
Ni4   Ni    Ni4+2 0.617840 0.499430 0.629820 0.217866
Ni5   Ni    Ni4+2 0.012460 0.999430 0.370180 0.225539
Ni6   Ni    Ni4+2 0.987540 0.999430 0.629820 0.215929
Ni7   Ni    Ni4+2 0.512460 0.499430 0.370180 0.225527
Ni8   Ni    Ni4+2 0.487540 0.499430 0.629820 0.215925
O1    O     O_2   0.744148 0.798116 0.798448 -0.574961
O2    O     O_2   0.283964 0.796716 0.395943 -0.559556
O3    O     O_2   0.243954 0.297960 0.798311 -0.575009
O4    O     O_2   0.783968 0.296723 0.395946 -0.559554

loop_
_geom_bond_atom_site_label_1
_geom_bond_atom_site_label_2
_ccdc_geom_bond_type
C49   H13   S    
C100  O3    D    
N21   Ni3   S    
C1    H1    S    
N17   N20   A    
C34   C37   S    
N11   Ni3   S    
C89   N14   A    
C41   H27   S    
C11   C47   S    
C50   H22   S    
N30   Ni7   S    
C12   C48   S    
C68   H55   S    
C14   C33   A    
C67   N32   A    
C2    C57   A    
C35   N27   A    
C4    C87   A    
C94   H49   S    
C15   C19   A    
C23   H45   S    
C1    N1    A    
N11   N25   A    
N7    N27   A    
C93   H48   S    
C92   H47   S    
N3    Ni4   S    
N4    Ni3   S    
C11   C36   A    
C71   C84   A    
C13   H12   S    
C10   C15   A    
C87   N11   A    
N16   Ni7   S    
C45   H9    S    
C72   H36   S    
C14   C49   S    
N22   Ni6   S    
C44   H30   S    
C40   C49   S    
C29   C33   A    
C35   C80   A    
C43   C83   A    
C71   N4    A    
C22   C25   A    
C60   H19   S    
N19   Ni1   S    
C32   C39   S    
C97   N21   A    
N14   N19   A    
C46   H53   S    
C19   C26   A    
C14   C18   A    
C29   C90   S    
N15   N18   A    
C16   C81   S    
C69   C82   A    
C63   H14   S    
N18   Ni2   S    
C28   C32   A    
C74   N7    A    
C66   H17   S    
C42   C82   A    
C12   C17   A    
C70   H33   S    
C8    C92   A    
C86   N10   A    
N13   N26   A    
C5    C79   A    
C70   N3    A    
C88   H43   S    
C42   H28   S    
C8    C61   S    
C91   H46   S    
C13   N12   A    
C41   C81   A    
C64   H15   S    
C74   C80   A    
C12   C32   A    
C61   H20   S    
C25   C29   A    
C51   H24   S    
C1    C76   A    
C54   I1    S    
C72   N5    A    
C43   N30   A    
C41   N28   A    
C35   H34   S    
C37   C98   S    
C98   H62   S    
C45   H5    S    
C46   N22   A    
C15   C82   S    
C58   C64   S    
C37   H68   S    
C85   C90   A    
C13   C77   A    
C33   C40   S    
C62   C66   D    
C57   N24   A    
C27   C31   A    
C9    C62   S    
C43   H29   S    
C51   C76   S    
N5    N12   A    
C100  H64   S    
C54   C65   S    
C22   H61   S    
C30   C34   A    
C75   H39   S    
C24   N23   A    
C3    O4    D    
C96   H51   S    
N7    Ni8   S    
C20   H59   S    
C24   H23   S    
C17   C21   A    
N6    Ni5   S    
C68   N25   A    
N10   Ni2   S    
N5    Ni6   S    
N8    Ni7   S    
N9    Ni1   S    
C8    C97   A    
C94   N18   A    
C44   N31   A    
C79   H57   S    
C72   C77   A    
C70   C83   A    
N28   N32   A    
C40   H4    S    
C74   H38   S    
C11   C16   A    
C85   H40   S    
N15   Ni6   S    
C75   N8    A    
C49   H8    S    
C52   H25   S    
C47   H6    S    
C7    C91   A    
N12   Ni2   S    
C10   C45   S    
C18   C83   S    
C56   C63   S    
C10   C34   A    
C95   H50   S    
C16   C20   A    
C23   C28   A    
N13   Ni4   S    
N9    N22   A    
C9    C96   A    
N4    N31   A    
C38   C47   S    
N8    N23   A    
C99   H63   S    
C73   N6    A    
C24   C78   A    
C88   N13   A    
C99   O2    D    
C98   O1    D    
N32   Ni2   S    
N16   N21   A    
C67   C81   A    
C59   H18   S    
C93   N17   A    
C21   C23   A    
C56   I3    S    
C21   H60   S    
N31   Ni8   S    
N10   N24   A    
C69   N2    A    
N24   Ni5   S    
C37   C45   S    
C6    C89   A    
C50   C77   S    
C9    C93   A    
N29   Ni6   S    
C55   C66   S    
C3    H65   S    
C4    C68   A    
C5    C30   S    
C7    C94   A    
C91   N15   A    
C26   H66   S    
C85   N9    A    
C55   I2    S    
C18   C22   A    
C19   H58   S    
C6    C59   S    
N2    Ni1   S    
C67   H31   S    
C7    C60   S    
N3    N30   A    
C38   C99   S    
C44   C84   A    
N17   Ni8   S    
C5    C88   A    
C3    C40   S    
N1    Ni1   S    
C53   C58   D    
C92   N16   A    
C39   H3    S    
C58   I4    S    
C46   C90   A    
C20   C27   A    
C95   N19   A    
C89   H44   S    
C57   H54   S    
C59   C63   D    
N28   Ni5   S    
C60   C64   D    
C17   C84   S    
C96   N20   A    
C36   C38   S    
C53   C78   S    
C50   C54   D    
N25   Ni8   S    
N26   Ni7   S    
C71   H35   S    
C39   C100  S    
C73   H37   S    
N1    N6    A    
C69   H32   S    
N27   Ni4   S    
C65   H16   S    
C97   H52   S    
C2    C86   A    
C51   C55   D    
N2    N29   A    
C87   H42   S    
C75   C78   A    
C4    C31   S    
C53   H26   S    
C48   H7    S    
C61   C65   D    
N20   Ni4   S    
C48   H11   S    
N23   Ni3   S    
C73   C76   A    
C38   H2    S    
C6    C95   A    
N14   Ni5   S    
C79   N26   A    
C31   C36   A    
C42   N29   A    
C2    C28   S    
C47   H10   S    
C52   C80   S    
C62   H21   S    
C52   C56   D    
C86   H41   S    
C27   H67   S    
C39   C48   S    
C25   H56   S    
C26   C30   A    
