data_mof_unit_41184.cif
_audit_creation_date              2012-12-10T17:02:01-0500
_audit_creation_method            fapswitch 2.2
_symmetry_space_group_name_H-M    P1
_symmetry_Int_Tables_number       1
_space_group_crystal_system       triclinic
_cell_length_a                    10.888897
_cell_length_b                    10.986294
_cell_length_c                    9.837577
_cell_angle_alpha                 109.520262
_cell_angle_beta                  96.12703
_cell_angle_gamma                 93.389797
_cell_volume                      1097.22139846

loop_
_atom_site_label
_atom_site_type_symbol
_atom_type_description
_atom_site_fract_x
_atom_site_fract_y
_atom_site_fract_z
_atom_type_partial_charge
C1    C     C_R   0.494134 0.255362 0.443163 0.882545
C2    C     C_R   0.077290 0.571074 0.627331 0.090675
C3    C     C_R   0.128348 0.483924 0.510606 -0.116194
C4    C     C_R   0.048711 0.394762 0.391251 -0.099916
C5    C     C_R   0.919106 0.395807 0.389179 -0.015606
C6    C     C_R   0.871607 0.501373 0.490553 -0.091096
C7    C     C_2   0.490251 0.117858 0.418533 0.059156
C8    C     C_2   0.568844 0.071607 0.500722 0.245059
C9    C     C_2   0.516459 0.886136 0.581478 -0.182204
C10   C     C_2   0.557870 0.933477 0.480025 0.007756
C11   C     C_2   0.530568 0.452753 0.055630 0.045421
C12   C     C_R   0.262598 0.495247 0.503260 0.770901
C13   C     C_2   0.497205 0.471058 0.910852 0.363446
C14   C     C_R   0.508588 0.745842 0.556622 0.784887
C15   C     C_R   0.737334 0.501090 0.496869 0.889362
C16   C     C_R   0.143298 0.635003 0.767909 -0.266924
C17   C     C_R   0.093169 0.732711 0.872196 -0.150969
C18   C     C_R   0.985270 0.781744 0.829356 0.369874
C19   C     C_R   0.917762 0.714924 0.691729 0.210760
C20   C     C_R   0.953879 0.596035 0.602200 -0.030002
Cu1   Cu    Cu3+1 0.521920 0.521810 0.644910 1.076966
Cu2   Cu    Cu3+1 0.478080 0.478190 0.355090 1.083305
H1    H     H_    0.228539 0.603716 0.804111 0.212382
N1    N     N_2   0.445130 0.445430 0.137370 -0.062504
N2    N     N_2   0.554930 0.554500 0.862630 -0.281138
O1    O     O_R   0.511700 0.332330 0.577400 -0.534131
O2    O     O_R   0.474680 0.295500 0.332650 -0.564787
O3    O     O_R   0.338160 0.518420 0.622400 -0.586771
O4    O     O_R   0.301140 0.481590 0.377650 -0.529977
O5    O     O_R   0.525320 0.704500 0.667350 -0.555470
O6    O     O_R   0.488300 0.667670 0.422600 -0.515711
O7    O     O_R   0.698860 0.518410 0.622350 -0.522992
O8    O     O_R   0.661840 0.481580 0.377600 -0.622795
C21   C     C_2   0.102324 0.291680 0.279239 0.483918
H2    H     H_    0.178682 0.243987 0.312133 0.100495
O9    O     O_2   0.066745 0.264746 0.149754 -0.456778
Br1   Br    Br    0.356796 0.011436 0.279257 -0.432223
Br2   Br    Br    0.361044 0.347178 0.791585 -0.331496
C22   C     C_2   0.645348 0.391777 0.072247 0.387408
H3    H     H_    0.647823 0.325055 0.131625 0.133232
O10   O     O_2   0.734647 0.408872 0.013194 -0.522848
C23   C     C_2   0.652983 0.646180 0.953652 0.677905
H4    H     H_    0.679398 0.654237 0.065985 0.043126
O11   O     O_2   0.708543 0.719018 0.905845 -0.494493
Br3   Br    Br    0.299101 0.525256 0.107192 -0.295006
C24   C     C_2   0.158199 0.782200 0.022492 0.557443
H5    H     H_    0.255864 0.770071 0.042273 0.118844
O12   O     O_2   0.102818 0.830234 0.126075 -0.442438
Br4   Br    Br    0.935426 0.943913 0.951489 -0.267599
Br5   Br    Br    0.806685 0.806308 0.608114 -0.470878
C25   C     C_2   0.836287 0.280623 0.290658 0.393216
H6    H     H_    0.851352 0.234207 0.178806 0.174498
O13   O     O_2   0.752061 0.233160 0.335153 -0.559839
C26   C     C_2   0.604186 0.852785 0.345408 0.442330
H7    H     H_    0.702673 0.860054 0.337068 0.116786
O14   O     O_2   0.531840 0.785469 0.239864 -0.527948
Br6   Br    Br    0.711247 0.174969 0.631573 -0.285452
C27   C     C_2   0.477064 0.968884 0.720961 0.484975
H8    H     H_    0.442529 0.923448 0.793813 0.084000
O15   O     O_2   0.481585 0.086648 0.756905 -0.474489

loop_
_geom_bond_atom_site_label_1
_geom_bond_atom_site_label_2
_ccdc_geom_bond_type
N2    C23   S    
C9    C14   S    
Cu2   O4    S    
C12   O4    A    
C6    C20   A    
Cu1   O5    S    
C21   O9    D    
C19   C20   A    
C14   O6    A    
Cu1   O1    S    
C17   C18   A    
C7    Br1   S    
C7    C8    D    
C22   O10   D    
C24   H5    S    
Cu1   Cu2   S    
C11   C22   S    
C4    C5    A    
C11   C13   S    
C19   Br5   S    
C13   N2    D    
C13   Br2   S    
C1    O1    A    
C23   O11   D    
C14   O5    A    
N1    Br3   S    
Cu2   N1    S    
Cu1   O3    S    
C12   O3    A    
C9    C27   S    
C16   H1    S    
C2    C3    A    
Cu2   O2    S    
C4    C21   S    
C5    C6    A    
C10   C26   S    
Cu1   O7    S    
C26   O14   D    
C27   H8    S    
Cu2   O6    S    
C2    C20   A    
C3    C4    A    
C24   O12   D    
C11   N1    D    
C15   O7    A    
C2    C16   A    
C17   C24   S    
C8    C10   S    
C21   H2    S    
C23   H4    S    
C22   H3    S    
C1    O2    A    
Cu2   O8    S    
Cu1   N2    S    
C26   H7    S    
C18   C19   A    
C3    C12   S    
C6    C15   S    
C1    C7    S    
C27   O15   D    
C15   O8    A    
C8    Br6   S    
C5    C25   S    
C25   H6    S    
C18   Br4   S    
C9    C10   D    
C16   C17   A    
C25   O13   D    
