data_mof_unit_9833.cif
_audit_creation_date              2012-12-10T18:11:36-0500
_audit_creation_method            fapswitch 2.2
_symmetry_space_group_name_H-M    P1
_symmetry_Int_Tables_number       1
_space_group_crystal_system       triclinic
_cell_length_a                    10.498466
_cell_length_b                    12.666177
_cell_length_c                    13.064275
_cell_angle_alpha                 83.099862
_cell_angle_beta                  91.236693
_cell_angle_gamma                 101.648135
_cell_volume                      1689.12115422

loop_
_atom_site_label
_atom_site_type_symbol
_atom_type_description
_atom_site_fract_x
_atom_site_fract_y
_atom_site_fract_z
_atom_type_partial_charge
C1    C     C_R   0.482219 0.439467 0.690883 0.963646
C2    C     C_3   0.058385 0.572680 0.420229 -0.209675
C3    C     C_3   0.985161 0.602234 0.510487 -0.107570
C4    C     C_3   0.878347 0.502526 0.498709 0.008851
C5    C     C_R   0.744097 0.623116 0.091408 -0.146973
C6    C     C_R   0.557185 0.591121 0.203273 -0.031946
C7    C     C_R   0.316221 0.346540 0.816639 -0.199952
C8    C     C_R   0.262800 0.338465 0.914221 -0.120873
C9    C     C_R   0.334005 0.391746 0.990708 -0.151075
C10   C     C_R   0.463970 0.448454 0.971961 0.019296
C11   C     C_R   0.523278 0.440831 0.877941 -0.052596
C12   C     C_R   0.742317 0.500725 0.499465 0.919079
C13   C     C_R   0.536867 0.513734 0.042006 0.084506
C14   C     C_R   0.671189 0.557485 0.023065 0.067970
C15   C     C_R   0.732030 0.531800 0.938313 -0.282788
C16   C     C_R   0.658910 0.473789 0.866070 0.608062
C17   C     C_R   0.480731 0.536294 0.130813 -0.214496
C18   C     C_R   0.687321 0.639196 0.182003 -0.188769
C19   C     C_R   0.444753 0.401446 0.797411 -0.070398
C20   C     C_R   0.324608 0.091450 0.338490 -0.293323
C21   C     C_R   0.664515 0.807225 0.623371 0.153046
C22   C     C_R   0.712514 0.915773 0.634227 0.554853
C23   C     C_R   0.517386 0.559778 0.309233 0.824227
C24   C     C_R   0.660925 0.995656 0.576706 0.025146
C25   C     C_R   0.547430 0.965998 0.518099 -0.140054
C26   C     C_R   0.507950 0.854761 0.501503 0.132962
C27   C     C_R   0.476933 0.042822 0.470395 0.056560
C28   C     C_R   0.385953 0.013264 0.392281 0.187376
C29   C     C_R   0.356492 0.906077 0.369976 -0.269629
C30   C     C_R   0.414041 0.827512 0.425803 -0.126042
C31   C     C_R   0.488763 0.147163 0.500812 -0.008024
C32   C     C_R   0.352487 0.197099 0.364484 0.021958
C33   C     C_R   0.257985 0.499997 0.499270 0.833842
C34   C     C_3   0.943229 0.430708 0.576860 -0.105303
C35   C     C_3   0.052416 0.530068 0.588634 -0.147732
C36   C     C_3   0.122744 0.500398 0.498395 0.002699
C37   C     C_3   0.016176 0.401125 0.486417 -0.124126
C38   C     C_3   0.948906 0.473294 0.408296 -0.188956
H1    H     H_    0.099118 0.552996 0.662017 0.157931
H2    H     H_    0.380043 0.504298 0.150796 0.115189
H3    H     H_    0.255140 0.315119 0.754757 0.156434
H4    H     H_    0.285434 0.385607 0.063627 0.123881
H5    H     H_    0.163370 0.296123 0.928985 0.156386
H6    H     H_    0.308298 0.259031 0.321942 0.132459
H7    H     H_    0.286363 0.882270 0.310669 0.148109
H8    H     H_    0.256722 0.071307 0.276778 0.151757
H9    H     H_    0.539494 0.169580 0.569920 0.167699
H10   H     H_    0.892250 0.374119 0.641459 0.204989
H11   H     H_    0.386218 0.746687 0.405803 0.200120
H12   H     H_    0.034750 0.319922 0.475843 0.181585
H13   H     H_    0.902045 0.450327 0.334978 0.151592
H14   H     H_    0.110223 0.630403 0.356678 0.132268
H15   H     H_    0.969291 0.684594 0.519745 0.173661
H16   H     H_    0.747961 0.679507 0.239702 0.143739
H17   H     H_    0.835960 0.558866 0.926539 0.184061
H18   H     H_    0.846576 0.656544 0.077718 0.142974
N1    N     N_R   0.432930 0.222190 0.444670 -0.111991
N2    N     N_R   0.566370 0.776980 0.554790 -0.178084
O1    O     O_R   0.467970 0.366730 0.627150 -0.612951
O2    O     O_R   0.510820 0.544830 0.662520 -0.581800
O3    O     O_R   0.664630 0.410960 0.482340 -0.599073
O4    O     O_R   0.707470 0.589060 0.517710 -0.598114
O5    O     O_R   0.489180 0.455170 0.337480 -0.610222
O6    O     O_R   0.532030 0.633270 0.372850 -0.635522
O7    O     O_R   0.292530 0.410940 0.482290 -0.629480
O8    O     O_R   0.335370 0.589040 0.517660 -0.637479
Zn1   Zn    Zn3+2 0.471390 0.381080 0.476380 0.967698
Zn2   Zn    Zn3+2 0.528610 0.618920 0.523620 0.968742
F1    F     F_    0.721320 0.447883 0.785422 -0.684444
I1    I     I_    0.771564 0.701653 0.706271 -0.218423
I2    I     I_    0.791620 0.149226 0.555343 -0.334412
F2    F     F_    0.818027 0.944325 0.694573 -0.613058

loop_
_geom_bond_atom_site_label_1
_geom_bond_atom_site_label_2
_ccdc_geom_bond_type
O8    Zn2   S    
C37   H12   S    
C34   C37   S    
C5    H18   S    
C35   C36   S    
C8    H5    S    
C33   O7    A    
C7    C8    A    
C11   C19   A    
C9    H4    S    
C29   C30   A    
O6    Zn2   S    
C36   C37   S    
C1    O1    A    
C15   C16   A    
C33   C36   S    
C34   C35   S    
C2    C38   S    
O1    Zn1   S    
C8    C9    A    
O7    Zn1   S    
C4    C12   S    
C9    C10   A    
C23   O5    A    
C31   H9    S    
C21   C22   A    
C32   N1    A    
N1    Zn1   S    
C22   F2    S    
C33   O8    A    
C4    C34   S    
C6    C18   A    
O5    Zn1   S    
C1    C19   S    
C27   C31   A    
C24   C25   A    
C1    O2    A    
C5    C18   A    
C20   C28   A    
C25   C26   A    
C29   H7    S    
C17   H2    S    
C15   H17   S    
C35   H1    S    
C37   C38   S    
C12   O4    A    
C11   C16   A    
O3    Zn1   S    
C3    C35   S    
C32   H6    S    
C26   N2    A    
C5    C14   A    
C2    H14   S    
N2    Zn2   S    
C23   O6    A    
C30   H11   S    
C4    C38   S    
C26   C30   A    
C7    C19   A    
C22   C24   A    
C34   H10   S    
C3    C4    S    
C20   C32   A    
C2    C36   S    
C6    C17   A    
C28   C29   A    
C16   F1    S    
C10   C13   A    
C38   H13   S    
O4    Zn2   S    
C25   C27   A    
C13   C17   A    
C21   I1    S    
C31   N1    A    
C2    C3    S    
C21   N2    A    
C12   O3    A    
C3    H15   S    
C6    C23   S    
C7    H3    S    
C10   C11   A    
C18   H16   S    
O2    Zn2   S    
C27   C28   A    
C14   C15   A    
C13   C14   A    
C20   H8    S    
C24   I2    S    
