data_mof_unit_21309.cif
_audit_creation_date              2012-12-10T18:26:25-0500
_audit_creation_method            fapswitch 2.2
_symmetry_space_group_name_H-M    P1
_symmetry_Int_Tables_number       1
_space_group_crystal_system       triclinic
_cell_length_a                    15.007464
_cell_length_b                    14.016277
_cell_length_c                    22.840397
_cell_angle_alpha                 90.680809
_cell_angle_beta                  89.718608
_cell_angle_gamma                 91.791176
_cell_volume                      4801.71341219

loop_
_atom_site_label
_atom_site_type_symbol
_atom_type_description
_atom_site_fract_x
_atom_site_fract_y
_atom_site_fract_z
_atom_type_partial_charge
C1    C     C_R   0.326578 0.498336 0.499511 0.941569
C2    C     C_R   0.673798 0.501811 0.500083 0.892650
C3    C     C_R   0.546804 0.543344 0.229410 0.008597
C4    C     C_R   0.388161 0.579732 0.753479 0.045816
C5    C     C_R   0.563479 0.524510 0.289356 -0.110500
C6    C     C_R   0.399221 0.559859 0.693322 -0.139552
C7    C     C_R   0.490759 0.495687 0.324922 -0.161372
C8    C     C_R   0.472167 0.504959 0.674229 -0.165538
C9    C     C_R   0.415534 0.450919 0.298361 0.137458
C10   C     C_R   0.525639 0.459049 0.715126 0.157162
C11   C     C_R   0.404080 0.460585 0.237780 0.016189
C12   C     C_R   0.509315 0.471614 0.775851 -0.039290
C13   C     C_R   0.458144 0.529572 0.207642 0.071316
C14   C     C_R   0.441621 0.533362 0.794302 0.127792
C15   C     C_R   0.821440 0.576264 0.475587 0.131107
C16   C     C_R   0.183604 0.424587 0.531782 0.184180
C17   C     C_R   0.770018 0.507075 0.506416 -0.183819
C18   C     C_R   0.230459 0.494663 0.499010 -0.134215
C19   C     C_R   0.811643 0.444255 0.544624 -0.052446
C20   C     C_R   0.185088 0.566361 0.470054 -0.140698
C21   C     C_R   0.903507 0.431478 0.537276 0.109221
C22   C     C_R   0.096777 0.580949 0.486565 -0.068856
C23   C     C_R   0.498064 0.498931 0.388721 0.891712
C24   C     C_R   0.494580 0.500751 0.611353 0.877502
C25   C     C_R   0.954538 0.507883 0.513341 0.008796
C26   C     C_R   0.046997 0.503472 0.510539 0.040997
C27   C     C_R   0.912453 0.586892 0.488918 -0.066526
C28   C     C_R   0.089788 0.421111 0.529869 0.073058
C29   C     C_R   0.944419 0.344043 0.549903 -0.074894
C30   C     C_R   0.056842 0.670024 0.479587 -0.066828
C31   C     C_R   0.038041 0.338839 0.545990 -0.112744
C32   C     C_R   0.963109 0.671161 0.475801 -0.031165
C33   C     C_R   0.534663 0.798450 0.453689 -0.018629
C34   C     C_R   0.454056 0.201856 0.542364 -0.035500
C35   C     C_R   0.460095 0.797127 0.544806 -0.003019
C36   C     C_R   0.543482 0.202909 0.456802 0.003613
C37   C     C_R   0.457168 0.898139 0.546046 -0.002061
C38   C     C_R   0.540517 0.101976 0.453451 0.006389
C39   C     C_R   0.536429 0.899274 0.452097 0.002707
C40   C     C_R   0.453490 0.100901 0.544613 0.004014
C41   C     C_R   0.497250 0.949547 0.499232 0.038119
C42   C     C_R   0.497355 0.050679 0.499222 0.042936
C43   C     C_R   0.413421 0.948292 0.591708 -0.067341
C44   C     C_R   0.579793 0.051649 0.406068 -0.077274
C45   C     C_R   0.576729 0.950373 0.405040 -0.084234
C46   C     C_R   0.409124 0.049276 0.589991 -0.063425
C47   C     C_R   0.485146 0.619883 0.881789 0.550363
C48   C     C_R   0.346359 0.555258 0.129709 0.636669
C49   C     C_R   0.365739 0.503483 0.885819 0.604764
C50   C     C_R   0.475331 0.649074 0.127964 0.527446
C51   C     C_R   0.354706 0.519169 0.946473 -0.065420
C52   C     C_R   0.475135 0.653187 0.066176 -0.085758
C53   C     C_R   0.416220 0.582618 0.975172 -0.097646
C54   C     C_R   0.411826 0.593993 0.036303 -0.104980
C55   C     C_R   0.483177 0.633034 0.943055 -0.069749
C56   C     C_R   0.341380 0.550061 0.068310 -0.061102
C57   C     C_R   0.283852 0.474907 0.978855 0.160871
C58   C     C_R   0.538075 0.708741 0.034054 0.145079
C59   C     C_R   0.273493 0.496717 0.039014 0.170403
C60   C     C_R   0.544973 0.695496 0.972716 0.167155
H1    H     H_    0.559593 0.757315 0.417836 0.177073
H2    H     H_    0.418513 0.243585 0.574266 0.170498
H3    H     H_    0.428891 0.754528 0.578551 0.162995
H4    H     H_    0.579775 0.245510 0.425073 0.180248
N1    N     N_R   0.430443 0.552818 0.855664 -0.351229
N2    N     N_R   0.426651 0.577974 0.154999 -0.333132
N3    N     N_R   0.500000 0.750030 0.500000 -0.127849
N4    N     N_R   0.500000 0.249970 0.500000 -0.128858
O1    O     O_R   0.367850 0.580280 0.500010 -0.603256
O2    O     O_R   0.632150 0.419720 0.499990 -0.620036
O3    O     O_R   0.632150 0.580280 0.499990 -0.609589
O4    O     O_R   0.367850 0.419720 0.500010 -0.633839
O5    O     O_R   0.499970 0.580290 0.416160 -0.581576
O6    O     O_R   0.500030 0.419710 0.583840 -0.614449
O7    O     O_R   0.500030 0.580290 0.583840 -0.633976
O8    O     O_R   0.499970 0.419710 0.416160 -0.629744
O9    O     O_2   0.540174 0.673773 0.847908 -0.512610
O10   O     O_2   0.273172 0.541422 0.163294 -0.539279
O11   O     O_2   0.311697 0.441346 0.856267 -0.509324
O12   O     O_2   0.520647 0.714950 0.160444 -0.471153
Zn1   Zn    Zn3+2 0.500000 0.607200 0.500000 0.973898
Zn2   Zn    Zn3+2 0.500000 0.392800 0.500000 0.952342
N5    N     N_2   0.223208 0.408507 0.951132 -0.255574
H5    H     H_    0.157122 0.415980 0.962140 0.229325
C61   C     C_3   0.250483 0.310320 0.952447 -0.651475
H6    H     H_    0.250352 0.283682 0.998029 0.213417
H7    H     H_    0.318473 0.303795 0.933648 0.257612
H8    H     H_    0.203546 0.264935 0.926011 0.246965
N6    N     N_2   0.594347 0.777676 0.063316 -0.264718
H9    H     H_    0.592779 0.846142 0.047444 0.225651
C62   C     C_3   0.682057 0.747649 0.079837 -0.615649
H10   H     H_    0.733166 0.778774 0.049723 0.200560
H11   H     H_    0.686222 0.668590 0.079171 0.227011
H12   H     H_    0.697015 0.774217 0.124770 0.294907
C63   C     C_2   0.078724 0.243672 0.549597 0.424285
H13   H     H_    0.063321 0.197193 0.586135 0.045299
O13   O     O_2   0.127179 0.215295 0.510417 -0.543597
C64   C     C_2   0.917829 0.760872 0.463332 0.530732
H14   H     H_    0.863975 0.783667 0.491508 0.046717
O14   O     O_2   0.938815 0.808352 0.420653 -0.515992
C65   C     C_2   0.373892 0.896849 0.642749 0.378183
H15   H     H_    0.306922 0.911779 0.657528 0.064089
O15   O     O_2   0.417494 0.840799 0.670355 -0.570652
C66   C     C_2   0.620266 0.103360 0.355444 0.406799
H16   H     H_    0.685003 0.083815 0.338683 0.074947
O16   O     O_2   0.579789 0.165015 0.330411 -0.566819
C67   C     C_2   0.614408 0.899285 0.353531 0.381933
H17   H     H_    0.681631 0.916609 0.338611 0.070197
O17   O     O_2   0.569220 0.840591 0.325935 -0.504269
C68   C     C_2   0.358553 0.099234 0.636691 0.372046
H18   H     H_    0.290016 0.077342 0.645959 0.067561
O18   O     O_2   0.394067 0.161837 0.666817 -0.584551
N7    N     N_2   0.198644 0.459184 0.070920 -0.261346
H19   H     H_    0.180442 0.389279 0.061473 0.231935
C69   C     C_3   0.123510 0.521413 0.073027 -0.657002
H20   H     H_    0.095008 0.529424 0.028637 0.207376
H21   H     H_    0.144167 0.592995 0.090522 0.269593
H22   H     H_    0.071159 0.490505 0.102308 0.248166
N8    N     N_2   0.617294 0.740310 0.941549 -0.250403
H23   H     H_    0.636036 0.808009 0.955657 0.226569
C70   C     C_3   0.692618 0.680030 0.930931 -0.641948
H24   H     H_    0.724858 0.661563 0.972669 0.206368
H25   H     H_    0.742345 0.718299 0.902917 0.246272
H26   H     H_    0.671400 0.612770 0.908108 0.256556
C71   C     C_2   0.621204 0.564707 0.188113 0.600309
H27   H     H_    0.620717 0.531784 0.144856 -0.008057
O19   O     O_2   0.680337 0.623158 0.200553 -0.499745
C72   C     C_2   0.326148 0.655732 0.772593 0.570598
H28   H     H_    0.309655 0.711846 0.742567 0.110997
O20   O     O_2   0.292462 0.657143 0.821298 -0.562803
C73   C     C_2   0.654953 0.520042 0.314730 0.484849
H29   H     H_    0.663358 0.517783 0.361687 0.048334
O21   O     O_2   0.721203 0.510234 0.284383 -0.515066
C74   C     C_2   0.331322 0.591906 0.650724 0.337979
H30   H     H_    0.348977 0.609586 0.606430 0.112652
O22   O     O_2   0.252809 0.595965 0.664538 -0.585008
N9    N     N_2   0.352884 0.394578 0.331569 -0.321393
H31   H     H_    0.336847 0.423217 0.371844 0.271666
C75   C     C_3   0.371827 0.293987 0.334888 -0.680339
H32   H     H_    0.435279 0.283484 0.358199 0.277609
H33   H     H_    0.376740 0.261217 0.290614 0.245105
H34   H     H_    0.317241 0.256127 0.359060 0.248827
N10   N     N_2   0.597143 0.403500 0.694172 -0.326971
H35   H     H_    0.658774 0.421833 0.711253 0.297797
C76   C     C_3   0.577890 0.301894 0.689981 -0.568192
H36   H     H_    0.636386 0.265530 0.671272 0.240354
H37   H     H_    0.520395 0.287625 0.660640 0.265702
H38   H     H_    0.562585 0.271823 0.733763 0.264170
C77   C     C_2   0.347475 0.387899 0.206419 0.497363
H39   H     H_    0.287501 0.358278 0.226849 0.108549
O23   O     O_2   0.369187 0.358045 0.158131 -0.585028
C78   C     C_2   0.561522 0.422764 0.821701 0.422963
H40   H     H_    0.535216 0.416603 0.865850 0.055252
O24   O     O_2   0.634681 0.390458 0.811909 -0.560282
N11   N     N_2   0.790487 0.611335 0.421070 -0.309837
H41   H     H_    0.836389 0.610455 0.387285 0.269121
C79   C     C_3   0.734626 0.693477 0.420825 -0.729915
H42   H     H_    0.767021 0.752317 0.395583 0.245544
H43   H     H_    0.720037 0.720168 0.465724 0.240454
H44   H     H_    0.672249 0.672941 0.398037 0.245618
N12   N     N_2   0.231111 0.362656 0.568806 -0.318363
H45   H     H_    0.265609 0.306872 0.550946 0.268220
C80   C     C_3   0.216741 0.366850 0.631453 -0.680086
H46   H     H_    0.281420 0.381980 0.653550 0.259493
H47   H     H_    0.189388 0.297042 0.646839 0.226211
H48   H     H_    0.169671 0.423399 0.643826 0.275132
C81   C     C_2   0.762221 0.402111 0.595419 0.431229
H49   H     H_    0.690307 0.396865 0.596071 0.109175
O25   O     O_2   0.801892 0.377194 0.638948 -0.579940
C82   C     C_2   0.223035 0.617226 0.417628 0.427882
H50   H     H_    0.185000 0.670883 0.395937 0.091779
O26   O     O_2   0.294034 0.596309 0.395497 -0.564052
C83   C     C_2   0.890005 0.253973 0.557386 0.502565
H51   H     H_    0.910259 0.200436 0.588059 0.052725
O27   O     O_2   0.823527 0.237614 0.527837 -0.564673
C84   C     C_2   0.113867 0.759533 0.486319 0.435670
H52   H     H_    0.185003 0.754844 0.493414 0.053965
O28   O     O_2   0.082959 0.839002 0.487422 -0.511412

loop_
_geom_bond_atom_site_label_1
_geom_bond_atom_site_label_2
_ccdc_geom_bond_type
C16   C28   A    
C20   C82   S    
C43   C46   A    
C79   H42   S    
N11   C79   S    
C75   H33   S    
C41   C42   A    
C12   C78   S    
C80   H46   S    
C23   O8    A    
C72   H28   S    
C66   O16   D    
C76   H36   S    
C44   C66   S    
C39   C41   A    
C83   H51   S    
C40   C46   A    
N9    C75   S    
C1    C18   S    
C33   C39   A    
C49   N1    A    
C34   C40   A    
C80   H47   S    
O6    Zn2   S    
C38   C42   A    
C77   O23   D    
C75   H34   S    
C31   C63   S    
C57   C59   A    
C82   H50   S    
C58   C60   A    
N10   H35   S    
N10   C76   S    
C34   H2    S    
C60   N8    S    
C48   C56   A    
C48   O10   S    
C68   H18   S    
C70   H26   S    
C76   H37   S    
C9    N9    S    
C11   C77   S    
C63   H13   S    
C49   C51   A    
C50   C52   A    
C67   H17   S    
C57   N5    S    
C51   C57   A    
N6    C62   S    
C15   N11   S    
C3    C13   A    
C39   C45   A    
C83   O27   D    
C65   O15   D    
C55   C60   A    
C2    C17   S    
C37   C41   A    
C67   O17   D    
C19   C81   S    
C23   O5    A    
C10   C12   A    
C30   C84   S    
C66   H16   S    
N12   C80   S    
C52   C54   A    
N12   H45   S    
C13   N2    S    
C53   C55   A    
C54   C56   A    
C1    O4    A    
C4    C72   S    
C61   H7    S    
C65   H15   S    
C80   H48   S    
C4    C6    A    
O8    Zn2   S    
C62   H10   S    
C5    C7    A    
O7    Zn1   S    
C74   O22   D    
C69   H21   S    
C25   C26   A    
C61   H6    S    
C21   C29   A    
C1    O1    A    
C49   O11   S    
C81   O25   D    
C50   O12   S    
C51   C53   A    
C37   C43   A    
C43   C65   S    
C38   C44   A    
C62   H11   S    
C9    C11   A    
C6    C74   S    
C15   C27   A    
N5    H5    S    
C35   N3    A    
C59   N7    S    
C69   H22   S    
C3    C71   S    
N8    H23   S    
C50   N2    A    
C70   H24   S    
N8    C70   S    
C52   C58   A    
O5    Zn1   S    
C6    C8    A    
C16   C18   A    
C84   H52   S    
N5    C61   S    
C20   C22   A    
N3    Zn1   S    
C79   H44   S    
C64   O14   D    
C46   C68   S    
C71   H27   S    
C47   O9    S    
C34   N4    A    
C2    O3    A    
C3    C5    A    
C81   H49   S    
C76   H38   S    
C44   C45   A    
C33   N3    A    
C47   C55   A    
N7    H19   S    
C78   O24   D    
C61   H8    S    
C35   C37   A    
C15   C17   A    
C21   C25   A    
C63   O13   D    
C22   C30   A    
C19   C21   A    
C27   C32   A    
C28   C31   A    
C29   C83   S    
C73   O21   D    
C72   O20   D    
C79   H43   S    
C75   H32   S    
C36   N4    A    
C24   O7    A    
C53   C54   A    
C74   H30   S    
C16   N12   S    
C25   C27   A    
N9    H31   S    
C26   C28   A    
C56   C59   A    
N4    Zn2   S    
C36   C38   A    
C12   C14   A    
C29   C31   A    
C36   H4    S    
C77   H39   S    
C62   H12   S    
C30   C32   A    
C11   C13   A    
C24   O6    A    
C69   H20   S    
N7    C69   S    
C82   O26   D    
C33   H1    S    
C7    C23   S    
C40   C42   A    
C8    C24   S    
C14   N1    S    
C32   C64   S    
C18   C20   A    
C10   N10   S    
C4    C14   A    
O2    Zn2   S    
C58   N6    S    
C68   O18   D    
C70   H25   S    
O1    Zn1   S    
C45   C67   S    
C17   C19   A    
C7    C9    A    
C5    C73   S    
C78   H40   S    
C8    C10   A    
C64   H14   S    
C22   C26   A    
N11   H41   S    
C71   O19   D    
C35   H3    S    
C48   N2    A    
N6    H9    S    
C2    O2    A    
C47   N1    A    
O4    Zn2   S    
C73   H29   S    
C84   O28   D    
O3    Zn1   S    
