data_mof_unit_10292.cif
_audit_creation_date              2012-12-10T18:20:36-0500
_audit_creation_method            fapswitch 2.2
_symmetry_space_group_name_H-M    P1
_symmetry_Int_Tables_number       1
_space_group_crystal_system       triclinic
_cell_length_a                    14.093242
_cell_length_b                    13.625919
_cell_length_c                    14.946311
_cell_angle_alpha                 88.934497
_cell_angle_beta                  89.191376
_cell_angle_gamma                 83.701957
_cell_volume                      2852.16430449

loop_
_atom_site_label
_atom_site_type_symbol
_atom_type_description
_atom_site_fract_x
_atom_site_fract_y
_atom_site_fract_z
_atom_type_partial_charge
C1    C     C_R   0.500147 0.503443 0.327107 1.051240
C2    C     C_R   0.499853 0.496563 0.672895 1.049529
C3    C     C_R   0.498465 0.499539 0.953229 -0.033602
C4    C     C_R   0.501478 0.500498 0.046776 -0.037407
C5    C     C_R   0.475774 0.413851 0.909297 -0.113240
C6    C     C_R   0.524142 0.586191 0.090715 -0.131830
C7    C     C_R   0.550317 0.664261 0.947327 -0.149228
C8    C     C_R   0.449736 0.335732 0.052673 -0.176914
C9    C     C_R   0.560079 0.662863 0.039682 0.446257
C10   C     C_R   0.439811 0.337176 0.960324 0.414591
C11   C     C_R   0.803988 0.438156 0.556927 -0.096676
C12   C     C_R   0.196011 0.561849 0.443076 -0.097947
C13   C     C_R   0.792982 0.562374 0.442679 0.457484
C14   C     C_R   0.207017 0.437618 0.557310 0.457217
C15   C     C_R   0.893637 0.563801 0.441259 -0.067338
C16   C     C_R   0.106361 0.436197 0.558734 -0.070027
C17   C     C_R   0.949453 0.500176 0.499851 0.064242
C18   C     C_R   0.050546 0.499826 0.500147 0.064289
C19   C     C_R   0.904311 0.436853 0.558176 0.009429
C20   C     C_R   0.095688 0.563150 0.441823 0.011474
C21   C     C_R   0.940157 0.626755 0.383194 -0.107981
C22   C     C_R   0.059842 0.373241 0.616798 -0.103834
C23   C     C_R   0.516602 0.314402 0.500003 0.973616
C24   C     C_R   0.483398 0.685598 0.499996 0.973567
C25   C     C_R   0.039702 0.626323 0.383597 -0.168915
C26   C     C_R   0.960297 0.373677 0.616400 -0.166570
C27   C     C_1   0.471183 0.789092 0.499661 -0.053785
C28   C     C_1   0.528818 0.210909 0.500327 -0.054240
C29   C     C_2   0.459022 0.980477 0.499001 -0.098817
C30   C     C_2   0.540979 0.019524 0.500963 -0.098033
C31   C     C_1   0.537506 0.123295 0.500689 0.059726
C32   C     C_1   0.462495 0.876705 0.499286 0.060150
C33   C     C_R   0.492706 0.408125 0.816692 0.369635
C34   C     C_R   0.507234 0.591907 0.183321 0.377298
C35   C     C_R   0.499102 0.496640 0.768426 -0.259246
C36   C     C_R   0.500897 0.503376 0.231578 -0.260593
C37   C     C_R   0.510032 0.585183 0.810871 0.297562
C38   C     C_R   0.490029 0.414820 0.189128 0.294516
C39   C     C_R   0.518192 0.584381 0.903658 -0.004924
C40   C     C_R   0.481827 0.415632 0.096340 0.019577
H1    H     H_    0.609555 0.974386 0.502733 0.177731
H2    H     H_    0.390446 0.025615 0.497233 0.177441
H3    H     H_    0.575111 0.725117 0.909463 0.243997
H4    H     H_    0.425213 0.274821 0.090592 0.215867
H5    H     H_    0.768752 0.389699 0.601358 0.190647
H6    H     H_    0.231247 0.610309 0.398648 0.190487
H7    H     H_    0.900428 0.676936 0.336899 0.212454
H8    H     H_    0.099571 0.323056 0.663090 0.216669
H9    H     H_    0.072918 0.675601 0.338165 0.167969
H10   H     H_    0.927081 0.324399 0.661832 0.170360
N1    N     N_R   0.750030 0.500040 0.500070 -0.139905
N2    N     N_R   0.249970 0.499960 0.499930 -0.139966
O1    O     O_R   0.580280 0.500020 0.367860 -0.579771
O2    O     O_R   0.419720 0.499980 0.632140 -0.580344
O3    O     O_R   0.419730 0.500030 0.367840 -0.578444
O4    O     O_R   0.580270 0.499970 0.632160 -0.577789
O5    O     O_R   0.591830 0.359650 0.500030 -0.629487
O6    O     O_R   0.408170 0.640350 0.499970 -0.629330
O7    O     O_R   0.431280 0.359660 0.500010 -0.559523
O8    O     O_R   0.568720 0.640340 0.499990 -0.559014
Zn1   Zn    Zn3+2 0.607200 0.499990 0.500020 1.069554
Zn2   Zn    Zn3+2 0.392800 0.500010 0.499980 1.068707
S1    S     S_3+6 0.539177 0.293711 0.767858 0.072691
O9    O     O_2   0.576593 0.221119 0.839300 -0.233964
O10   O     O_2   0.463162 0.251525 0.715998 -0.214707
O11   O     O_3   0.630489 0.311459 0.698083 -0.597910
H11   H     H_    0.651123 0.245616 0.673086 0.372361
S2    S     S_3+6 0.460768 0.706315 0.232176 0.070597
O12   O     O_2   0.536825 0.748577 0.283919 -0.215059
O13   O     O_2   0.423216 0.778862 0.160752 -0.238515
O14   O     O_3   0.369562 0.688547 0.302068 -0.599044
H12   H     H_    0.348864 0.754415 0.326986 0.371580
Cl1   Cl    Cl    0.518363 0.694930 0.746426 -0.589786
Cl2   Cl    Cl    0.481781 0.305057 0.253576 -0.601426
S3    S     S_3+6 0.640939 0.740752 0.082796 0.104795
O15   O     O_2   0.590130 0.840730 0.103229 -0.183838
O16   O     O_2   0.687534 0.695294 0.165694 -0.223612
O17   O     O_3   0.726274 0.754958 0.005260 -0.541546
H13   H     H_    0.768811 0.798639 0.033093 0.398729
S4    S     S_3+6 0.358749 0.259489 0.917080 0.119400
O18   O     O_2   0.312288 0.305022 0.834187 -0.182761
O19   O     O_2   0.409154 0.159520 0.895765 -0.194111
O20   O     O_3   0.272504 0.245317 0.993842 -0.517334
H14   H     H_    0.295830 0.185656 0.029380 0.374897
Cl3   Cl    Cl    0.722157 0.641508 0.370119 -0.491458
Cl4   Cl    Cl    0.277844 0.358458 0.629842 -0.488541

loop_
_geom_bond_atom_site_label_1
_geom_bond_atom_site_label_2
_ccdc_geom_bond_type
C2    C35   S    
O6    Zn2   S    
C22   H8    S    
S1    O10   D    
C29   H2    S    
N1    Zn1   S    
C24   C27   S    
C6    C9    A    
C23   O7    A    
C11   C19   A    
C35   C37   A    
C29   C32   S    
C26   H10   S    
C30   C31   S    
C8    C10   A    
C20   C25   A    
O3    Zn2   S    
C23   O5    A    
C19   C26   A    
C1    O1    A    
C21   C25   A    
C17   C19   A    
C13   N1    A    
O1    Zn1   S    
C14   N2    A    
C4    C40   A    
S2    O12   D    
C5    C33   A    
C30   H1    S    
C7    H3    S    
C18   C20   A    
C24   O8    A    
O11   H11   S    
S1    O11   S    
C3    C39   A    
S4    O20   S    
C5    C10   A    
C12   N2    A    
C14   Cl4   S    
S4    O19   D    
C2    O2    A    
C34   S2    S    
C10   S4    S    
O17   H13   S    
O2    Zn2   S    
C6    C34   A    
O8    Zn1   S    
C12   H6    S    
S3    O15   D    
C29   C30   D    
O20   H14   S    
C33   S1    S    
C12   C20   A    
C17   C18   A    
C16   C18   A    
C23   C28   S    
S3    O16   D    
C4    C6    A    
C13   C15   A    
C14   C16   A    
C11   H5    S    
C3    C4    A    
C38   Cl2   S    
C15   C17   A    
C37   Cl1   S    
O7    Zn2   S    
C16   C22   A    
C27   C32   T    
C28   C31   T    
C8    H4    S    
S4    O18   D    
C3    C5    A    
O5    Zn1   S    
C8    C40   A    
C36   C38   A    
C1    O3    A    
O14   H12   S    
C37   C39   A    
N2    Zn2   S    
C38   C40   A    
S2    O14   S    
C33   C35   A    
C34   C36   A    
S3    O17   S    
C25   H9    S    
C11   N1    A    
S1    O9    D    
C7    C9    A    
C15   C21   A    
C24   O6    A    
C22   C26   A    
C13   Cl3   S    
S2    O13   D    
C7    C39   A    
O4    Zn1   S    
C2    O4    A    
C9    S3    S    
C1    C36   S    
C21   H7    S    
