data_mof_unit_10090.cif
_audit_creation_date              2012-12-10T17:11:03-0500
_audit_creation_method            fapswitch 2.2
_symmetry_space_group_name_H-M    P1
_symmetry_Int_Tables_number       1
_space_group_crystal_system       triclinic
_cell_length_a                    11.710552
_cell_length_b                    13.019653
_cell_length_c                    13.460936
_cell_angle_alpha                 91.657613
_cell_angle_beta                  76.804857
_cell_angle_gamma                 99.789882
_cell_volume                      1968.96520484

loop_
_atom_site_label
_atom_site_type_symbol
_atom_type_description
_atom_site_fract_x
_atom_site_fract_y
_atom_site_fract_z
_atom_type_partial_charge
C1    C     C_R   0.521113 0.700491 0.500259 0.807044
C2    C     C_R   0.451391 0.501108 0.973831 0.074443
C3    C     C_R   0.468246 0.463375 0.872067 0.022991
C4    C     C_R   0.534046 0.486551 0.033063 0.074698
C5    C     C_R   0.631919 0.436109 0.989652 0.146488
C6    C     C_R   0.639694 0.390814 0.894128 -0.287184
C7    C     C_R   0.554298 0.397443 0.838974 -0.047739
C8    C     C_R   0.520601 0.517096 0.135439 -0.242901
C9    C     C_R   0.699250 0.452800 0.147539 -0.199799
C10   C     C_R   0.397508 0.492278 0.807845 -0.105908
C11   C     C_R   0.471259 0.185873 0.491356 -0.072255
C12   C     C_R   0.436068 0.491923 0.695808 0.802227
C13   C     C_R   0.535152 0.813256 0.493945 -0.047154
C14   C     C_R   0.661785 0.979765 0.450591 -0.179053
C15   C     C_R   0.648715 0.872668 0.462531 -0.224585
C16   C     C_R   0.434441 0.861465 0.515099 -0.245724
C17   C     C_R   0.446731 0.969079 0.505126 0.125096
C18   C     C_R   0.561283 0.029246 0.471740 0.180767
C19   C     C_R   0.573585 0.137565 0.462064 0.093759
C20   C     C_R   0.358292 0.124643 0.522326 -0.218865
C21   C     C_R   0.346025 0.017034 0.528491 -0.212529
C22   C     C_R   0.946106 0.589088 0.601036 0.037002
C23   C     C_R   0.480964 0.299421 0.494527 0.824898
C24   C     C_R   0.826759 0.579982 0.593432 0.323328
C25   C     C_R   0.859897 0.464728 0.453507 -0.040955
C26   C     C_R   0.979816 0.469451 0.461272 0.018447
C27   C     C_R   0.022968 0.532956 0.535584 0.023058
C28   C     C_R   0.142263 0.537798 0.543652 0.053444
C29   C     C_R   0.175441 0.418692 0.408613 0.082022
C30   C     C_R   0.057768 0.411983 0.397210 -0.309216
C31   C     C_R   0.563401 0.503926 0.304398 0.791728
C32   C     C_R   0.715999 0.423420 0.045791 -0.183606
C33   C     C_R   0.598540 0.495490 0.193560 -0.045073
C34   C     C_R   0.298192 0.539021 0.850053 -0.181742
C35   C     C_R   0.274419 0.565949 0.952036 -0.147406
C36   C     C_R   0.351631 0.550733 0.012609 -0.170756
Cu1   Cu    Cu3+1 0.386470 0.492430 0.492410 0.939691
Cu2   Cu    Cu3+1 0.613530 0.507570 0.507590 0.935607
H1    H     H_    0.760575 0.435910 0.191702 0.143759
H2    H     H_    0.279161 0.160219 0.544285 0.168274
H3    H     H_    0.750882 0.023262 0.425575 0.171350
H4    H     H_    0.257935 0.971470 0.553721 0.145553
H5    H     H_    0.727371 0.836121 0.445188 0.161892
H6    H     H_    0.346519 0.815316 0.540021 0.150956
H7    H     H_    0.177206 0.586696 0.599891 0.150366
H8    H     H_    0.234750 0.374081 0.358902 0.129637
H9    H     H_    0.028098 0.362052 0.339087 0.141057
H10   H     H_    0.707764 0.343291 0.865715 0.151105
H11   H     H_    0.826940 0.416827 0.395696 0.130790
H12   H     H_    0.791286 0.385574 0.012585 0.134780
H13   H     H_    0.446888 0.553170 0.174199 0.144845
H14   H     H_    0.241977 0.560034 0.802850 0.152889
H15   H     H_    0.329832 0.578901 0.089360 0.126126
H16   H     H_    0.198586 0.603683 0.983264 0.141223
N1    N     N_R   0.215880 0.481050 0.481000 -0.192950
N2    N     N_R   0.784100 0.518950 0.519000 -0.198180
O1    O     O_R   0.419710 0.645650 0.494620 -0.586592
O2    O     O_R   0.611450 0.658430 0.507430 -0.599519
O3    O     O_R   0.357340 0.490460 0.641450 -0.585955
O4    O     O_R   0.549080 0.503250 0.654260 -0.585665
O5    O     O_R   0.388550 0.341570 0.492570 -0.591014
O6    O     O_R   0.580290 0.354350 0.505380 -0.576507
O7    O     O_R   0.450920 0.496750 0.345740 -0.588978
O8    O     O_R   0.642660 0.509540 0.358550 -0.589757
N3    N     N_3   0.988261 0.653658 0.677948 -0.628244
H17   H     H_    0.937780 0.626430 0.749593 0.238349
H18   H     H_    0.975189 0.729769 0.667743 0.238589
N4    N     N_3   0.752407 0.633239 0.669812 -0.615117
H19   H     H_    0.702112 0.581550 0.727337 0.244667
H20   H     H_    0.702860 0.678045 0.639956 0.261102
C37   C     C_1   0.544131 0.319945 0.761321 0.268215
N5    N     N_1   0.536087 0.255616 0.701126 -0.295610
N6    N     N_3   0.689745 0.196127 0.420830 -0.626485
H21   H     H_    0.721279 0.238295 0.479086 0.254422
H22   H     H_    0.685200 0.246027 0.362879 0.216339

loop_
_geom_bond_atom_site_label_1
_geom_bond_atom_site_label_2
_ccdc_geom_bond_type
N6    H21   S    
C14   C18   A    
C35   C36   A    
C25   N2    A    
C4    C8    A    
C11   C19   A    
C26   C27   A    
C29   C30   A    
C6    H10   S    
C18   C19   A    
C3    C7    A    
C7    C37   S    
C5    C6    A    
C20   H2    S    
C9    H1    S    
C34   C35   A    
C36   H15   S    
C9    C32   A    
Cu2   O2    S    
C12   O3    A    
C23   O6    A    
C16   C17   A    
N3    H18   S    
C31   C33   S    
C16   H6    S    
C5    C32   A    
C35   H16   S    
C9    C33   A    
N6    H22   S    
Cu1   O7    S    
C28   N1    A    
Cu2   O8    S    
C11   C20   A    
C28   H7    S    
C31   O7    A    
C30   H9    S    
C19   N6    S    
N4    H19   S    
C29   N1    A    
C25   C26   A    
C17   C21   A    
C12   O4    A    
C2    C4    A    
C22   N3    S    
Cu1   Cu2   S    
C1    O1    A    
C17   C18   A    
C10   C34   A    
C8    H13   S    
C32   H12   S    
Cu1   O3    S    
C10   C12   S    
C14   H3    S    
Cu2   O4    S    
C26   C30   A    
C22   C27   A    
C13   C15   A    
C22   C24   A    
C1    C13   S    
C2    C36   A    
C31   O8    A    
C4    C5    A    
Cu1   O5    S    
C6    C7    A    
C24   N2    A    
C34   H14   S    
C29   H8    S    
C2    C3    A    
C15   H5    S    
C37   N5    T    
C3    C10   A    
C1    O2    A    
C11   C23   S    
C8    C33   A    
C25   H11   S    
C24   N4    S    
C21   H4    S    
Cu1   N1    S    
C23   O5    A    
Cu2   N2    S    
C20   C21   A    
N4    H20   S    
N3    H17   S    
C13   C16   A    
C27   C28   A    
C14   C15   A    
Cu1   O1    S    
Cu2   O6    S    
