data_mof_unit_21243.cif
_audit_creation_date              2013-03-05T16:04:52-0500
_audit_creation_method            fapswitch 2.2
_symmetry_space_group_name_H-M    P1
_symmetry_Int_Tables_number       1
_space_group_crystal_system       triclinic
_cell_length_a                    8.382689
_cell_length_b                    14.334567
_cell_length_c                    18.764085
_cell_angle_alpha                 97.587832
_cell_angle_beta                  91.36283
_cell_angle_gamma                 92.456428
_cell_volume                      2231.94992481

loop_
_atom_site_label
_atom_site_type_symbol
_atom_site_description
_atom_site_fract_x
_atom_site_fract_y
_atom_site_fract_z
_atom_type_partial_charge
P1    P     P_3+3 0.061800 0.409390 0.339760 0.508369
O1    O     O_2   0.887710 0.436190 0.327560 -0.381112
O2    O     O_3   0.135370 0.443490 0.416520 -0.323896
O3    O     O_3   0.634420 0.609440 0.364670 -0.346289
O4    O     O_2   0.769765 0.543137 0.243548 -0.356765
O5    O     O_3   0.067942 0.285627 0.327091 -0.626649
O6    O     O_3   0.650482 0.707277 0.244338 -0.460653
H1    H     H_    0.644427 0.782481 0.346183 0.110889
C1    C     C_3   0.575782 0.867738 0.266035 -0.834514
H2    H     H_    0.699639 0.897541 0.264031 0.298614
H3    H     H_    0.518247 0.859792 0.211504 0.270250
P2    P     P_3+3 0.622760 0.718740 0.547830 0.554484
P3    P     P_3+3 0.069585 0.781578 0.396556 0.552648
O7    O     O_2   0.795290 0.730930 0.525800 -0.364625
O8    O     O_3   0.044470 0.660110 0.398750 -0.265060
O9    O     O_2   0.957257 0.828684 0.452964 -0.411537
O10   O     O_3   0.608142 0.780767 0.635495 -0.569430
O11   O     O_3   0.989343 0.809844 0.315079 -0.518257
C2    C     C_3   0.111450 0.816394 0.265499 1.002173
H4    H     H_    0.222135 0.852098 0.291159 -0.352569
C3    C     C_3   0.059310 0.876122 0.207946 0.041734
H5    H     H_    0.022385 0.945599 0.234105 0.119617
C4    C     C_3   0.176685 0.743786 0.602588 0.461049
H6    H     H_    0.285825 0.714395 0.578554 0.063072
H7    H     H_    0.072665 0.722372 0.565846 0.144424
C5    C     C_3   0.193555 0.850757 0.613084 -0.796340
H8    H     H_    0.311726 0.873572 0.638485 0.313130
H9    H     H_    0.184079 0.878278 0.560915 0.194614
H10   H     H_    0.097839 0.880913 0.647764 0.294424
Ba1   Ba    Ba6+2 0.843240 0.541620 0.463500 1.690059
C6    C     C_3   0.924252 0.237287 0.338768 0.305419
H11   H     H_    0.850345 0.280868 0.376799 0.099601
C7    C     C_3   0.834677 0.207509 0.266231 -0.797952
H12   H     H_    0.769383 0.266854 0.249885 0.218708
H13   H     H_    0.745640 0.148912 0.269208 0.249882
H14   H     H_    0.918347 0.182595 0.223843 0.283338
C8    C     C_3   0.629617 0.728502 0.692291 0.579850
H15   H     H_    0.559763 0.660368 0.683936 0.017086
C9    C     C_3   0.588935 0.788022 0.763788 0.606854
H16   H     H_    0.625448 0.750742 0.809299 0.007730
P4    P     P_3+3 0.127890 0.590690 0.660240 0.576053
O12   O     O_2   0.301980 0.563840 0.672490 -0.396130
O13   O     O_3   0.054330 0.556590 0.583490 -0.352956
O14   O     O_3   0.555270 0.390630 0.635330 -0.331183
O15   O     O_3   0.154889 0.713443 0.669771 -0.457407
P5    P     P_3+3 0.128885 0.219874 0.610451 0.575244
O16   O     O_3   0.637720 0.384870 0.467990 -0.296181
O17   O     O_3   0.145220 0.339960 0.601250 -0.293942
O18   O     O_2   0.262557 0.173731 0.564649 -0.322439
O19   O     O_3   0.189977 0.210696 0.699200 -0.452780
Ba2   Ba    Ba6+2 0.346570 0.458460 0.536510 1.689309
P6    P     P_3+3 0.621335 0.595191 0.270911 0.526566
C10   C     C_3   0.576758 0.772788 0.293875 0.475525
H17   H     H_    0.451129 0.749512 0.301642 0.070292
H18   H     H_    0.508194 0.917791 0.302642 0.203336
O20   O     O_3   0.551980 0.615210 0.532020 -0.316663
C11   C     C_3   0.461254 0.270185 0.321161 0.269377
H19   H     H_    0.364935 0.304127 0.353026 0.125464
H20   H     H_    0.531873 0.326317 0.298845 0.074196
C12   C     C_3   0.385727 0.198525 0.260474 -0.646991
H21   H     H_    0.290080 0.155495 0.282632 0.198449
H22   H     H_    0.476506 0.149493 0.238227 0.195825
P7    P     P_3+3 0.573037 0.265474 0.452485 0.475762
O21   O     O_2   0.394410 0.269100 0.474240 -0.364037
O22   O     O_3   0.565505 0.221427 0.361107 -0.605222
H23   H     H_    0.161788 0.888602 0.173392 0.108849
C13   C     C_3   0.054111 0.205670 0.741101 0.199772
H24   H     H_    0.981736 0.268029 0.736957 0.088085
H25   H     H_    0.982919 0.139375 0.722468 0.070552
C14   C     C_3   0.102246 0.207462 0.821014 -0.610180
H26   H     H_    0.148426 0.280194 0.841854 0.170023
P8    P     P_3+3 0.572039 0.401005 0.728853 0.508370
C15   C     C_3   0.609488 0.223643 0.698767 0.375163
H27   H     H_    0.735760 0.246098 0.692809 -0.062289
O23   O     O_2   0.426119 0.454489 0.757874 -0.394292
O24   O     O_3   0.538848 0.286808 0.751388 -0.479644
H28   H     H_    0.545839 0.221730 0.645969 0.143686
H29   H     H_    0.714744 0.088342 0.701095 0.095117
C16   C     C_3   0.605813 0.124130 0.719772 0.054754
H30   H     H_    0.601954 0.125460 0.778848 0.211184
C17   C     C_R   0.004042 0.458470 0.049995 0.032586
C18   C     C_R   0.911897 0.415869 0.099377 0.048421
C19   C     C_R   0.758311 0.378220 0.078666 -0.260729
C20   C     C_R   0.694227 0.383443 0.009837 0.450807
C21   C     C_R   0.785548 0.425658 0.959390 -0.025311
C22   C     C_R   0.941658 0.462530 0.979439 -0.020279
C23   C     C_R   0.725816 0.429498 0.889073 -0.084736
C24   C     C_R   0.820863 0.464816 0.836960 -0.036536
C25   C     C_R   0.976188 0.504329 0.857480 0.009236
C26   C     C_R   0.035519 0.503162 0.929094 0.028025
C27   C     C_R   0.765612 0.460865 0.764633 0.134174
C28   C     C_R   0.863368 0.498772 0.715174 -0.376563
C29   C     C_R   0.015803 0.540015 0.733793 0.313550
C30   C     C_R   0.072557 0.544680 0.806719 -0.061463
C31   C     C_R   0.158799 0.495937 0.070994 0.042875
C32   C     C_R   0.219273 0.493599 0.142380 0.044849
C33   C     C_R   0.122340 0.454332 0.193460 -0.010594
C34   C     C_R   0.972898 0.411977 0.169194 -0.033782
H31   H     H_    0.687705 0.344755 0.116396 0.208999
H32   H     H_    0.816512 0.500441 0.661358 0.215341
H33   H     H_    0.605870 0.402407 0.874352 0.216593
H34   H     H_    0.900412 0.376868 0.204442 0.147530
C35   C     C_R   0.222084 0.587811 0.830883 -0.065530
C36   C     C_R   0.283425 0.583138 0.900643 0.105556
C37   C     C_R   0.190201 0.540905 0.950124 0.020982
C38   C     C_R   0.251970 0.536994 0.020800 0.074246
C39   C     C_R   0.438497 0.619030 0.921379 -0.133922
C40   C     C_R   0.500166 0.614112 0.990625 -0.161429
C41   C     C_R   0.407480 0.573929 0.040984 0.137406
C42   C     C_R   0.375377 0.531962 0.162663 0.026523
C43   C     C_R   0.468443 0.570327 0.110932 -0.186237
C44   C     C_R   0.431971 0.532429 0.234525 0.196073
C45   C     C_R   0.335358 0.492835 0.283836 -0.409470
C46   C     C_R   0.178939 0.457902 0.266505 0.263757
H35   H     H_    0.294854 0.623588 0.795584 0.177390
H36   H     H_    0.513175 0.649915 0.883684 0.131762
H37   H     H_    0.620617 0.641977 0.004824 0.167070
H38   H     H_    0.589149 0.597740 0.124322 0.188362
H39   H     H_    0.383800 0.488319 0.336988 0.187384
C47   C     C_R   0.703835 0.936370 0.534368 0.024100
C48   C     C_R   0.522313 0.796260 0.489852 0.152890
C49   C     C_R   0.383699 0.761415 0.449492 0.038610
C50   C     C_R   0.275953 0.823345 0.424990 0.133986
C51   C     C_R   0.317619 0.918985 0.430825 -0.348561
C52   C     C_R   0.463547 0.954493 0.463427 0.051679
C53   C     C_R   0.564893 0.894797 0.496155 -0.065446
C54   C     C_R   0.643806 0.090985 0.502592 -0.034863
C55   C     C_R   0.745773 0.032828 0.536458 0.077813
C56   C     C_R   0.683055 0.188427 0.506998 0.090922
C57   C     C_R   0.818813 0.226611 0.547656 0.078689
C58   C     C_R   0.928557 0.168395 0.575653 0.140232
C59   C     C_R   0.890487 0.071466 0.570536 -0.321408
C60   C     C_R   0.503990 0.050491 0.466288 -0.036146
H40   H     H_    0.234247 0.965999 0.410940 0.203591
H41   H     H_    0.973685 0.026457 0.592824 0.176482
H42   H     H_    0.782080 0.895296 0.562784 0.176668
H43   H     H_    0.422907 0.093089 0.440516 0.176725
C61   C     C_2   0.968076 0.151801 0.373494 0.922923
O25   O     O_2   0.916340 0.072574 0.349457 -0.620541
O26   O     O_R   0.072552 0.162375 0.433066 -0.772703
H44   H     H_    0.101378 0.230960 0.450700 0.324350
Cl1   Cl    Cl    0.832077 0.711427 0.701158 -0.665564
Cl2   Cl    Cl    0.692397 0.901205 0.775548 -0.481512
Cl3   Cl    Cl    0.382914 0.807253 0.772432 -0.594251
C62   C     C_2   0.321001 0.244325 0.199423 1.073672
O27   O     O_2   0.181943 0.228797 0.178932 -0.626665
O28   O     O_R   0.422209 0.301187 0.163889 -0.828681
H45   H     H_    0.365843 0.324873 0.121998 0.354833
C63   C     C_2   0.957446 0.185957 0.863790 1.002160
O29   O     O_2   0.958885 0.125146 0.903867 -0.539349
O30   O     O_R   0.820615 0.236526 0.857443 -0.818846
H46   H     H_    0.731444 0.216347 0.888453 0.373707
C64   C     C_2   0.231375 0.139597 0.830558 1.282887
O31   O     O_2   0.359155 0.168753 0.859652 -0.578874
O32   O     O_R   0.203047 0.043371 0.807569 -0.708605
H47   H     H_    0.297404 0.005096 0.818387 0.387529
Cl4   Cl    Cl    0.439956 0.054821 0.677942 -0.574331
Cl5   Cl    Cl    0.155515 0.701822 0.224478 -0.648026
Cl6   Cl    Cl    0.500276 0.333560 0.988544 -0.653384
Cl7   Cl    Cl    0.342694 0.639896 0.430586 -0.593133
Cl8   Cl    Cl    0.846812 0.348865 0.566284 -0.606146
Cl9   Cl    Cl    0.897942 0.821011 0.151516 -0.511318

loop_
_geom_bond_atom_site_label_1
_geom_bond_atom_site_label_2
_geom_bond_distance
_ccdc_geom_bond_type
Ba1   Ba2   4.572652 S    
P7    O22   1.745877 S    
C60   H43   1.080106 S    
C29   C30   1.430191 A    
C4    O15   1.400269 S    
C3    H23   1.110989 S    
C14   C64   1.509037 S    
P4    O13   1.561790 S    
P4    O12   1.544734 D    
C31   C32   1.425948 A    
P8    O24   1.756472 S    
C17   C18   1.403996 A    
C50   C51   1.389602 A    
C21   C22   1.413567 A    
P5    O18   1.546260 D    
C28   H32   1.078370 S    
C5    H8    1.106342 S    
C16   H30   1.107416 S    
P3    O11   1.758401 S    
O3    P6    1.744392 S    
C43   H38   1.081249 S    
C2    C3    1.531052 S    
O6    P6    1.753148 S    
O11   C2    1.407904 S    
C63   O30   1.393868 S    
O16   P7    1.757634 S    
C17   C31   1.409506 A    
C47   C53   1.419055 A    
C11   H20   1.110474 S    
O6    C10   1.405109 S    
P6    C44   1.859870 S    
C7    H14   1.106832 S    
C40   C41   1.403086 A    
C12   H22   1.109424 S    
P1    O1    1.544365 D    
C15   H27   1.105647 S    
C4    C5    1.519994 S    
C25   C30   1.427030 A    
C42   C43   1.411920 A    
C28   C29   1.401379 A    
C23   H33   1.078459 S    
O17   Ba2   2.758020 S    
P4    C29   1.892949 S    
P2    C48   1.866331 S    
O28   H45   1.011411 S    
P2    O10   1.773169 S    
O30   H46   1.013703 S    
C6    C7    1.539169 S    
O4    P6    1.541864 D    
C14   H26   1.113689 S    
C1    H18   1.109426 S    
C64   O32   1.398205 S    
O19   C13   1.403924 S    
C47   H42   1.077284 S    
C17   C22   1.421140 A    
O12   Ba2   2.829803 S    
C4    H7    1.105637 S    
O5    C6    1.400043 S    
C64   O31   1.222128 D    
C19   H31   1.080251 S    
C3    H5    1.110469 S    
C9    Cl3   1.768381 S    
C18   C34   1.403835 A    
C14   C63   1.514013 S    
O7    Ba1   2.858364 S    
P8    O23   1.543499 D    
C55   C59   1.413943 A    
C36   C37   1.407709 A    
C62   O28   1.392803 S    
C20   Cl6   1.763029 S    
C33   C34   1.407098 A    
C21   C23   1.408833 A    
P5    O17   1.752455 S    
O32   H47   1.013325 S    
C8    Cl1   1.732306 S    
C13   H24   1.111650 S    
C54   C60   1.404971 A    
Ba1   O16   2.783703 S    
O26   H44   1.012094 S    
C22   C26   1.411416 A    
C11   O22   1.404845 S    
P5    C58   1.872234 S    
P8    C27   1.869959 S    
O2    Ba2   2.810683 S    
H29   C16   1.108012 S    
C11   C12   1.534194 S    
O16   Ba2   2.955375 S    
C10   H17   1.109790 S    
C32   C42   1.420906 A    
P1    O5    1.761694 S    
C12   H21   1.112366 S    
C13   H25   1.111394 S    
O2    Ba1   2.970361 S    
C35   H35   1.075153 S    
C54   C56   1.412419 A    
C8    H15   1.107940 S    
C31   C38   1.409061 A    
C19   C20   1.399345 A    
C24   C27   1.416734 A    
C4    H6    1.104714 S    
C32   C33   1.426920 A    
C7    H12   1.103709 S    
C15   C16   1.528538 S    
C45   H39   1.078807 S    
P4    O15   1.749361 S    
C20   C21   1.412181 A    
C6    C61   1.516325 S    
C1    H3    1.110672 S    
C48   C49   1.407710 A    
P2    O20   1.562803 S    
C61   O26   1.391694 S    
C5    H10   1.111027 S    
C57   Cl8   1.745699 S    
C9    Cl2   1.791334 S    
C30   C35   1.411180 A    
P3    O8    1.750914 S    
C52   C53   1.416839 A    
C15   O24   1.408210 S    
Ba1   O13   2.810123 S    
C1    C10   1.521180 S    
P1    C46   1.896129 S    
O10   C8    1.393824 S    
C39   C40   1.398526 A    
C54   C55   1.415819 A    
C62   O27   1.220666 D    
C27   C28   1.399735 A    
O14   Ba2   2.812824 S    
O8    Ba1   2.757431 S    
C45   C46   1.398646 A    
C1    H2    1.109041 S    
C52   C60   1.396802 A    
C15   H28   1.110565 S    
C3    Cl9   1.787294 S    
P2    Ba1   3.441855 S    
C2    Cl5   1.777031 S    
C40   H37   1.083770 S    
C6    H11   1.104453 S    
Ba2   O21   2.858672 S    
Ba2   O20   2.783164 S    
C26   C37   1.410273 A    
P2    O7    1.522807 D    
H1    C10   1.111380 S    
C16   Cl4   1.777609 S    
C47   C55   1.407233 A    
C33   C46   1.433454 A    
C37   C38   1.421058 A    
P5    O19   1.753822 S    
C5    H9    1.105050 S    
C51   H40   1.084537 S    
O1    Ba1   2.829301 S    
C13   C14   1.540173 S    
C2    H4    1.107982 S    
C41   C43   1.405265 A    
C57   C58   1.406156 A    
C56   C57   1.404175 A    
C48   C53   1.430800 A    
C8    C9    1.545476 S    
C34   H34   1.068053 S    
C63   O29   1.224379 D    
O13   Ba2   2.971148 S    
C11   H19   1.107224 S    
Ba1   O20   2.956159 S    
C59   H41   1.083285 S    
P3    C50   1.848974 S    
P1    Ba1   3.417346 S    
C7    H13   1.107407 S    
O14   P8    1.743274 S    
C44   C45   1.403243 A    
P7    C56   1.859413 S    
C42   C44   1.417845 A    
C39   H36   1.080822 S    
C61   O25   1.222485 D    
P7    O21   1.562568 D    
C9    H16   1.109350 S    
C24   C25   1.421168 A    
C23   C24   1.407313 A    
C18   C19   1.400383 A    
C12   C62   1.495761 S    
P3    O9    1.541447 D    
C35   C36   1.405851 A    
C49   C50   1.404281 A    
C49   Cl7   1.748711 S    
P1    O2    1.561985 S    
C25   C26   1.424155 A    
P4    Ba2   3.417809 S    
C36   C39   1.404148 A    
O3    Ba1   2.813514 S    
C58   C59   1.402454 A    
C51   C52   1.399463 A    
C38   C41   1.409793 A    
