data_mof_unit_49894.cif
_audit_creation_date              2012-12-10T17:03:28-0500
_audit_creation_method            fapswitch 2.2
_symmetry_space_group_name_H-M    P1
_symmetry_Int_Tables_number       1
_space_group_crystal_system       triclinic
_cell_length_a                    14.967224
_cell_length_b                    11.046819
_cell_length_c                    9.878886
_cell_angle_alpha                 112.293084
_cell_angle_beta                  98.744144
_cell_angle_gamma                 90.673278
_cell_volume                      1489.41569137

loop_
_atom_site_label
_atom_site_type_symbol
_atom_type_description
_atom_site_fract_x
_atom_site_fract_y
_atom_site_fract_z
_atom_type_partial_charge
C1    C     C_R   0.494209 0.252988 0.438834 0.854937
C2    C     C_R   0.506294 0.746868 0.561134 0.850937
C3    C     C_R   0.044175 0.291063 0.528867 0.184601
C4    C     C_R   0.966601 0.751591 0.583235 0.175191
C5    C     C_2   0.494053 0.111132 0.401735 0.017948
C6    C     C_2   0.509478 0.888571 0.598385 0.024110
C7    C     C_2   0.517904 0.070199 0.513277 -0.150608
C8    C     C_2   0.518181 0.931455 0.490296 -0.172342
C9    C     C_2   0.507516 0.509394 0.081421 0.006727
C10   C     C_2   0.493573 0.488858 0.918084 0.019263
C11   C     C_R   0.329057 0.501401 0.500924 0.902244
C12   C     C_R   0.671096 0.504185 0.500498 0.899414
C13   C     C_R   0.819542 0.633574 0.567337 0.057714
C14   C     C_R   0.182152 0.387533 0.482337 0.055497
C15   C     C_R   0.768207 0.511639 0.502950 -0.167470
C16   C     C_R   0.232505 0.503209 0.503925 -0.165160
C17   C     C_R   0.810235 0.394285 0.455456 0.356161
C18   C     C_R   0.192663 0.622313 0.532527 0.363905
C19   C     C_R   0.904709 0.397741 0.499674 -0.041805
C20   C     C_R   0.102602 0.631434 0.560740 -0.039422
C21   C     C_R   0.956683 0.516896 0.535247 -0.091474
C22   C     C_R   0.050851 0.514922 0.537455 -0.092792
C23   C     C_R   0.913584 0.635748 0.560346 0.077814
C24   C     C_R   0.092720 0.395532 0.513912 0.074974
C25   C     C_R   0.948439 0.288670 0.513472 0.153097
C26   C     C_R   0.061687 0.752268 0.605549 0.150192
Cu1   Cu    Cu3+1 0.515770 0.521810 0.644910 0.946635
Cu2   Cu    Cu3+1 0.484230 0.478190 0.355090 0.924587
H1    H     H_    0.524132 0.861532 0.380315 0.161460
H2    H     H_    0.536339 0.141530 0.626352 0.167425
H3    H     H_    0.442229 0.414918 0.840986 0.135745
H4    H     H_    0.559881 0.581767 0.158162 0.133756
N1    N     N_2   0.460520 0.445420 0.137370 -0.138088
N2    N     N_2   0.539480 0.554580 0.862630 -0.132454
O1    O     O_R   0.508410 0.332340 0.577400 -0.606118
O2    O     O_R   0.491590 0.667660 0.422600 -0.616477
O3    O     O_R   0.481780 0.295500 0.332650 -0.569722
O4    O     O_R   0.518220 0.704500 0.667350 -0.571004
O5    O     O_R   0.383570 0.518390 0.622380 -0.579334
O6    O     O_R   0.616430 0.481610 0.377620 -0.590148
O7    O     O_R   0.356940 0.481550 0.377630 -0.595670
O8    O     O_R   0.643060 0.518450 0.622370 -0.576604
C27   C     C_3   0.774722 0.754827 0.654678 -0.861614
H5    H     H_    0.734325 0.733317 0.728985 0.230857
H6    H     H_    0.824454 0.835395 0.731482 0.245038
H7    H     H_    0.729111 0.788204 0.578223 0.219285
C28   C     C_3   0.220182 0.257507 0.401572 -0.876101
H8    H     H_    0.247693 0.260831 0.304660 0.227362
H9    H     H_    0.275958 0.237690 0.476603 0.222865
H10   H     H_    0.167592 0.174364 0.354301 0.246661
O9    O     O_3   0.756731 0.277824 0.376524 -0.623625
C29   C     C_3   0.775650 0.220411 0.230048 0.058853
H11   H     H_    0.759187 0.112916 0.189929 0.162214
H12   H     H_    0.848587 0.233581 0.223106 0.134635
C30   C     C_3   0.716110 0.272750 0.126841 -0.326367
H13   H     H_    0.643478 0.250936 0.127366 0.245507
H14   H     H_    0.729729 0.380825 0.166974 0.216908
C31   C     C_3   0.734910 0.210503 0.968176 -0.952488
H15   H     H_    0.806109 0.236601 0.964259 0.260121
H16   H     H_    0.688924 0.247297 0.895391 0.263554
H17   H     H_    0.723240 0.102010 0.925478 0.256052
O10   O     O_3   0.242643 0.726536 0.526306 -0.618463
C32   C     C_3   0.208179 0.750257 0.396996 0.034833
H18   H     H_    0.223762 0.856102 0.423052 0.170429
H19   H     H_    0.133174 0.731590 0.363577 0.137883
C33   C     C_3   0.253935 0.670656 0.265639 -0.327713
H20   H     H_    0.328623 0.687972 0.299325 0.260582
H21   H     H_    0.234158 0.564613 0.230720 0.224201
C34   C     C_3   0.226040 0.709366 0.133274 -0.938824
H22   H     H_    0.151541 0.691350 0.095523 0.259611
H23   H     H_    0.260326 0.649748 0.040246 0.264244
H24   H     H_    0.246148 0.814711 0.163690 0.255119
C35   C     C_3   0.895310 0.176080 0.525827 -0.803007
H25   H     H_    0.826390 0.199293 0.550124 0.267693
H26   H     H_    0.891413 0.087227 0.422311 0.224912
H27   H     H_    0.926739 0.153633 0.621414 0.218378
C36   C     C_3   0.117049 0.882741 0.686943 -0.800523
H28   H     H_    0.125246 0.931909 0.610094 0.225654
H29   H     H_    0.082605 0.948367 0.776386 0.216067
H30   H     H_    0.184312 0.871104 0.743697 0.261123
C37   C     C_3   0.093518 0.193669 0.582233 -0.891000
H31   H     H_    0.071944 0.196374 0.685748 0.230807
H32   H     H_    0.079556 0.092991 0.495464 0.226356
H33   H     H_    0.167477 0.218313 0.615492 0.246652
C38   C     C_3   0.925464 0.867355 0.557431 -0.894538
H34   H     H_    0.966410 0.901286 0.491963 0.230305
H35   H     H_    0.856764 0.840649 0.489539 0.248742
H36   H     H_    0.924149 0.950072 0.664706 0.233944
C39   C     C_3   0.499153 0.981007 0.753176 -0.864271
H37   H     H_    0.487783 0.927645 0.824989 0.250805
H38   H     H_    0.561252 0.047972 0.806924 0.232497
H39   H     H_    0.439908 0.039473 0.747184 0.233904
C40   C     C_3   0.466746 0.015745 0.242141 -0.871110
H40   H     H_    0.444304 0.066290 0.166312 0.244218
H41   H     H_    0.525235 0.959648 0.203261 0.230160
H42   H     H_    0.409510 0.946785 0.233373 0.237668
C41   C     C_3   0.608280 0.656866 0.958645 -0.549276
H43   H     H_    0.638122 0.702742 0.892120 0.220809
H44   H     H_    0.577928 0.734744 0.044167 0.159244
H45   H     H_    0.663624 0.614932 0.011562 0.166663
C42   C     C_3   0.389618 0.346026 0.042526 -0.563462
H46   H     H_    0.358136 0.302814 0.110120 0.224873
H47   H     H_    0.335811 0.390159 0.989501 0.170457
H48   H     H_    0.418342 0.265696 0.957175 0.165991

loop_
_geom_bond_atom_site_label_1
_geom_bond_atom_site_label_2
_ccdc_geom_bond_type
C33   H21   S    
C30   H13   S    
C32   H19   S    
C40   H40   S    
C35   H25   S    
C13   C27   S    
C17   O9    S    
C41   H43   S    
C7    C8    S    
C28   H9    S    
C38   H34   S    
C42   H46   S    
N1    C42   S    
C8    H1    S    
C22   C24   A    
C19   C21   A    
C38   H36   S    
C33   C34   S    
Cu2   O6    S    
Cu1   O4    S    
C31   H16   S    
Cu2   O7    S    
N2    C41   S    
C13   C23   A    
C14   C24   A    
C34   H23   S    
C12   O8    A    
C9    H4    S    
C41   H44   S    
C10   H3    S    
Cu1   O5    S    
C3    C37   S    
C39   H38   S    
C9    C10   S    
C25   C35   S    
C29   C30   S    
C1    O3    A    
C31   H17   S    
C36   H29   S    
C33   H20   S    
C32   C33   S    
C42   H47   S    
C7    H2    S    
C21   C22   A    
C9    N1    D    
C35   H26   S    
C3    C24   A    
C2    C6    S    
C37   H32   S    
C29   H12   S    
C37   H31   S    
C28   H10   S    
C38   H35   S    
Cu1   N2    S    
C26   C36   S    
O9    C29   S    
C3    C25   A    
C5    C7    D    
C4    C23   A    
C18   O10   S    
C6    C8    D    
C4    C38   S    
Cu1   O1    S    
C31   H15   S    
C36   H28   S    
C12   O6    A    
C34   H24   S    
C27   H5    S    
O10   C32   S    
C11   C16   S    
C2    O4    A    
C4    C26   A    
C28   H8    S    
C12   C15   S    
C10   N2    D    
C30   H14   S    
C39   H39   S    
C11   O5    A    
C27   H6    S    
C16   C18   A    
C20   C22   A    
Cu2   N1    S    
C42   H48   S    
C13   C15   A    
C35   H27   S    
C14   C16   A    
C1    C5    S    
C37   H33   S    
C29   H11   S    
C1    O1    A    
C36   H30   S    
C2    O2    A    
C15   C17   A    
C41   H45   S    
C5    C40   S    
C14   C28   S    
C40   H42   S    
C6    C39   S    
C21   C23   A    
Cu1   O8    S    
C20   C26   A    
Cu2   O3    S    
C17   C19   A    
C11   O7    A    
C18   C20   A    
C34   H22   S    
C19   C25   A    
C27   H7    S    
C32   H18   S    
Cu2   O2    S    
C40   H41   S    
C30   C31   S    
Cu1   Cu2   S    
C39   H37   S    
