data_mof_unit_52417.cif
_audit_creation_date              2012-12-10T17:31:16-0500
_audit_creation_method            fapswitch 2.2
_symmetry_space_group_name_H-M    P1
_symmetry_Int_Tables_number       1
_space_group_crystal_system       triclinic
_cell_length_a                    11.999919
_cell_length_b                    12.922787
_cell_length_c                    15.160213
_cell_angle_alpha                 87.388825
_cell_angle_beta                  114.32297
_cell_angle_gamma                 92.993183
_cell_volume                      2138.58793128

loop_
_atom_site_label
_atom_site_type_symbol
_atom_type_description
_atom_site_fract_x
_atom_site_fract_y
_atom_site_fract_z
_atom_type_partial_charge
C1    C     C_R   0.477428 0.299646 0.498098 0.903997
C2    C     C_R   0.648467 0.968555 0.493359 0.116689
C3    C     C_R   0.358556 0.139038 0.497559 -0.231054
C4    C     C_R   0.638282 0.861090 0.496417 -0.231643
C5    C     C_R   0.557888 0.132672 0.493434 -0.294156
C6    C     C_R   0.440274 0.867452 0.503150 -0.293062
C7    C     C_R   0.551223 0.025675 0.494769 0.124320
C8    C     C_R   0.445303 0.974409 0.498848 0.123719
C9    C     C_R   0.033133 0.629223 0.457517 -0.208019
C10   C     C_R   0.970643 0.372739 0.548504 -0.330304
C11   C     C_R   0.146377 0.612909 0.454791 0.047719
C12   C     C_R   0.522362 0.700375 0.501485 0.897245
C13   C     C_R   0.855471 0.388148 0.548272 0.021694
C14   C     C_R   0.145085 0.440352 0.514286 -0.034391
C15   C     C_R   0.856124 0.560264 0.487590 -0.010660
C16   C     C_R   0.575154 0.495620 0.681058 0.880650
C17   C     C_R   0.425514 0.509736 0.319006 0.885318
C18   C     C_R   0.029738 0.452815 0.516691 0.090156
C19   C     C_R   0.972687 0.548426 0.487201 0.114140
C20   C     C_R   0.622482 0.508751 0.785660 -0.066262
C21   C     C_R   0.386087 0.544036 0.217236 -0.066717
C22   C     C_R   0.790593 0.517267 0.944832 0.022826
C23   C     C_R   0.669207 0.614862 0.115582 -0.030638
C24   C     C_R   0.243390 0.635563 0.073903 -0.003240
C25   C     C_R   0.746242 0.497996 0.845853 -0.267816
C26   C     C_R   0.271866 0.587561 0.165322 -0.254544
C27   C     C_R   0.542895 0.539965 0.823984 -0.266890
C28   C     C_R   0.473010 0.550786 0.178503 -0.269355
C29   C     C_R   0.586347 0.575052 0.918315 0.057908
C30   C     C_R   0.450251 0.602623 0.090364 0.055223
C31   C     C_R   0.711106 0.559693 0.981260 0.100480
C32   C     C_R   0.330622 0.635550 0.032509 0.110744
C33   C     C_R   0.505280 0.615145 0.954057 -0.023945
C34   C     C_R   0.387765 0.654213 0.894976 -0.040894
C35   C     C_R   0.542159 0.611549 0.054832 -0.026681
C36   C     C_2   0.917639 0.486451 0.005867 0.326889
C37   C     C_2   0.125861 0.689757 0.029676 0.348065
C38   C     C_2   0.716803 0.657497 0.214258 0.366230
C39   C     C_2   0.357569 0.697974 0.795736 0.366147
C40   C     C_3   0.230228 0.982789 0.500382 -0.459158
C41   C     C_3   0.248026 0.951401 0.604015 -0.333185
C42   C     C_3   0.127113 0.914397 0.607622 -0.797316
C43   C     C_3   0.763425 0.017932 0.488189 -0.450189
C44   C     C_3   0.738974 0.056634 0.384867 -0.331681
C45   C     C_R   0.752420 0.589799 0.077536 -0.147838
C46   C     C_3   0.854322 0.106764 0.379970 -0.863781
C47   C     C_R   0.302475 0.664365 0.935339 -0.163309
C48   C     C_R   0.534981 0.811484 0.501089 -0.083271
C49   C     C_R   0.463541 0.188615 0.496040 -0.085456
C50   C     C_R   0.347247 0.031604 0.498629 0.117741
H1    H     H_    0.849106 0.594634 0.123556 0.224458
H2    H     H_    0.807316 0.470398 0.816364 0.154071
H3    H     H_    0.362496 0.826411 0.508349 0.172059
H4    H     H_    0.637222 0.173790 0.491060 0.172839
H5    H     H_    0.710596 0.815922 0.494049 0.156974
H6    H     H_    0.285836 0.184129 0.499336 0.157759
H7    H     H_    0.810043 0.632596 0.462719 0.128054
H8    H     H_    0.191106 0.367959 0.538853 0.121109
H9    H     H_    0.982988 0.483196 0.973527 0.071852
H10   H     H_    0.053915 0.669553 0.053843 0.079725
H11   H     H_    0.655987 0.692897 0.239866 0.074152
H12   H     H_    0.212603 0.690061 0.888383 0.232902
H13   H     H_    0.430173 0.722516 0.773436 0.072267
H14   H     H_    0.060534 0.977236 0.581537 0.235677
H15   H     H_    0.088631 0.845498 0.562103 0.262785
H16   H     H_    0.142329 0.893172 0.683398 0.285959
H17   H     H_    0.314400 0.888554 0.632811 0.236634
H18   H     H_    0.285081 0.019132 0.651594 0.224200
H19   H     H_    0.156055 0.039394 0.470864 0.204333
H20   H     H_    0.196601 0.915909 0.451592 0.197148
H21   H     H_    0.887224 0.173885 0.428528 0.260508
H22   H     H_    0.927408 0.049511 0.401655 0.255200
H23   H     H_    0.810532 0.325310 0.572026 0.133746
H24   H     H_    0.833855 0.134605 0.304704 0.265053
H25   H     H_    0.707679 0.990162 0.335280 0.229891
H26   H     H_    0.665940 0.114145 0.359014 0.228408
H27   H     H_    0.801465 0.081204 0.540796 0.195155
H28   H     H_    0.836336 0.960258 0.510528 0.203802
H29   H     H_    0.191567 0.676010 0.431619 0.127300
H30   H     H_    0.993294 0.704554 0.436490 0.161115
H31   H     H_    0.012554 0.298521 0.572674 0.141929
H32   H     H_    0.559670 0.514341 0.217544 0.172279
H33   H     H_    0.445881 0.535865 0.779285 0.174029
H34   H     H_    0.206676 0.588257 0.197911 0.175788
N1    N     N_R   0.799120 0.480200 0.517090 -0.103916
N2    N     N_R   0.200880 0.519800 0.482910 -0.100708
O1    O     O_R   0.580150 0.341050 0.504560 -0.634954
O2    O     O_2   0.110560 0.762103 0.971784 -0.572543
O3    O     O_2   0.825460 0.656030 0.267382 -0.606544
O4    O     O_2   0.251455 0.706835 0.737782 -0.588271
O5    O     O_R   0.419850 0.658950 0.495440 -0.636911
O6    O     O_R   0.388090 0.353760 0.493600 -0.624966
O7    O     O_R   0.611910 0.646240 0.506400 -0.629243
O8    O     O_R   0.650890 0.490020 0.640860 -0.608438
O9    O     O_R   0.349110 0.509980 0.359140 -0.600667
O10   O     O_R   0.458830 0.502730 0.629890 -0.613246
O11   O     O_R   0.541170 0.497270 0.370110 -0.613969
O12   O     O_2   0.949089 0.458258 0.090357 -0.571829
Zn1   Zn    Zn3+2 0.628240 0.491510 0.507320 0.946629
Zn2   Zn    Zn3+2 0.371760 0.508490 0.492680 0.957976

loop_
_geom_bond_atom_site_label_1
_geom_bond_atom_site_label_2
_ccdc_geom_bond_type
C1    O1    A    
C21   C26   A    
C23   C45   A    
C8    C50   A    
C27   C29   A    
C41   C42   S    
C14   C18   A    
C37   O2    D    
C2    C7    A    
C12   C48   S    
C36   H9    S    
C47   H12   S    
C3    C49   A    
C7    C8    A    
C41   H17   S    
C43   H28   S    
C15   C19   A    
C38   O3    D    
C6    C48   A    
C30   C35   A    
C24   C26   A    
C20   C25   A    
C45   H1    S    
C11   N2    A    
C29   C33   A    
C18   C19   A    
C44   H26   S    
C12   O5    A    
C9    C19   A    
C22   C25   A    
C42   H15   S    
C17   O9    A    
O5    Zn2   S    
N2    Zn2   S    
O7    Zn1   S    
C39   O4    D    
C46   H22   S    
C15   N1    A    
C38   H11   S    
C15   H7    S    
C5    C49   A    
O11   Zn1   S    
C3    C50   A    
C44   C46   S    
C33   C34   A    
C41   H18   S    
O1    Zn1   S    
C14   H8    S    
C16   O10   A    
C22   C31   A    
C28   H32   S    
C34   C39   S    
C5    H4    S    
C14   N2    A    
C40   H19   S    
C5    C7    A    
O9    Zn2   S    
C6    C8    A    
C17   C21   S    
C9    H30   S    
C44   H25   S    
C2    C4    A    
C43   C44   S    
C24   C32   A    
N1    Zn1   S    
C3    H6    S    
C2    C43   S    
C16   C20   S    
C24   C37   S    
C9    C11   A    
C46   H21   S    
C11   H29   S    
C40   C41   S    
C21   C28   A    
C13   H23   S    
C1    O6    A    
C23   C35   A    
C4    H5    S    
C32   C47   A    
C12   O7    A    
C6    H3    S    
C42   H14   S    
C46   H24   S    
C39   H13   S    
O6    Zn2   S    
C4    C48   A    
C26   H34   S    
C10   C13   A    
C20   C27   A    
C43   H27   S    
C23   C38   S    
C22   C36   S    
C40   H20   S    
C10   H31   S    
C16   O8    A    
C27   H33   S    
C25   H2    S    
C29   C31   A    
C30   C32   A    
C17   O11   A    
O8    Zn1   S    
C10   C18   A    
C40   C50   S    
O10   Zn2   S    
C28   C30   A    
C33   C35   A    
C37   H10   S    
C31   C45   A    
C13   N1    A    
C42   H16   S    
C36   O12   D    
C34   C47   A    
C1    C49   S    
