data_mof_unit_16718.cif
_audit_creation_date              2012-12-11T20:48:42-0500
_audit_creation_method            fapswitch 2.2
_symmetry_space_group_name_H-M    P1
_symmetry_Int_Tables_number       1
_space_group_crystal_system       triclinic
_cell_length_a                    8.885172
_cell_length_b                    18.992613
_cell_length_c                    18.745839
_cell_angle_alpha                 102.1491
_cell_angle_beta                  93.331128
_cell_angle_gamma                 92.756198
_cell_volume                      3081.43285629

loop_
_atom_site_label
_atom_site_type_symbol
_atom_type_description
_atom_site_fract_x
_atom_site_fract_y
_atom_site_fract_z
_atom_type_partial_charge
Ba1   Ba    Ba6+2 0.153490 0.533960 0.468530 1.851396
Ba2   Ba    Ba6+2 0.656680 0.466030 0.531410 1.821001
C1    C     C_3   0.430198 0.776765 0.245595 0.238583
C2    C     C_3   0.426528 0.724334 0.298432 0.989392
C3    C     C_3   0.481909 0.709866 0.683188 0.614556
C4    C     C_3   0.462128 0.782985 0.736354 0.733236
C5    C     C_3   0.890981 0.273139 0.707910 0.113826
C6    C     C_3   0.898632 0.215986 0.760303 0.177428
C7    C     C_3   0.417558 0.295596 0.713922 0.234799
C8    C     C_3   0.411983 0.251461 0.775398 -0.118617
C9    C     C_R   0.996138 0.957345 0.538498 -0.001192
C10   C     C_R   0.083804 0.914735 0.575884 -0.009513
C11   C     C_R   0.220776 0.946543 0.613903 -0.067919
C12   C     C_3   0.943143 0.682028 0.238125 0.285621
C13   C     C_R   0.279977 0.013278 0.605304 -0.129569
C14   C     C_R   0.197665 0.054024 0.564891 -0.008488
C15   C     C_R   0.051482 0.028341 0.535292 0.037169
C16   C     C_R   0.258955 0.120619 0.555441 -0.062527
C17   C     C_R   0.170398 0.167927 0.524643 -0.017094
C18   C     C_R   0.018757 0.144854 0.499676 -0.017385
C19   C     C_R   0.961707 0.073566 0.502614 0.031050
C20   C     C_R   0.227232 0.238540 0.521270 -0.021306
C21   C     C_R   0.135283 0.282747 0.487067 0.178874
C22   C     C_R   0.979988 0.264464 0.468840 0.029397
C23   C     C_3   0.970568 0.702716 0.164407 0.596956
C24   C     C_R   0.925943 0.191323 0.468988 -0.052649
C25   C     C_R   0.851166 0.930595 0.507521 -0.002184
C26   C     C_R   0.799686 0.857688 0.506440 -0.080170
C27   C     C_R   0.895893 0.810334 0.535199 0.034639
C28   C     C_R   0.032595 0.842326 0.575813 0.418703
C29   C     C_R   0.793211 0.158651 0.429017 0.385727
C30   C     C_R   0.725608 0.092258 0.439729 -0.017603
C31   C     C_R   0.813812 0.048067 0.474464 0.042406
C32   C     C_R   0.757778 0.977106 0.477397 0.012963
C33   C     C_R   0.576747 0.067013 0.410614 -0.111722
C34   C     C_3   0.739724 0.311931 0.285027 0.253252
C35   C     C_R   0.517064 0.998343 0.417149 -0.083513
C36   C     C_R   0.607318 0.953393 0.452170 -0.055328
C37   C     C_R   0.647854 0.834146 0.481460 -0.028196
C38   C     C_R   0.549537 0.886189 0.464951 0.379416
C39   C     C_R   0.598067 0.760119 0.475902 0.033069
C40   C     C_R   0.701799 0.711448 0.491735 -0.255702
C41   C     C_R   0.847419 0.734123 0.524046 0.147165
C42   C     C_2   0.568058 0.538339 0.307619 -0.064803
C43   C     C_3   0.678208 0.569389 0.261795 0.004347
C44   C     C_2   0.639135 0.547005 0.180832 -0.089375
C45   C     C_3   0.788930 0.291017 0.202644 0.163454
C46   C     C_2   0.502672 0.515664 0.154899 -0.038926
C47   C     C_2   0.395780 0.495034 0.207557 -0.208026
C48   C     C_1   0.447396 0.496032 0.276681 -0.001467
C49   C     C_R   0.342364 0.507152 0.937782 0.521252
C50   C     C_R   0.453793 0.510687 0.076837 0.515420
C51   C     C_R   0.390136 0.521601 0.810358 0.324716
C52   C     C_R   0.342995 0.513817 0.736432 0.032511
C53   C     C_R   0.094583 0.462894 0.757937 -0.104703
C54   C     C_R   0.136434 0.477387 0.834168 -0.091690
C55   C     C_R   0.288021 0.502957 0.860105 -0.065999
C56   C     C_3   0.987231 0.677622 0.724419 0.192290
C57   C     C_R   0.198238 0.481175 0.710346 -0.352511
C58   C     C_3   0.984447 0.740046 0.793999 0.228119
C59   C     C_3   0.240791 0.298208 0.275515 0.477813
C60   C     C_3   0.239949 0.266272 0.191472 0.228787
H1    H     H_    0.056684 0.786417 0.784948 0.152772
H2    H     H_    0.122822 0.246925 0.171548 0.077289
H3    H     H_    0.498467 0.826974 0.272416 0.048784
H4    H     H_    0.556319 0.792203 0.780073 0.035803
H5    H     H_    0.314233 0.791807 0.232693 0.118195
H6    H     H_    0.930018 0.757680 0.166376 0.010679
H7    H     H_    0.307506 0.316830 0.703529 0.033189
H8    H     H_    0.527213 0.250562 0.796347 0.066870
H9    H     H_    0.288371 0.919851 0.648289 0.150261
H10   H     H_    0.391580 0.032537 0.629863 0.169990
H11   H     H_    0.375849 0.135072 0.573628 0.141236
H12   H     H_    0.819220 0.682224 0.242281 -0.034263
H13   H     H_    0.663051 0.655360 0.484848 -0.003611
H14   H     H_    0.716502 0.563114 0.143848 0.159430
H15   H     H_    0.581821 0.558008 0.366385 0.066636
N1    N     N_R   0.425604 0.566005 0.976877 -0.199706
N2    N     N_R   0.480085 0.567739 0.045043 -0.192475
N3    N     N_R   0.370155 0.452055 0.037973 -0.161723
N4    N     N_R   0.316249 0.450258 0.969776 -0.144602
O1    O     O_2   0.117290 0.676350 0.548250 -0.345600
O2    O     O_3   0.372216 0.344147 0.302480 -0.761466
O3    O     O_3   0.002086 0.614151 0.239575 -0.535921
O4    O     O_2   0.693010 0.323600 0.451730 -0.487470
O5    O     O_3   0.941240 0.413050 0.457220 -0.389797
O6    O     O_3   0.453310 0.371360 0.582690 -0.465973
O7    O     O_3   0.865739 0.307403 0.333698 -0.547192
O8    O     O_3   0.371310 0.539060 0.587050 -0.453488
O9    O     O_3   0.867330 0.408540 0.621000 -0.552865
O10   O     O_2   0.785828 0.471414 0.752776 -0.411560
O11   O     O_3   0.861840 0.341461 0.751915 -0.662778
O12   O     O_3   0.869060 0.586940 0.542720 -0.532546
O13   O     O_3   0.438990 0.460930 0.412890 -0.448315
O14   O     O_2   0.623700 0.539890 0.674570 -0.445203
O15   O     O_3   0.466968 0.655428 0.724270 -0.616648
O16   O     O_2   0.536731 0.245212 0.518465 -0.494839
O17   O     O_3   0.464320 0.249848 0.650324 -0.612334
O18   O     O_3   0.356990 0.628630 0.417250 -0.466112
O19   O     O_2   0.286734 0.754264 0.491499 -0.394231
O20   O     O_3   0.949729 0.708494 0.663733 -0.529308
O21   O     O_3   0.353505 0.757321 0.360941 -0.557697
O22   O     O_2   0.186600 0.460070 0.325400 -0.436008
O23   O     O_3   0.942970 0.591450 0.378940 -0.436593
O24   O     O_2   0.931551 0.486113 0.262677 -0.399738
P1    P     P_3+3 0.945300 0.665790 0.568510 1.142471
P2    P     P_3+3 0.360080 0.438780 0.334620 0.987782
P3    P     P_3+3 0.885289 0.564461 0.286301 1.115072
P4    P     P_3+3 0.865000 0.334200 0.431430 1.163669
P5    P     P_3+3 0.903893 0.420315 0.717941 0.887518
P6    P     P_3+3 0.403365 0.722048 0.438051 1.123632
P7    P     P_3+3 0.454495 0.562896 0.678601 1.098286
P8    P     P_3+3 0.414456 0.277813 0.568473 0.962881
O25   O     O_3   0.341522 0.660537 0.265235 -0.692934
H16   H     H_    0.388720 0.639627 0.219674 0.325994
C61   C     C_2   0.848164 0.216177 0.182434 0.601219
H17   H     H_    0.871973 0.194725 0.126063 -0.037650
O26   O     O_2   0.871041 0.179248 0.227294 -0.477090
C62   C     C_2   0.658485 0.291953 0.146586 0.315792
H18   H     H_    0.571644 0.248486 0.134510 0.086920
O27   O     O_2   0.652880 0.339732 0.111998 -0.533366
O28   O     O_3   0.902929 0.341942 0.193523 -0.649027
H19   H     H_    0.934265 0.329288 0.142569 0.332652
C63   C     C_2   0.137787 0.649670 0.719882 0.362119
H20   H     H_    0.210802 0.650215 0.768347 0.018275
O29   O     O_2   0.173469 0.619161 0.660802 -0.591680
C64   C     C_2   0.881621 0.615687 0.727518 0.424251
H21   H     H_    0.881794 0.567919 0.684327 0.005225
O30   O     O_2   0.801972 0.616652 0.778680 -0.496854
C65   C     C_2   0.042081 0.720082 0.864358 0.417648
H22   H     H_    0.985713 0.676640 0.883956 0.085824
O31   O     O_2   0.152290 0.753104 0.900145 -0.537870
O32   O     O_3   0.837177 0.762807 0.801775 -0.686001
H23   H     H_    0.845300 0.810985 0.835494 0.316886
O33   O     O_3   0.110553 0.333762 0.289004 -0.678857
H24   H     H_    0.110937 0.348842 0.342868 0.331671
C66   C     C_2   0.238004 0.236594 0.315497 0.803147
H25   H     H_    0.310354 0.240344 0.364461 -0.243613
O34   O     O_2   0.149112 0.184130 0.295843 -0.500873
O35   O     O_3   0.495332 0.745429 0.181009 -0.714998
H26   H     H_    0.492138 0.781449 0.149609 0.338563
C67   C     C_2   0.289380 0.320278 0.148566 0.472559
H27   H     H_    0.392968 0.353046 0.165286 -0.002794
O36   O     O_2   0.215213 0.326343 0.093521 -0.565023
O37   O     O_3   0.329042 0.206719 0.176319 -0.696753
H28   H     H_    0.298422 0.179939 0.125668 0.330554
O38   O     O_3   0.575782 0.708329 0.315868 -0.801375
H29   H     H_    0.636838 0.754581 0.333208 0.240821
C68   C     C_2   0.634491 0.712003 0.655261 0.481370
H30   H     H_    0.677183 0.661672 0.628908 -0.136317
O39   O     O_2   0.705060 0.769443 0.657854 -0.561455
O40   O     O_3   0.372349 0.700880 0.624777 -0.664826
H31   H     H_    0.405800 0.666020 0.582325 0.266406
O41   O     O_3   0.465681 0.839611 0.698736 -0.725381
H32   H     H_    0.486411 0.884990 0.736230 0.304557
O42   O     O_3   0.325347 0.780979 0.769111 -0.716210
H33   H     H_    0.329126 0.824205 0.809711 0.307439
C69   C     C_2   0.770549 0.253884 0.646585 0.435679
H34   H     H_    0.715464 0.297241 0.628956 0.080440
O43   O     O_2   0.745659 0.192493 0.610655 -0.575396
C70   C     C_2   0.034875 0.275210 0.669974 0.452036
H35   H     H_    0.064049 0.317748 0.642189 -0.044196
O44   O     O_2   0.115916 0.225139 0.664573 -0.660814
C71   C     C_2   0.890657 0.137846 0.717378 0.698025
H36   H     H_    0.991435 0.114184 0.695598 0.012689
O45   O     O_2   0.771888 0.100785 0.705277 -0.504472
O46   O     O_3   0.037701 0.227317 0.801339 -0.775061
H37   H     H_    0.038813 0.275458 0.834809 0.333367
C72   C     C_2   0.782663 0.225909 0.817182 0.554694
H38   H     H_    0.758699 0.280120 0.844326 0.050200
O47   O     O_2   0.729237 0.175128 0.840118 -0.506278
C73   C     C_2   0.525264 0.361645 0.738878 0.453678
H39   H     H_    0.554974 0.394821 0.701348 0.065852
O48   O     O_2   0.576909 0.380585 0.802290 -0.574244
C74   C     C_2   0.334489 0.286344 0.841358 0.517074
H40   H     H_    0.331923 0.261168 0.888216 0.064326
O49   O     O_2   0.275902 0.343294 0.843721 -0.607058
C75   C     C_2   0.014270 0.739042 0.300947 0.480394
H41   H     H_    0.084947 0.783707 0.291133 0.027877
O50   O     O_2   0.991180 0.736345 0.363861 -0.584411
C76   C     C_2   0.358637 0.173126 0.750351 0.546625
H42   H     H_    0.240918 0.156440 0.738015 0.085491
O51   O     O_2   0.449187 0.126408 0.746628 -0.515447
O52   O     O_3   0.196774 0.342409 0.465556 -0.718762
H43   H     H_    0.306520 0.338384 0.461315 0.310494
O53   O     O_3   0.107998 0.805379 0.620789 -0.655959
H44   H     H_    0.217153 0.811097 0.615025 0.367046
O54   O     O_3   0.761464 0.179183 0.364894 -0.718322
H45   H     H_    0.741470 0.134711 0.326117 0.356551
C77   C     C_2   0.481491 0.113656 0.374603 0.496569
H46   H     H_    0.485578 0.170811 0.396887 0.061245
O55   O     O_2   0.405358 0.089268 0.317610 -0.498278
C78   C     C_2   0.360509 0.974898 0.385086 0.600792
H47   H     H_    0.270302 0.011450 0.395988 -0.001906
O56   O     O_2   0.331941 0.915851 0.344859 -0.563991
O57   O     O_3   0.397751 0.874361 0.470917 -0.676553
H48   H     H_    0.357058 0.920698 0.492728 0.283073
C79   C     C_2   0.231857 0.485396 0.184533 0.621268
H49   H     H_    0.161136 0.443859 0.199361 0.085155
O58   O     O_2   0.174776 0.522220 0.145526 -0.523699
O59   O     O_3   0.536345 0.548666 0.832203 -0.630401
H50   H     H_    0.576253 0.524792 0.870777 0.341544
C80   C     C_2   0.020901 0.467722 0.886299 0.591029
H51   H     H_    0.928812 0.427010 0.870769 0.070375
O60   O     O_2   0.024356 0.507189 0.946967 -0.532108
C81   C     C_2   0.147939 0.469419 0.633082 0.580089
H52   H     H_    0.062933 0.501268 0.613870 0.047360
O61   O     O_2   0.193921 0.419995 0.590172 -0.561112
O62   O     O_3   0.124845 0.704620 0.151839 -0.720104
H53   H     H_    0.152441 0.654118 0.135305 0.394288
O63   O     O_3   0.888308 0.654016 0.107030 -0.689606
H54   H     H_    0.898037 0.673870 0.062460 0.344857
C82   C     C_2   0.609983 0.262311 0.296423 0.457860
H55   H     H_    0.551285 0.274505 0.345549 0.054278
O64   O     O_2   0.574472 0.205328 0.253650 -0.528840
C83   C     C_2   0.694299 0.387778 0.296660 0.507066
H56   H     H_    0.635698 0.404280 0.251685 -0.095061
O65   O     O_2   0.727587 0.431762 0.353455 -0.589791

loop_
_geom_bond_atom_site_label_1
_geom_bond_atom_site_label_2
_ccdc_geom_bond_type
C48   P2    S    
C80   H51   S    
Ba2   P4    S    
C7    O17   S    
C53   C57   A    
C72   H38   S    
C17   C18   A    
C12   O3    S    
C6    C72   S    
C53   C54   A    
C8    C74   S    
C59   C66   S    
Ba1   O18   S    
C44   H14   S    
O25   H16   S    
O33   H24   S    
C74   O49   D    
C54   C80   S    
C43   C44   S    
C61   H17   S    
C13   H10   S    
C80   O60   D    
O8    P7    S    
C59   O33   S    
C40   H13   S    
C77   H46   S    
C3    O40   S    
C34   C45   S    
C58   H1    S    
C12   H12   S    
O10   P5    D    
C2    O25   S    
C26   C27   A    
C33   C35   A    
C83   O65   D    
C16   C17   A    
O4    P4    D    
O14   P7    D    
C68   O39   D    
C3    C4    S    
C34   C82   S    
C81   O61   D    
O57   H48   S    
C19   C31   A    
C56   C58   S    
C13   C14   A    
Ba1   O5    S    
C3    C68   S    
O52   H43   S    
Ba2   O4    S    
C23   O63   S    
Ba1   Ba2   S    
C39   C40   A    
Ba2   O9    S    
C60   H2    S    
O3    P3    S    
C20   P8    S    
C9    C15   A    
O38   H29   S    
O2    P2    S    
C14   C15   A    
C78   O56   D    
C60   O37   S    
C2    O21   S    
C29   O54   S    
Ba1   O8    S    
C21   C22   A    
C79   H49   S    
C49   C55   S    
C9    C25   A    
C50   N2    A    
C7    C8    S    
C49   N4    A    
C43   P3    S    
Ba1   P1    S    
C47   C79   S    
C82   O64   D    
C56   C64   S    
C32   C36   A    
C27   C41   A    
C69   O43   D    
C72   O47   D    
O21   P6    S    
C1    H3    S    
C23   H6    S    
C60   C67   S    
C70   O44   D    
C73   O48   D    
O37   H28   S    
C52   C57   A    
C76   O51   D    
C25   C32   A    
C45   C61   S    
O24   P3    D    
C44   C46   D    
O13   P2    S    
C22   P4    S    
C30   C33   A    
C75   H41   S    
Ba2   O13   S    
C17   C20   A    
C31   C32   A    
O35   H26   S    
C37   C39   A    
C59   O2    S    
C58   C65   S    
O46   H37   S    
C5    C69   S    
C51   C55   A    
C81   H52   S    
Ba1   O13   S    
C45   O28   S    
C11   H9    S    
C26   C37   A    
Ba1   O1    S    
C76   H42   S    
C2    O38   S    
C34   O7    S    
O54   H45   S    
C41   P1    S    
O42   H33   S    
Ba2   O8    S    
C65   O31   D    
C64   O30   D    
O63   H54   S    
C35   C36   A    
C6    O46   S    
O12   P1    S    
C66   O34   D    
C29   C30   A    
C4    H4    S    
C62   H18   S    
O18   P6    S    
O5    P4    S    
O62   H53   S    
C52   P7    S    
Ba2   O6    S    
C56   O20   S    
C4    O41   S    
C83   H56   S    
C23   O62   S    
Ba1   O23   S    
O41   H32   S    
C12   C75   S    
C62   O27   D    
Ba1   P2    S    
O7    P4    S    
C8    H8    S    
C57   C81   S    
Ba1   O12   S    
C46   C47   S    
C78   H47   S    
C16   H11   S    
C11   C13   A    
C53   P5    S    
C6    C71   S    
C69   H34   S    
C67   O36   D    
C40   C41   A    
O9    P5    S    
O16   P8    D    
C1    C2    S    
C28   O53   S    
O23   P3    S    
C3    O15   S    
C73   H39   S    
C5    C70   S    
C63   O29   D    
C38   O57   S    
C42   C48   D    
O20   P1    S    
C54   C55   A    
Ba1   O22   S    
C71   H36   S    
C77   O55   D    
C10   C28   A    
N1    N2    A    
C24   C29   A    
Ba2   O12   S    
C1    H5    S    
C42   C43   S    
C22   C24   A    
C7    H7    S    
N3    N4    A    
O17   P8    S    
Ba2   O14   S    
C75   O50   D    
C9    C10   A    
C51   C52   A    
C1    O35   S    
C33   C77   S    
C42   H15   S    
C66   H25   S    
C56   C63   S    
O59   H50   S    
O22   P2    D    
C30   C31   A    
C71   O45   D    
C65   H22   S    
O28   H19   S    
C49   N1    A    
C21   O52   S    
C74   H40   S    
C70   H35   S    
C68   H30   S    
C34   C83   S    
C36   C38   A    
O11   P5    S    
O32   H23   S    
C18   C24   A    
C82   H55   S    
C5    O11   S    
C45   C62   S    
O15   P7    S    
C61   O26   D    
Ba2   O5    S    
O1    P1    D    
C12   C23   S    
C59   C60   S    
C15   C19   A    
O6    P8    S    
C5    C6    S    
C27   C28   A    
C37   C38   A    
C46   C50   S    
C18   C19   A    
O19   P6    D    
C14   C16   A    
C47   C48   D    
C39   P6    S    
C25   C26   A    
C67   H27   S    
C8    C76   S    
C20   C21   A    
C7    C73   S    
C79   O58   D    
O40   H31   S    
C10   C11   A    
O53   H44   S    
C50   N3    A    
C58   O32   S    
C4    O42   S    
C64   H21   S    
C35   C78   S    
C63   H20   S    
C51   O59   S    
