data_mof_unit_58029.cif
_audit_creation_date              2012-10-26T19:48:48-0400
_audit_creation_method            fapswitch 2.2
_symmetry_space_group_name_H-M    P1
_symmetry_Int_Tables_number       1
_space_group_crystal_system       triclinic
_cell_length_a                    10.726354
_cell_length_b                    9.40481
_cell_length_c                    27.847744
_cell_angle_alpha                 90.547904
_cell_angle_beta                  90.132992
_cell_angle_gamma                 90.162972
_cell_volume                      2809.11395929

loop_
_atom_site_label
_atom_site_type_symbol
_atom_type_description
_atom_site_fract_x
_atom_site_fract_y
_atom_site_fract_z
_atom_type_partial_charge
Br1   Br    Br    0.357768 0.232261 0.350699 -0.572736
Br2   Br    Br    0.896787 0.442765 0.978486 -0.443812
Br3   Br    Br    0.543248 0.808553 0.652259 -0.452575
Br4   Br    Br    0.893144 0.581705 0.870796 -0.214877
Br5   Br    Br    0.129728 0.718159 0.582179 -0.417517
Br6   Br    Br    0.146429 0.364820 0.599778 -0.390454
Br7   Br    Br    0.494170 0.163772 0.745267 -0.294531
C1    C     C_R   0.259896 0.500063 0.502008 0.611114
C2    C     C_R   0.405303 0.422998 0.974314 -0.014452
C3    C     C_R   0.626315 0.493910 0.975089 0.004932
C4    C     C_R   0.497425 0.499735 0.407341 0.576645
C5    C     C_R   0.516593 0.456684 0.949337 -0.002392
C6    C     C_R   0.305107 0.364183 0.947961 -0.088319
C7    C     C_R   0.307519 0.351756 0.898101 0.256352
C8    C     C_R   0.410096 0.408491 0.872525 0.018136
C9    C     C_R   0.518584 0.450701 0.898294 -0.097707
C10   C     C_R   0.628443 0.488828 0.873090 0.004138
C11   C     C_R   0.623889 0.490648 0.822305 0.441781
C12   C     C_R   0.454050 0.397561 0.275649 -0.016495
C13   C     C_R   0.408975 0.425589 0.822285 0.466880
C14   C     C_R   0.499798 0.350413 0.718163 0.227342
C15   C     C_R   0.494940 0.363220 0.668409 -0.110537
C16   C     C_R   0.740045 0.500260 0.501324 0.547378
C17   C     C_R   0.519473 0.619557 0.675716 0.160962
C18   C     C_R   0.521561 0.605918 0.725637 -0.022376
C19   C     C_R   0.511846 0.472541 0.747072 0.193602
C20   C     C_R   0.399572 0.441671 0.025025 0.024921
C21   C     C_R   0.507064 0.488975 0.050288 0.042442
C22   C     C_R   0.618718 0.520217 0.025370 0.037011
C23   C     C_R   0.499237 0.519461 0.252877 0.194600
C24   C     C_R   0.288299 0.420561 0.051391 -0.123527
C25   C     C_R   0.713155 0.599865 0.100945 -0.097004
C26   C     C_R   0.740224 0.500290 0.949468 0.152288
C27   C     C_R   0.739480 0.515912 0.899496 0.223442
C28   C     C_R   0.501390 0.500422 0.592790 0.610490
C29   C     C_R   0.715762 0.588424 0.051152 -0.099763
C30   C     C_3   0.070747 0.649928 0.519503 0.047406
C31   C     C_3   0.069910 0.379555 0.536249 0.057748
C32   C     C_3   0.927599 0.649933 0.517726 -0.204584
C33   C     C_3   0.926775 0.391524 0.539733 -0.198899
C34   C     C_R   0.502524 0.507471 0.100979 -0.027637
C35   C     C_3   0.072673 0.470634 0.452037 -0.299993
C36   C     C_3   0.122047 0.500601 0.503658 0.046968
C37   C     C_3   0.877937 0.500854 0.502670 -0.016973
C38   C     C_3   0.928906 0.462827 0.452134 -0.261709
C39   C     C_3   0.621072 0.084764 0.518025 -0.107161
C40   C     C_3   0.619891 0.917339 0.519219 -0.103700
C41   C     C_3   0.402537 0.084473 0.533238 -0.096006
C42   C     C_3   0.398862 0.916913 0.531392 -0.089130
C43   C     C_3   0.476641 0.081773 0.452616 -0.097746
C44   C     C_3   0.481551 0.914782 0.452171 -0.106435
C45   C     C_R   0.392137 0.479296 0.126257 0.025445
C46   C     C_R   0.391029 0.493569 0.176471 0.402127
C47   C     C_R   0.605711 0.559814 0.176862 0.408977
C48   C     C_R   0.542605 0.633600 0.281056 -0.057831
C49   C     C_R   0.543380 0.624160 0.331036 -0.171806
C50   C     C_R   0.448203 0.390171 0.325580 0.133229
C51   C     C_R   0.285198 0.438082 0.100976 -0.095385
C52   C     C_R   0.608242 0.555428 0.126428 0.026688
C53   C     C_R   0.496860 0.502441 0.354143 0.012977
C54   C     C_R   0.504471 0.496951 0.646148 -0.002936
Cu1   Cu    Cu3+1 0.499860 0.642410 0.500020 0.934427
Cu2   Cu    Cu3+1 0.499860 0.357590 0.500020 0.927821
H1    H     H_    0.575694 0.730032 0.264346 0.166115
H2    H     H_    0.896490 0.731048 0.491439 0.104123
H3    H     H_    0.885083 0.284636 0.533055 0.114558
H4    H     H_    0.103797 0.556076 0.427348 0.135324
H5    H     H_    0.110919 0.368752 0.437753 0.154879
H6    H     H_    0.891018 0.537453 0.424992 0.137740
H7    H     H_    0.898366 0.353650 0.441617 0.139539
H8    H     H_    0.643454 0.127932 0.554380 0.142337
H9    H     H_    0.637966 0.880363 0.556311 0.172104
H10   H     H_    0.697574 0.119328 0.493878 0.117429
H11   H     H_    0.698593 0.878321 0.496900 0.114972
H12   H     H_    0.792623 0.646818 0.119274 0.178223
H13   H     H_    0.419144 0.120447 0.570861 0.162327
H14   H     H_    0.404722 0.874590 0.568268 0.207463
H15   H     H_    0.382994 0.115652 0.440312 0.171840
H16   H     H_    0.393776 0.871614 0.436325 0.137144
H17   H     H_    0.546606 0.122498 0.426735 0.159763
H18   H     H_    0.558687 0.879776 0.428215 0.123569
H19   H     H_    0.309362 0.125598 0.522951 0.141770
H20   H     H_    0.306696 0.882866 0.517012 0.142041
H21   H     H_    0.198023 0.418989 0.119440 0.182650
H22   H     H_    0.484917 0.266758 0.647201 0.171922
H23   H     H_    0.532156 0.699744 0.748167 0.193744
H24   H     H_    0.224882 0.320716 0.965652 0.185965
H25   H     H_    0.200488 0.393473 0.034832 0.153103
H26   H     H_    0.579821 0.713254 0.351671 0.129547
H27   H     H_    0.044917 0.101153 0.894662 0.394862
H28   H     H_    0.793413 0.637667 0.033181 0.176321
H29   H     H_    0.103993 0.730980 0.493551 0.118322
H30   H     H_    0.091520 0.275573 0.518726 0.122028
H31   H     H_    0.888058 0.680928 0.553209 0.181279
H32   H     H_    0.898618 0.425470 0.576510 0.185814
H33   H     H_    0.419358 0.309125 0.254247 0.179172
N1    N     N_R   0.498422 0.526683 0.201096 -0.394927
N2    N     N_R   0.515089 0.462355 0.798547 -0.404191
N3    N     N_3   0.500250 0.143650 0.501060 -0.255145
N4    N     N_3   0.500250 0.856350 0.501060 -0.251907
O1    O     O_R   0.317570 0.620260 0.500030 -0.499208
O2    O     O_2   0.302279 0.411485 0.797071 -0.341658
O3    O     O_2   0.710626 0.593402 0.201323 -0.487715
O4    O     O_2   0.726519 0.518732 0.796277 -0.381111
O5    O     O_2   0.094944 0.342692 0.846892 -0.142329
O6    O     O_2   0.243347 0.148029 0.834183 -0.182199
O7    O     O_3   0.112962 0.150100 0.912421 -0.508018
O8    O     O_R   0.317570 0.379740 0.500030 -0.501161
O9    O     O_R   0.499900 0.620250 0.430280 -0.527098
O10   O     O_R   0.499900 0.379750 0.430280 -0.474220
O11   O     O_R   0.682190 0.620260 0.500010 -0.519861
O12   O     O_R   0.682190 0.379740 0.500010 -0.521426
O13   O     O_R   0.499860 0.620280 0.569750 -0.451576
O14   O     O_R   0.499860 0.379720 0.569750 -0.515043
O15   O     O_2   0.283267 0.474095 0.200506 -0.476446
S1    S     S_3+6 0.187606 0.247186 0.870902 0.115985

loop_
_geom_bond_atom_site_label_1
_geom_bond_atom_site_label_2
_ccdc_geom_bond_type
C14   C19   A    
C17   C54   A    
Br5   C30   S    
C4    O9    A    
C41   H13   S    
O5    S1    D    
C1    C36   S    
C39   N3    S    
C25   H12   S    
C12   C50   A    
C16   O12   A    
C22   C29   A    
C43   N3    S    
C25   C29   A    
C24   C51   A    
C21   C22   A    
H27   O7    S    
Br1   C50   S    
C13   O2    S    
C8    C9    A    
C43   H15   S    
C21   C34   A    
C29   H28   S    
C28   O14   A    
C15   H22   S    
Cu2   O12   S    
C2    C6    A    
Cu2   N3    S    
Cu2   O14   S    
Cu1   O11   S    
C5    C9    A    
C41   H19   S    
C9    C10   A    
Br6   C31   S    
C47   N1    A    
C1    O1    A    
C44   H18   S    
C34   C45   A    
Cu1   O1    S    
C33   H3    S    
C14   C15   A    
C4    O10   A    
C35   H5    S    
C32   H2    S    
Br3   C17   S    
C1    O8    A    
C10   C11   A    
C3    C5    A    
C47   C52   A    
C8    C13   A    
C40   H9    S    
Br4   C27   S    
C38   H6    S    
C47   O3    S    
C26   C27   A    
C17   C18   A    
C34   C52   A    
Cu1   O13   S    
C50   C53   A    
C46   N1    A    
C18   C19   A    
Br7   C14   S    
C20   C24   A    
C16   C37   S    
C49   C53   A    
O6    S1    D    
C35   C38   S    
C30   C36   S    
C32   H31   S    
Cu1   Cu2   S    
C51   H21   S    
C23   N1    S    
C48   H1    S    
C6    H24   S    
C48   C49   A    
C43   C44   S    
C28   C54   S    
C11   O4    S    
C39   H8    S    
C45   C51   A    
C19   N2    S    
Cu1   N4    S    
Br2   C26   S    
C49   H26   S    
C35   H4    S    
C10   C27   A    
C33   H32   S    
C4    C53   S    
C45   C46   A    
C2    C20   A    
C44   N4    S    
C41   N3    S    
C39   C40   S    
C41   C42   S    
C24   H25   S    
C30   H29   S    
C38   H7    S    
C37   C38   S    
C40   H11   S    
C43   H17   S    
C32   C37   S    
C16   O11   A    
C23   C48   A    
C42   H20   S    
Cu2   O10   S    
C31   C36   S    
C30   C32   S    
C15   C54   A    
C31   C33   S    
C3    C22   A    
Cu1   O9    S    
C7    S1    S    
C31   H30   S    
C18   H23   S    
C42   H14   S    
C28   O13   A    
C3    C26   A    
C2    C5    A    
C44   H16   S    
O7    S1    S    
C40   N4    S    
C33   C37   S    
C13   N2    A    
C35   C36   S    
C20   C21   A    
C7    C8    A    
C11   N2    A    
C25   C52   A    
Cu2   O8    S    
C6    C7    A    
C12   C23   A    
C39   H10   S    
C12   H33   S    
C46   O15   S    
C42   N4    S    
