data_mof_unit_14962.cif
_audit_creation_date              2012-12-10T17:33:04-0500
_audit_creation_method            fapswitch 2.2
_symmetry_space_group_name_H-M    P1
_symmetry_Int_Tables_number       1
_space_group_crystal_system       triclinic
_cell_length_a                    12.355889
_cell_length_b                    13.280442
_cell_length_c                    14.273716
_cell_angle_alpha                 93.298125
_cell_angle_beta                  107.565142
_cell_angle_gamma                 117.049765
_cell_volume                      1935.69708965

loop_
_atom_site_label
_atom_site_type_symbol
_atom_type_description
_atom_site_fract_x
_atom_site_fract_y
_atom_site_fract_z
_atom_type_partial_charge
C1    C     C_R   0.650883 0.714019 0.508649 0.786586
C2    C     C_R   0.874234 0.538474 0.924724 0.015201
C3    C     C_R   0.822252 0.552165 0.997609 0.043152
C4    C     C_R   0.992431 0.533892 0.955056 0.058970
C5    C     C_R   0.048917 0.529657 0.056404 -0.023046
C6    C     C_R   0.995459 0.545453 0.127218 -0.301564
C7    C     C_R   0.884940 0.557349 0.098425 0.557751
C8    C     C_R   0.057081 0.535261 0.887891 -0.161209
C9    C     C_R   0.168811 0.525230 0.917320 -0.229909
C10   C     C_R   0.219316 0.511897 0.013987 0.161607
C11   C     C_R   0.158872 0.512299 0.084048 0.123257
C12   C     C_R   0.619097 0.517827 0.686733 0.803069
C13   C     C_R   0.330555 0.498901 0.041688 -0.194924
C14   C     C_R   0.383242 0.487049 0.138690 -0.190665
C15   C     C_R   0.209811 0.493832 0.179278 -0.242131
C16   C     C_R   0.140457 0.966915 0.363541 -0.176732
C17   C     C_R   0.249165 0.162543 0.463447 -0.049559
C18   C     C_R   0.730368 0.920813 0.574095 -0.175738
C19   C     C_R   0.820475 0.037653 0.592893 -0.138765
C20   C     C_R   0.921516 0.072421 0.556773 -0.177002
C21   C     C_R   0.931652 0.990180 0.497295 0.090669
C22   C     C_R   0.830223 0.872781 0.467981 0.080590
C23   C     C_R   0.345290 0.285363 0.485058 0.802259
C24   C     C_R   0.038404 0.020785 0.465067 0.083252
C25   C     C_R   0.035609 0.937451 0.396006 0.148791
C26   C     C_R   0.927069 0.826526 0.358402 -0.219346
C27   C     C_R   0.825046 0.794943 0.392737 -0.188651
C28   C     C_R   0.148947 0.131635 0.500501 -0.241950
C29   C     C_R   0.246557 0.079427 0.396572 -0.190494
C30   C     C_R   0.735897 0.837141 0.513979 -0.095603
C31   C     C_R   0.254156 0.685292 0.661583 -0.243871
C32   C     C_R   0.655060 0.342522 0.363657 0.102674
C33   C     C_R   0.733040 0.308608 0.333358 -0.222622
C34   C     C_R   0.382385 0.484239 0.313501 0.792461
C35   C     C_R   0.868295 0.368026 0.384455 -0.141518
C36   C     C_R   0.928054 0.463011 0.467169 -0.005300
C37   C     C_R   0.843803 0.494953 0.495257 0.212812
C38   C     C_R   0.067585 0.527272 0.522950 -0.113582
C39   C     C_R   0.119121 0.621613 0.605320 0.041816
C40   C     C_R   0.035681 0.651863 0.630963 0.509723
C41   C     C_R   0.901790 0.590079 0.577159 -0.278411
C42   C     C_R   0.159379 0.502525 0.501197 0.059004
C43   C     C_R   0.338365 0.656411 0.636429 0.035686
C44   C     C_R   0.688283 0.531366 0.794104 -0.045640
C45   C     C_R   0.323318 0.485414 0.208094 -0.059302
C46   C     C_R   0.707256 0.559436 0.968368 -0.143017
C47   C     C_R   0.641265 0.549990 0.867350 -0.220354
C48   C     C_R   0.803335 0.525379 0.823063 -0.186631
Cu1   Cu    Cu3+1 0.416420 0.526630 0.522910 0.936322
Cu2   Cu    Cu3+1 0.583580 0.473370 0.477090 0.937041
H1    H     H_    0.377906 0.499681 0.988759 0.133112
H2    H     H_    0.323617 0.102502 0.366872 0.148945
H3    H     H_    0.921139 0.763706 0.302363 0.210679
H4    H     H_    0.138659 0.903800 0.310554 0.146330
H5    H     H_    0.159590 0.196674 0.556672 0.147197
H6    H     H_    0.657723 0.895788 0.608630 0.153589
H7    H     H_    0.988003 0.164560 0.574768 0.126775
H8    H     H_    0.814379 0.101569 0.638418 0.144424
H9    H     H_    0.740879 0.709647 0.357220 0.185702
H10   H     H_    0.442339 0.705538 0.679802 0.125321
H11   H     H_    0.162190 0.484525 0.232662 0.148681
H12   H     H_    0.294920 0.757330 0.724920 0.196622
H13   H     H_    0.128607 0.432429 0.439912 0.116574
H14   H     H_    0.550327 0.295715 0.323347 0.117445
H15   H     H_    0.923599 0.337851 0.357698 0.125948
H16   H     H_    0.688368 0.235803 0.269907 0.143417
H17   H     H_    0.847119 0.620317 0.602973 0.230186
H18   H     H_    0.471561 0.480930 0.159718 0.170852
H19   H     H_    0.215459 0.527138 0.863611 0.144483
H20   H     H_    0.667336 0.571318 0.023351 0.181235
H21   H     H_    0.552392 0.555189 0.846488 0.152546
H22   H     H_    0.833526 0.506564 0.764251 0.148906
H23   H     H_    0.038890 0.552435 0.206730 0.172472
H24   H     H_    0.026390 0.547740 0.812560 0.162033
N1    N     N_R   0.290690 0.566960 0.557640 -0.176188
N2    N     N_R   0.709100 0.433710 0.442970 -0.190024
O1    O     O_R   0.545970 0.684450 0.528810 -0.579014
O2    O     O_R   0.687130 0.639470 0.490120 -0.596990
O3    O     O_R   0.519670 0.535100 0.660030 -0.584034
O4    O     O_R   0.660830 0.490120 0.621340 -0.602268
O5    O     O_R   0.312870 0.360530 0.509880 -0.589042
O6    O     O_R   0.454030 0.315550 0.471190 -0.587269
O7    O     O_R   0.339170 0.509880 0.378660 -0.585802
O8    O     O_R   0.480330 0.464900 0.339970 -0.591175
F1    F     F_    0.837421 0.571099 0.169582 -0.704290
F2    F     F_    0.083784 0.742417 0.709451 -0.672536

loop_
_geom_bond_atom_site_label_1
_geom_bond_atom_site_label_2
_ccdc_geom_bond_type
C23   O6    A    
C17   C29   A    
C35   C36   A    
C4    C8    A    
Cu2   O8    S    
C41   H17   S    
C42   N1    A    
C17   C23   S    
C31   C43   A    
C36   C37   A    
C9    H19   S    
C5    C11   A    
C3    C7    A    
C5    C6    A    
C35   H15   S    
Cu1   O5    S    
C12   O3    A    
C1    O1    A    
C18   C19   A    
C40   F2    S    
C13   H1    S    
C11   C15   A    
C19   C20   A    
C31   C39   A    
C8    C9    A    
Cu1   N1    S    
C18   C30   A    
C23   O5    A    
C9    C10   A    
C44   C47   A    
C18   H6    S    
C21   C22   A    
C1    O2    A    
C31   H12   S    
C34   O8    A    
C48   H22   S    
Cu2   O2    S    
C28   H5    S    
C33   H16   S    
C14   C45   A    
C19   H8    S    
C43   N1    A    
C38   C39   A    
C24   C25   A    
C32   H14   S    
C39   C40   A    
C2    C48   A    
C16   C29   A    
Cu1   O3    S    
C2    C4    A    
Cu2   N2    S    
C8    H24   S    
C15   H11   S    
C34   C45   S    
C47   H21   S    
C43   H10   S    
C40   C41   A    
C37   N2    A    
C22   C27   A    
C26   C27   A    
C34   O7    A    
C15   C45   A    
C26   H3    S    
Cu2   O6    S    
C6    H23   S    
C16   C25   A    
C46   C47   A    
C22   C30   A    
C17   C28   A    
C24   C28   A    
C4    C5    A    
C10   C13   A    
Cu2   O4    S    
C32   N2    A    
C38   C42   A    
C6    C7    A    
C3    C46   A    
C32   C33   A    
Cu1   O7    S    
C36   C38   A    
C2    C3    A    
C25   C26   A    
C12   C44   S    
C27   H9    S    
C7    F1    S    
C12   O4    A    
C1    C30   S    
C33   C35   A    
Cu1   O1    S    
C37   C41   A    
C16   H4    S    
C46   H20   S    
C10   C11   A    
C20   C21   A    
Cu1   Cu2   S    
C21   C24   A    
C14   H18   S    
C20   H7    S    
C13   C14   A    
C42   H13   S    
C44   C48   A    
C29   H2    S    
