data_mof_unit_42627.cif
_audit_creation_date              2013-03-05T15:50:12-0500
_audit_creation_method            fapswitch 2.2
_symmetry_space_group_name_H-M    P1
_symmetry_Int_Tables_number       1
_space_group_crystal_system       triclinic
_cell_length_a                    14.800707
_cell_length_b                    15.860003
_cell_length_c                    9.58438
_cell_angle_alpha                 90.389743
_cell_angle_beta                  88.726718
_cell_angle_gamma                 90.235168
_cell_volume                      2249.20509247

loop_
_atom_site_label
_atom_site_type_symbol
_atom_site_description
_atom_site_fract_x
_atom_site_fract_y
_atom_site_fract_z
_atom_type_partial_charge
O1    O     O_R   0.409820 0.909830 0.618810 -0.605564
O2    O     O_R   0.409820 0.090170 0.618810 -0.610939
O3    O     O_R   0.909820 0.409830 0.618810 -0.605529
O4    O     O_R   0.909820 0.590170 0.618810 -0.610955
O5    O     O_R   0.409840 0.909830 0.381240 -0.535337
O6    O     O_R   0.409840 0.090170 0.381240 -0.526532
O7    O     O_R   0.909840 0.409830 0.381240 -0.535398
O8    O     O_R   0.909840 0.590170 0.381240 -0.526409
C1    C     C_R   0.379130 0.883027 0.500549 0.809848
C2    C     C_R   0.378310 0.116616 0.502074 0.799014
C3    C     C_R   0.879134 0.383033 0.500545 0.810041
C4    C     C_R   0.878286 0.616597 0.502087 0.799016
Cu1   Cu    Cu3+1 0.499990 0.000000 0.640660 0.912763
Cu2   Cu    Cu3+1 0.999990 0.500000 0.640660 0.912729
Cu3   Cu    Cu3+1 0.500010 0.000000 0.359340 0.961967
Cu4   Cu    Cu3+1 0.000010 0.500000 0.359340 0.961939
O9    O     O_R   0.590170 0.090170 0.618760 -0.602669
O10   O     O_R   0.590170 0.909830 0.618760 -0.604589
O11   O     O_R   0.090170 0.590170 0.618760 -0.602630
O12   O     O_R   0.090170 0.409830 0.618760 -0.604674
O13   O     O_R   0.590190 0.090180 0.381190 -0.597344
O14   O     O_R   0.590190 0.909820 0.381190 -0.595360
O15   O     O_R   0.090190 0.590180 0.381190 -0.597415
O16   O     O_R   0.090190 0.409820 0.381190 -0.595296
C5    C     C_R   0.616428 0.120394 0.499540 0.794718
C6    C     C_R   0.614920 0.878499 0.499026 0.801237
C7    C     C_R   0.116457 0.620362 0.499526 0.794674
C8    C     C_R   0.114946 0.378517 0.499033 0.801198
C9    C     C_R   0.234825 0.128941 0.729125 -0.158468
C10   C     C_R   0.212980 0.899175 0.670839 -0.153179
C11   C     C_R   0.734898 0.629091 0.729558 -0.158440
C12   C     C_R   0.712929 0.399363 0.670558 -0.153124
H1    H     H_    0.284532 0.082415 0.747682 0.151340
H2    H     H_    0.258631 0.951937 0.670018 0.130366
H3    H     H_    0.784761 0.582710 0.748574 0.151446
H4    H     H_    0.758525 0.452199 0.669556 0.130357
C13   C     C_R   0.165047 0.132410 0.828870 -0.153990
C14   C     C_R   0.134933 0.905848 0.754210 -0.141081
C15   C     C_R   0.665044 0.632555 0.829183 -0.154153
C16   C     C_R   0.634896 0.406056 0.753954 -0.141194
H5    H     H_    0.165489 0.091054 0.918211 0.122703
H6    H     H_    0.123349 0.961176 0.818069 0.128162
H7    H     H_    0.665538 0.591297 0.918693 0.122798
H8    H     H_    0.623276 0.461460 0.817639 0.128313
C17   C     C_R   0.593309 0.686759 0.811799 -0.139031
C18   C     C_R   0.570570 0.342268 0.753419 -0.152875
C19   C     C_R   0.093418 0.186743 0.811774 -0.139157
C20   C     C_R   0.070533 0.842136 0.753417 -0.152870
H9    H     H_    0.536899 0.686583 0.885674 0.138614
H10   H     H_    0.509207 0.348463 0.816229 0.134391
H11   H     H_    0.037048 0.186573 0.885716 0.138617
H12   H     H_    0.009145 0.848328 0.816171 0.134306
C21   C     C_R   0.593962 0.741216 0.699108 -0.155178
C22   C     C_R   0.583987 0.271337 0.669595 -0.167857
C23   C     C_R   0.094081 0.241270 0.699208 -0.155205
C24   C     C_R   0.083925 0.771281 0.669427 -0.167638
H13   H     H_    0.534335 0.779238 0.687219 0.157579
H14   H     H_    0.529688 0.225745 0.668071 0.159092
H15   H     H_    0.034479 0.279329 0.687475 0.157778
H16   H     H_    0.029576 0.725747 0.667700 0.159023
C25   C     C_R   0.668698 0.744684 0.603817 0.100433
C26   C     C_R   0.663920 0.261959 0.586841 0.099576
C27   C     C_R   0.168775 0.244728 0.603832 0.100570
C28   C     C_R   0.163910 0.761900 0.586786 0.099604
C29   C     C_R   0.238440 0.184313 0.613431 0.042604
C30   C     C_R   0.229678 0.826802 0.587599 0.038941
C31   C     C_R   0.738421 0.684320 0.613572 0.042717
C32   C     C_R   0.729659 0.326897 0.587520 0.038936
C33   C     C_R   0.307692 0.181502 0.506561 -0.232535
C34   C     C_R   0.308278 0.818955 0.500807 -0.217055
C35   C     C_R   0.807641 0.681465 0.506605 -0.232606
C36   C     C_R   0.808270 0.318990 0.500789 -0.216966
C37   C     C_R   0.308664 0.241642 0.398513 0.440127
C38   C     C_R   0.318890 0.749374 0.410063 0.437394
C39   C     C_R   0.808524 0.741523 0.398403 0.439974
C40   C     C_R   0.818898 0.249376 0.410127 0.437360
H17   H     H_    0.745406 0.849228 0.312846 0.169663
H18   H     H_    0.761708 0.133743 0.337918 0.155624
H19   H     H_    0.245581 0.349392 0.313052 0.169621
H20   H     H_    0.261723 0.633734 0.337835 0.155634
C41   C     C_R   0.742160 0.802592 0.395019 -0.315043
C42   C     C_R   0.753035 0.186998 0.408383 -0.308676
C43   C     C_R   0.242287 0.302702 0.395131 -0.315024
C44   C     C_R   0.253045 0.686981 0.408318 -0.308636
C45   C     C_R   0.674605 0.806226 0.498117 -0.174221
C46   C     C_R   0.678231 0.191200 0.498932 -0.163677
C47   C     C_R   0.174682 0.306283 0.498162 -0.174292
C48   C     C_R   0.178243 0.691164 0.498876 -0.163618
H21   H     H_    0.358660 0.994089 0.134157 0.134682
H22   H     H_    0.858665 0.493960 0.134156 0.134709
C49   C     C_R   0.665718 0.001630 0.139546 -0.155120
C50   C     C_R   0.165717 0.501673 0.139546 -0.155095
H23   H     H_    0.672519 0.000120 0.249536 0.188149
H24   H     H_    0.172519 0.500131 0.249534 0.188123
C51   C     C_R   0.747179 0.002910 0.064980 -0.202811
C52   C     C_R   0.247178 0.502985 0.064981 -0.202735
H25   H     H_    0.810493 0.003073 0.119545 0.141034
H26   H     H_    0.310492 0.503157 0.119545 0.141079
C53   C     C_R   0.747537 0.003335 0.921044 -0.193098
C54   C     C_R   0.247537 0.503411 0.921045 -0.193106
H27   H     H_    0.811186 0.003814 0.863057 0.140805
H28   H     H_    0.311185 0.503900 0.863058 0.140800
C55   C     C_R   0.666449 0.002403 0.850792 -0.122164
C56   C     C_R   0.166448 0.502450 0.850792 -0.122182
H29   H     H_    0.674407 0.001436 0.740397 0.194600
H30   H     H_    0.174407 0.501450 0.740398 0.194580
C57   C     C_R   0.581757 0.001698 0.922619 0.211297
C58   C     C_R   0.081757 0.501735 0.922619 0.211326
C59   C     C_R   0.581599 0.001408 0.072339 0.205858
C60   C     C_R   0.081599 0.501441 0.072339 0.205789
N1    N     N_R   0.501200 0.000000 0.147910 -0.202347
N2    N     N_R   0.001200 0.500000 0.147910 -0.202362
C61   C     C_R   0.422336 0.996811 0.076712 -0.003718
C62   C     C_R   0.922340 0.496741 0.076711 -0.003638
H31   H     H_    0.359042 0.990489 0.876441 0.115926
H32   H     H_    0.859058 0.490281 0.876444 0.116004
C63   C     C_R   0.422470 0.995882 0.928867 -0.059813
C64   C     C_R   0.922476 0.495789 0.928868 -0.060076
N3    N     N_R   0.501270 0.000000 0.852040 -0.203234
N4    N     N_R   0.001270 0.500000 0.852040 -0.203225
O17   O     O_3   0.374114 0.240355 0.293050 -0.554752
C65   C     C_3   0.444492 0.296246 0.329086 0.071051
H33   H     H_    0.472687 0.279837 0.432113 0.126514
H34   H     H_    0.419996 0.362569 0.332377 0.123811
C66   C     C_3   0.520371 0.289914 0.219832 -0.734705
H35   H     H_    0.495348 0.308592 0.116090 0.234352
H36   H     H_    0.576916 0.332415 0.248723 0.194172
H37   H     H_    0.545809 0.224187 0.213344 0.270275
O18   O     O_3   0.391433 0.744744 0.316613 -0.556993
C67   C     C_3   0.455323 0.687462 0.367593 0.061268
H38   H     H_    0.426291 0.622752 0.376220 0.125263
H39   H     H_    0.479360 0.708291 0.471454 0.125881
C68   C     C_3   0.536223 0.683934 0.266999 -0.747887
H40   H     H_    0.564988 0.748078 0.251889 0.270097
H41   H     H_    0.589063 0.642422 0.309609 0.197234
H42   H     H_    0.515194 0.658480 0.164408 0.229230
O19   O     O_3   0.873831 0.740098 0.292729 -0.554713
C69   C     C_3   0.944223 0.796093 0.328226 0.071060
H43   H     H_    0.972555 0.779933 0.431255 0.126546
H44   H     H_    0.919698 0.862405 0.331188 0.123758
C70   C     C_3   0.019965 0.789538 0.218779 -0.734665
H45   H     H_    0.994780 0.807886 0.114997 0.234430
H46   H     H_    0.076492 0.832186 0.247142 0.194080
H47   H     H_    0.045479 0.723834 0.212699 0.270251
O20   O     O_3   0.891469 0.244712 0.316733 -0.556997
C71   C     C_3   0.955284 0.187358 0.367707 0.061134
H48   H     H_    0.926200 0.122664 0.376151 0.125328
H49   H     H_    0.979267 0.208092 0.471646 0.125972
C72   C     C_3   0.036247 0.183850 0.267236 -0.748031
H50   H     H_    0.065094 0.247975 0.252353 0.270089
H51   H     H_    0.089011 0.142241 0.309807 0.197196
H52   H     H_    0.015258 0.158527 0.164546 0.229339

loop_
_geom_bond_atom_site_label_1
_geom_bond_atom_site_label_2
_geom_bond_distance
_ccdc_geom_bond_type
C53   C55   1.389106 A    
C27   C29   1.415372 A    
C23   H15   1.079305 S    
C58   N4    1.383025 A    
C43   C47   1.391162 A    
O10   C6    1.293481 A    
C50   C52   1.388001 A    
H20   C44   1.084104 S    
C64   N4    1.366951 A    
C56   H30   1.062008 S    
O20   C71   1.411336 S    
C30   C34   1.420422 A    
C16   C18   1.386441 A    
C26   C46   1.412561 A    
Cu1   O10   1.967198 S    
C12   H4    1.073726 S    
C71   H48   1.113808 S    
C63   N3    1.366953 A    
C51   C53   1.379492 A    
C31   C35   1.433808 A    
C9    H1    1.062743 S    
C54   C56   1.389107 A    
C10   C14   1.393884 A    
O2    Cu1   1.975424 S    
C25   C31   1.415560 A    
C59   N1    1.379432 A    
O6    Cu3   1.967096 S    
C21   C25   1.419866 A    
Cu3   O14   1.975642 S    
H32   C64   1.077417 S    
H31   C63   1.077412 S    
C23   C27   1.419879 A    
C34   C38   1.407549 A    
C68   H42   1.110788 S    
C24   C28   1.417433 A    
C33   C37   1.412468 A    
O15   C7    1.295120 A    
O4    C4    1.294693 A    
O11   C7    1.293359 A    
C16   H8    1.078673 S    
C14   C20   1.386342 A    
C36   C40   1.407515 A    
C15   C17   1.382533 A    
H22   C62   1.081743 S    
C17   C21   1.387358 A    
Cu4   O16   1.975642 S    
O4    Cu2   1.975424 S    
C57   C59   1.434958 A    
C57   N3    1.383024 A    
Cu1   N3    2.026457 S    
O7    C3    1.294835 A    
C71   H49   1.112132 S    
H21   C61   1.081741 S    
C10   H2    1.073330 S    
Cu2   O12   1.967198 S    
O1    C1    1.298646 A    
C1    C34   1.457230 S    
N1    C61   1.365686 A    
C39   O19   1.384539 S    
C72   H52   1.110712 S    
C40   C42   1.386303 A    
C21   H13   1.079452 S    
C3    C36   1.457034 S    
C39   C41   1.383333 A    
C15   H7    1.082666 S    
O12   C8    1.293411 A    
C42   C46   1.393032 A    
C24   H16   1.079131 S    
C52   H26   1.083224 S    
C32   C36   1.420298 A    
C70   H46   1.110994 S    
C28   C30   1.413912 A    
C67   H39   1.112153 S    
O5    C1    1.294926 A    
Cu3   N1    2.026112 S    
C49   H23   1.061648 S    
C71   C72   1.521463 S    
H18   C42   1.084102 S    
C11   C15   1.392672 A    
H17   C41   1.084265 S    
O8    C4    1.306245 A    
C18   C22   1.390282 A    
C8    C47   1.449872 S    
C54   H28   1.083107 S    
C17   H9    1.082653 S    
C55   H29   1.062008 S    
C10   C30   1.412865 A    
O17   C65   1.412209 S    
C62   C64   1.416925 A    
O3    Cu2   1.965406 S    
C25   C45   1.412602 A    
C9    C29   1.419116 A    
N2    C62   1.365678 A    
O7    Cu4   1.961199 S    
C53   H27   1.083107 S    
C4    C35   1.469614 S    
C40   O20   1.384718 S    
Cu4   O15   1.965621 S    
C37   O17   1.384514 S    
Cu1   Cu3   2.696270 S    
C66   H35   1.111234 S    
Cu2   Cu4   2.696270 S    
Cu3   O13   1.965621 S    
C70   H47   1.110565 S    
C67   C68   1.521483 S    
C13   C19   1.382202 A    
C65   H34   1.114034 S    
O2    C2    1.294761 A    
C56   C58   1.416667 A    
Cu4   N2    2.026112 S    
C19   C23   1.387127 A    
O18   C67   1.411360 S    
C22   H14   1.079140 S    
C61   C63   1.416933 A    
C20   C24   1.390172 A    
O13   C5    1.295284 A    
C27   C47   1.412539 A    
Cu2   O11   1.961298 S    
O16   C8    1.297651 A    
C66   H37   1.110658 S    
C38   C44   1.386305 A    
C69   C70   1.521546 S    
O6    C2    1.306105 A    
C19   H11   1.082620 S    
C51   H25   1.083223 S    
C14   H6    1.078562 S    
C69   H44   1.113960 S    
Cu1   O9    1.961298 S    
C22   C26   1.417379 A    
O19   C69   1.412069 S    
C18   H10   1.082838 S    
Cu2   N4    2.026457 S    
C12   C32   1.413074 A    
O9    C5    1.293309 A    
C49   C59   1.414407 A    
C65   C66   1.521533 S    
C72   H51   1.110802 S    
C67   H38   1.113883 S    
C70   H45   1.111004 S    
C35   C39   1.412687 A    
C50   C60   1.414405 A    
C50   H24   1.061647 S    
C68   H40   1.110351 S    
C44   C48   1.393032 A    
C6    C45   1.449893 S    
C29   C33   1.433469 A    
C52   C54   1.379491 A    
C5    C46   1.445433 S    
C58   C60   1.434960 A    
C11   H3    1.063592 S    
C26   C32   1.414019 A    
C12   C16   1.393864 A    
C13   H5    1.082298 S    
C7    C48   1.445217 S    
C60   N2    1.379434 A    
O5    Cu3   1.961199 S    
O3    C3    1.298633 A    
C69   H43   1.113264 S    
C11   C31   1.419886 A    
C49   C51   1.388001 A    
H19   C43   1.084196 S    
C2    C33   1.469541 S    
C20   H12   1.082847 S    
O1    Cu1   1.965406 S    
O8    Cu4   1.967096 S    
O14   C6    1.297588 A    
C38   O18   1.384714 S    
C9    C13   1.392630 A    
C66   H36   1.111112 S    
C68   H41   1.110834 S    
C55   C57   1.416666 A    
C65   H33   1.113392 S    
C72   H50   1.110265 S    
C37   C43   1.383370 A    
C28   C48   1.412335 A    
C41   C45   1.391116 A    
