data_mof_unit_17364.cif
_audit_creation_date              2012-12-11T15:47:06-0500
_audit_creation_method            fapswitch 2.2
_symmetry_space_group_name_H-M    P1
_symmetry_Int_Tables_number       1
_space_group_crystal_system       triclinic
_cell_length_a                    20.162713
_cell_length_b                    7.257536
_cell_length_c                    13.565337
_cell_angle_alpha                 89.995969
_cell_angle_beta                  103.010561
_cell_angle_gamma                 90.004127
_cell_volume                      1934.07894201

loop_
_atom_site_label
_atom_site_type_symbol
_atom_type_description
_atom_site_fract_x
_atom_site_fract_y
_atom_site_fract_z
_atom_type_partial_charge
O1    O     O_R   0.449560 0.506810 0.599700 -0.534725
O2    O     O_R   0.550440 0.006810 0.400300 -0.534722
O3    O     O_R   0.587960 0.180060 0.595760 -0.545926
O4    O     O_R   0.412040 0.680060 0.404240 -0.545932
C1    C     C_R   0.614902 0.344204 0.617572 0.681735
C2    C     C_R   0.385098 0.844202 0.382430 0.681737
O5    O     O_R   0.452380 0.177430 0.611700 -0.538592
O6    O     O_R   0.547620 0.677430 0.388300 -0.538594
O7    O     O_R   0.413900 0.001890 0.416350 -0.540862
O8    O     O_R   0.586100 0.501890 0.583650 -0.540860
C3    C     C_R   0.436438 0.345689 0.637664 0.685254
C4    C     C_R   0.563561 0.845707 0.362338 0.685256
O9    O     O_3   0.487530 0.337490 0.435890 -0.378974
O10   O     O_3   0.512470 0.837490 0.564110 -0.378970
V1    V     V_3+5 0.502310 0.064660 0.511890 1.408059
V2    V     V_3+5 0.497690 0.564660 0.488110 1.408044
C5    C     C_R   0.609336 0.872969 0.109603 -0.159080
C6    C     C_R   0.390673 0.371736 0.890442 -0.159089
H1    H     H_    0.515814 0.867773 0.159970 0.105613
H2    H     H_    0.484196 0.366462 0.840079 0.105601
H3    H     H_    0.692403 0.886546 0.983646 0.124019
H4    H     H_    0.307610 0.384777 0.016416 0.124007
H5    H     H_    0.583206 0.881675 0.030639 0.114933
H6    H     H_    0.416807 0.379836 0.969428 0.114933
C7    C     C_R   0.603348 0.853967 0.284925 -0.023851
C8    C     C_R   0.396653 0.353861 0.715080 -0.023843
C9    C     C_R   0.931531 0.848852 0.316470 -0.168292
C10   C     C_R   0.068461 0.349611 0.683503 -0.168285
C11   C     C_R   0.896047 0.840645 0.392995 -0.119607
C12   C     C_R   0.103941 0.341716 0.606966 -0.119616
C13   C     C_R   0.825131 0.843491 0.369861 -0.157103
C14   C     C_R   0.174859 0.344281 0.630109 -0.157087
C15   C     C_R   0.787528 0.854814 0.268257 0.076084
C16   C     C_R   0.212469 0.354982 0.731734 0.076080
C17   C     C_R   0.824348 0.863140 0.190097 0.067330
C18   C     C_R   0.175653 0.362920 0.809910 0.067318
C19   C     C_R   0.714793 0.858153 0.241610 0.071257
C20   C     C_R   0.285208 0.358058 0.758390 0.071253
C21   C     C_R   0.680752 0.869623 0.137827 0.140161
C22   C     C_R   0.319255 0.368785 0.862202 0.140171
C23   C     C_R   0.718042 0.877694 0.062847 -0.202247
C24   C     C_R   0.281967 0.376481 0.937196 -0.202234
C25   C     C_R   0.788639 0.874545 0.088347 -0.191266
C26   C     C_R   0.211368 0.373656 0.911683 -0.191253
C27   C     C_R   0.674380 0.850535 0.314258 -0.211029
C28   C     C_R   0.325617 0.350862 0.685726 -0.211032
C29   C     C_R   0.570870 0.865102 0.182827 -0.174594
C30   C     C_R   0.429135 0.364187 0.817205 -0.174584
C31   C     C_R   0.896444 0.859986 0.215409 -0.067599
C32   C     C_R   0.103554 0.360089 0.784585 -0.067595
H7    H     H_    0.696182 0.841810 0.394272 0.093311
H8    H     H_    0.303810 0.342740 0.605691 0.093311
H9    H     H_    0.801542 0.836607 0.433480 0.107770
H10   H     H_    0.198444 0.337671 0.566477 0.107767
H11   H     H_    0.923739 0.831973 0.471122 0.120722
H12   H     H_    0.076245 0.333537 0.528823 0.120722
H13   H     H_    0.815034 0.881190 0.027197 0.116896
H14   H     H_    0.184977 0.379994 0.972846 0.116889
C33   C     C_R   0.217405 0.023134 0.223446 -0.153478
C34   C     C_R   0.782636 0.523135 0.776446 -0.153476
H15   H     H_    0.193459 0.156000 0.204656 0.119279
H16   H     H_    0.806612 0.655998 0.795142 0.119307
C35   C     C_R   0.282587 0.018694 0.286859 -0.160944
C36   C     C_R   0.717452 0.518698 0.713036 -0.160938
H17   H     H_    0.306522 0.147747 0.314998 0.118039
H18   H     H_    0.693552 0.647748 0.684816 0.118034
C37   C     C_R   0.316159 0.850170 0.313677 -0.038520
C38   C     C_R   0.683841 0.350173 0.686329 -0.038498
C39   C     C_R   0.282731 0.686198 0.274951 -0.158050
C40   C     C_R   0.717228 0.186198 0.725157 -0.158087
H19   H     H_    0.306794 0.553452 0.293682 0.118310
H20   H     H_    0.693133 0.053455 0.706518 0.118327
C41   C     C_R   0.217550 0.690597 0.211533 -0.156820
C42   C     C_R   0.782410 0.190594 0.788573 -0.156855
H21   H     H_    0.193735 0.561453 0.183306 0.118126
H22   H     H_    0.806190 0.061454 0.816881 0.118107
C43   C     C_R   0.183815 0.859101 0.185040 -0.035565
C44   C     C_R   0.816184 0.359096 0.814955 -0.035543
O11   O     O_R   0.913920 0.203370 0.916260 -0.539751
O12   O     O_R   0.086080 0.703370 0.083740 -0.539740
O13   O     O_R   0.047620 0.535540 0.888290 -0.537851
O14   O     O_R   0.952380 0.035540 0.111710 -0.537862
C45   C     C_R   0.063762 0.368301 0.862392 0.679698
C46   C     C_R   0.936238 0.868283 0.137607 0.679697
O15   O     O_R   0.912040 0.532780 0.904220 -0.545742
O16   O     O_R   0.087960 0.032780 0.095780 -0.545758
O17   O     O_R   0.949550 0.708160 0.099720 -0.534767
O18   O     O_R   0.050450 0.208160 0.900280 -0.534781
C47   C     C_R   0.885408 0.364926 0.883075 0.673793
C48   C     C_R   0.114591 0.864928 0.116922 0.673796
O19   O     O_3   0.012480 0.375300 0.064060 -0.378448
O20   O     O_3   0.987520 0.875300 0.935940 -0.378444
V3    V     V_3+5 0.997690 0.648180 0.988110 1.409866
V4    V     V_3+5 0.002310 0.148180 0.011890 1.409812
H23   H     H_    0.986688 0.846461 0.336080 0.103474
H24   H     H_    0.013302 0.347504 0.663886 0.103466

loop_
_geom_bond_atom_site_label_1
_geom_bond_atom_site_label_2
_ccdc_geom_bond_type
C20   C22   A    
C35   H17   S    
O14   V4    S    
C9    C11   A    
C41   H21   S    
C9    H23   S    
O1    C3    A    
C46   O17   A    
O2    C4    A    
C33   C43   A    
C2    O7    A    
C18   C32   A    
C21   C23   A    
O5    C3    A    
C34   C44   A    
C5    H5    S    
C42   H22   S    
C6    H6    S    
C36   C38   A    
C31   C46   S    
H1    C29   S    
C27   H7    S    
C28   H8    S    
C34   H16   S    
C5    C21   A    
C39   H19   S    
C6    C22   A    
O16   V4    S    
O15   V3    S    
C26   H14   S    
C40   C42   A    
C13   C15   A    
C39   C41   A    
C17   C25   A    
C7    C29   A    
C8    C30   A    
C22   C24   A    
C45   O18   A    
O6    V2    S    
C23   C25   A    
C24   C26   A    
C1    C38   S    
C14   H10   S    
O13   C45   A    
C32   C45   S    
O18   V4    S    
C44   C47   S    
C19   C21   A    
C35   C37   A    
C43   C48   S    
C33   H15   S    
C20   C28   A    
O11   V4    S    
O4    C2    A    
O16   C48   A    
O15   C47   A    
C11   H11   S    
C3    C8    S    
C12   H12   S    
C15   C19   A    
C37   C39   A    
C14   C16   A    
O4    V2    S    
C17   C31   A    
O13   V3    S    
O6    C4    A    
O1    V2    S    
C13   H9    S    
O2    V1    S    
H2    C30   S    
H3    C23   S    
C2    C37   S    
O14   C46   A    
C18   C26   A    
C19   C27   A    
C7    C27   A    
O3    V1    S    
C16   C20   A    
C5    C29   A    
O3    C1    A    
C6    C30   A    
C33   C35   A    
C34   C36   A    
C4    C7    S    
C10   H24   S    
C10   C12   A    
O7    V1    S    
C1    O8    A    
C11   C13   A    
O8    V2    S    
O19   V4    S    
C12   C14   A    
H4    C24   S    
O17   V3    S    
O5    V1    S    
O20   V3    S    
C15   C17   A    
C16   C18   A    
O12   C48   A    
C10   C32   A    
O11   C47   A    
C25   H13   S    
C38   C40   A    
C42   C44   A    
O9    V2    S    
C41   C43   A    
O10   V1    S    
C40   H20   S    
O12   V3    S    
C8    C28   A    
C9    C31   A    
C36   H18   S    
