data_mof_unit_57723.cif
_audit_creation_date              2013-03-05T15:42:55-0500
_audit_creation_method            fapswitch 2.2
_symmetry_space_group_name_H-M    P1
_symmetry_Int_Tables_number       1
_space_group_crystal_system       triclinic
_cell_length_a                    8.231971
_cell_length_b                    15.059035
_cell_length_c                    22.884862
_cell_angle_alpha                 96.820739
_cell_angle_beta                  89.410895
_cell_angle_gamma                 99.353964
_cell_volume                      2779.2827354

loop_
_atom_site_label
_atom_site_type_symbol
_atom_site_description
_atom_site_fract_x
_atom_site_fract_y
_atom_site_fract_z
_atom_type_partial_charge
P1    P     P_3+3 0.054670 0.423610 0.368990 0.478796
O1    O     O_2   0.888680 0.450300 0.360330 -0.359118
O2    O     O_3   0.129270 0.451230 0.431380 -0.406301
O3    O     O_3   0.676100 0.614850 0.396630 -0.390337
O4    O     O_2   0.795968 0.554758 0.293102 -0.403862
O5    O     O_3   0.018580 0.305593 0.352218 -0.554480
O6    O     O_3   0.728801 0.719817 0.301174 -0.525909
H1    H     H_    0.740140 0.783177 0.386907 0.142261
C1    C     C_3   0.708037 0.876331 0.325799 -0.944806
H2    H     H_    0.664131 0.925414 0.360023 0.225760
H3    H     H_    0.842394 0.897002 0.319923 0.280633
P2    P     P_3+3 0.674060 0.707690 0.546600 0.471317
P3    P     P_3+3 0.142742 0.779003 0.426747 0.439885
O7    O     O_2   0.851930 0.720960 0.529560 -0.361619
O8    O     O_3   0.095720 0.661380 0.425720 -0.400188
O9    O     O_2   0.011782 0.822458 0.463858 -0.383259
O10   O     O_3   0.681256 0.731649 0.623407 -0.556929
O11   O     O_3   0.118878 0.809056 0.356181 -0.528111
C2    C     C_3   0.139677 0.735365 0.314708 0.424372
H4    H     H_    0.044771 0.675855 0.320409 0.164483
H5    H     H_    0.264077 0.716876 0.318665 0.028992
C3    C     C_3   0.119109 0.760818 0.253248 -0.830183
H6    H     H_    0.006633 0.792108 0.250574 0.275344
H7    H     H_    0.227857 0.809629 0.241964 0.252001
C4    C     C_3   0.235580 0.735729 0.600118 0.425374
H8    H     H_    0.355556 0.714679 0.589119 0.089938
H9    H     H_    0.151220 0.718118 0.561460 0.127472
C5    C     C_3   0.261012 0.837930 0.616865 -0.933557
H10   H     H_    0.348120 0.857473 0.654689 0.273269
H11   H     H_    0.312082 0.873340 0.579456 0.218913
H12   H     H_    0.141542 0.859898 0.629183 0.274226
Ba1   Ba    Ba6+2 0.857590 0.542650 0.472590 1.546263
C6    C     C_3   0.960643 0.264900 0.401764 0.429820
H13   H     H_    0.843058 0.286609 0.415352 0.087411
H14   H     H_    0.050567 0.282885 0.438670 0.133023
C7    C     C_3   0.933597 0.162564 0.385515 -0.953547
H15   H     H_    0.836735 0.142293 0.350881 0.270076
H16   H     H_    0.894686 0.127620 0.424423 0.224567
H17   H     H_    0.049884 0.140743 0.368904 0.269550
C8    C     C_3   0.713851 0.655756 0.648249 0.413049
H18   H     H_    0.832649 0.638062 0.632080 0.094963
H19   H     H_    0.614455 0.596948 0.637497 0.139356
C9    C     C_3   0.723792 0.678452 0.714800 -0.885366
H20   H     H_    0.827605 0.734387 0.727083 0.275141
H21   H     H_    0.743636 0.618287 0.735656 0.221705
H22   H     H_    0.607027 0.699476 0.731566 0.267275
P4    P     P_3+3 0.135040 0.576460 0.631020 0.478496
O12   O     O_2   0.301020 0.549730 0.639710 -0.364083
O13   O     O_3   0.060450 0.548840 0.568630 -0.408983
O14   O     O_3   0.513610 0.385220 0.603380 -0.374846
O15   O     O_3   0.169260 0.694362 0.648420 -0.547431
P5    P     P_3+3 0.050417 0.220433 0.574199 0.454051
O16   O     O_3   0.611400 0.391150 0.470030 -0.393978
O17   O     O_3   0.093990 0.338690 0.574280 -0.393091
O18   O     O_2   0.180863 0.177844 0.536300 -0.377083
O19   O     O_3   0.082434 0.191638 0.644411 -0.524430
Ba2   Ba    Ba6+2 0.332250 0.457420 0.527420 1.547418
P6    P     P_3+3 0.665334 0.610292 0.320013 0.440271
C10   C     C_3   0.673442 0.781713 0.344726 0.466659
H23   H     H_    0.538669 0.764157 0.351487 0.022966
H24   H     H_    0.642981 0.877518 0.283694 0.264073
O20   O     O_3   0.578310 0.608920 0.529980 -0.404463
C11   C     C_3   0.473319 0.326408 0.348382 0.411568
H25   H     H_    0.353510 0.342752 0.365107 0.099037
H26   H     H_    0.570628 0.386726 0.357903 0.123781
C12   C     C_3   0.459111 0.302149 0.282008 -0.919833
H27   H     H_    0.360533 0.242869 0.271094 0.272718
H28   H     H_    0.428322 0.360165 0.261121 0.223226
H29   H     H_    0.577819 0.285436 0.264083 0.266099
P7    P     P_3+3 0.520156 0.278676 0.450212 0.438368
O21   O     O_2   0.337770 0.279070 0.470480 -0.359929
O22   O     O_3   0.513625 0.252299 0.373635 -0.565927
H30   H     H_    0.105845 0.698925 0.221085 0.244501
C13   C     C_3   0.048294 0.261827 0.686268 0.254495
H31   H     H_    0.136449 0.325046 0.682294 0.131083
H32   H     H_    0.920970 0.274705 0.680575 0.036791
C14   C     C_3   0.067976 0.235136 0.747735 -0.051841
H33   H     H_    0.069467 0.295415 0.780592 0.109604
H34   H     H_    0.187766 0.211420 0.751571 0.166761
P8    P     P_3+3 0.534108 0.388502 0.679367 0.443949
C15   C     C_3   0.499893 0.215543 0.659570 0.443918
H35   H     H_    0.636738 0.226818 0.660661 0.046537
O23   O     O_2   0.431442 0.458299 0.709361 -0.400377
O24   O     O_3   0.436918 0.283001 0.696950 -0.529845
H36   H     H_    0.456544 0.214356 0.613595 0.129478
H37   H     H_    0.499132 0.070815 0.652184 0.215597
C16   C     C_3   0.440309 0.122811 0.679302 -0.840359
H38   H     H_    0.304971 0.104301 0.673851 0.276357
H39   H     H_    0.472986 0.123029 0.726250 0.290355
H40   H     H_    0.972438 0.282375 0.050755 0.176377
H41   H     H_    0.893049 0.275747 0.948488 0.185849
C17   C     C_R   0.344108 0.525764 0.332748 -0.523345
C18   C     C_R   0.109943 0.575232 0.940154 -0.064373
C19   C     C_R   0.062883 0.569961 0.880045 0.544156
O25   O     O_2   0.091761 0.637705 0.854714 -0.575665
N1    N     N_R   0.982025 0.489334 0.850228 -0.164859
C20   C     C_R   0.945591 0.413339 0.880360 0.498575
O26   O     O_2   0.873811 0.341987 0.855167 -0.568557
C21   C     C_R   0.991122 0.416588 0.940088 -0.048461
C22   C     C_R   0.073511 0.497954 0.970183 -0.014631
C23   C     C_R   0.192121 0.656196 0.971163 -0.109219
C24   C     C_R   0.236918 0.660189 0.030451 -0.111446
C25   C     C_R   0.201233 0.583350 0.060925 -0.043157
C26   C     C_R   0.119273 0.501961 0.030594 -0.016489
C27   C     C_R   0.956059 0.339598 0.970386 -0.099548
C28   C     C_R   0.001864 0.343360 0.029379 -0.115302
C29   C     C_R   0.083606 0.424361 0.060326 -0.058922
C30   C     C_R   0.131054 0.429057 0.120135 0.533822
N2    N     N_R   0.208671 0.509939 0.150595 -0.163035
C31   C     C_R   0.245399 0.586358 0.120971 0.508752
C32   C     C_2   0.783766 0.440863 0.768469 -0.148334
C33   C     C_3   0.754463 0.411609 0.703568 0.150304
C34   C     C_1   0.006286 0.516149 0.685609 0.295161
C35   C     C_2   0.053294 0.520861 0.741988 -0.207599
C36   C     C_2   0.934800 0.483784 0.787750 0.081967
C37   C     C_R   0.415337 0.553277 0.232720 -0.205595
C38   C     C_R   0.458571 0.559513 0.292379 0.221586
C39   C     C_R   0.187842 0.482093 0.314477 0.289688
C40   C     C_R   0.141639 0.477396 0.254682 -0.207504
C41   C     C_R   0.254631 0.514079 0.212844 0.111831
O27   O     O_2   0.105593 0.360441 0.144710 -0.584672
O28   O     O_2   0.316081 0.657534 0.146834 -0.604536
C42   C     C_2   0.864054 0.469333 0.664986 -0.489986
H42   H     H_    0.299826 0.724009 0.052412 0.174014
H43   H     H_    0.507119 0.578436 0.201900 0.178797
H44   H     H_    0.222204 0.717014 0.949658 0.176839
H45   H     H_    0.178705 0.550249 0.755019 0.189162
H46   H     H_    0.690925 0.415892 0.799168 0.182884
H47   H     H_    0.018770 0.444992 0.240883 0.187087
H48   H     H_    0.379746 0.529710 0.378476 0.181259
H49   H     H_    0.838922 0.456816 0.618022 0.177872
C43   C     C_R   0.753236 0.233963 0.523327 -0.528389
C44   C     C_R   0.843766 0.174077 0.544244 0.254038
C45   C     C_R   0.783211 0.080673 0.536964 -0.267882
C46   C     C_R   0.633343 0.045767 0.505591 0.078912
C47   C     C_R   0.552652 0.108736 0.480882 -0.252289
C48   C     C_R   0.612156 0.201113 0.489824 0.301083
C49   C     C_R   0.410738 0.912940 0.467148 -0.284477
C50   C     C_R   0.348366 0.820448 0.458226 0.255735
C51   C     C_R   0.583002 0.788160 0.508600 0.319899
C52   C     C_R   0.647890 0.880596 0.517378 -0.252538
C53   C     C_R   0.564792 0.945567 0.495972 0.068362
C54   C     C_R   0.437406 0.758178 0.477027 -0.536718
H50   H     H_    0.332571 0.957065 0.452956 0.157695
H51   H     H_    0.857928 0.037520 0.554497 0.156395
H52   H     H_    0.760590 0.899609 0.542476 0.155188
H53   H     H_    0.446586 0.088572 0.452489 0.145715
H54   H     H_    0.387128 0.686676 0.471000 0.178394
H55   H     H_    0.800238 0.305895 0.528685 0.169931
N3    N     N_R   0.934148 0.163950 0.760247 0.284247
O29   O     O_R   0.964900 0.084290 0.768476 -0.346864
O30   O     O_R   0.784410 0.180847 0.765757 -0.366505

loop_
_geom_bond_atom_site_label_1
_geom_bond_atom_site_label_2
_geom_bond_distance
_ccdc_geom_bond_type
C12   H28   1.108903 S    
C16   H38   1.108211 S    
C11   H26   1.110975 S    
C18   C19   1.422534 A    
P5    C44   1.837236 S    
H41   C27   1.083277 S    
C2    H4    1.108420 S    
C51   C54   1.388107 A    
C30   O27   1.221928 D    
P8    O24   1.748764 S    
C35   C36   1.516846 S    
O12   Ba2   2.802881 S    
P4    O13   1.543551 S    
C14   H33   1.106347 S    
C37   C38   1.402925 A    
C4    C5    1.521907 S    
C23   C24   1.401496 A    
C13   H32   1.108165 S    
O4    P6    1.546435 D    
C25   C31   1.418671 A    
C1    H24   1.110590 S    
P3    C50   1.829906 S    
C7    H15   1.110665 S    
C2    H5    1.111299 S    
P1    O1    1.506968 D    
H1    C10   1.111599 S    
C12   H29   1.110739 S    
C28   C29   1.407146 A    
C22   C26   1.428422 A    
C6    C7    1.522109 S    
O13   Ba2   2.905238 S    
C30   N2    1.390035 Am   
O1    Ba1   2.802346 S    
O11   C2    1.403510 S    
C17   C39   1.390273 A    
C39   C40   1.414633 A    
C40   H47   1.081847 S    
C50   C54   1.388332 A    
C46   C53   1.513469 S    
C21   C22   1.405220 A    
C43   C44   1.387862 A    
C13   C14   1.525348 S    
P2    O10   1.751522 S    
C29   C30   1.417745 A    
P2    C51   1.829090 S    
N1    C36   1.474773 S    
P7    O21   1.567575 D    
C1    H2    1.110819 S    
O6    P6    1.750239 S    
P5    O18   1.545726 D    
C46   C47   1.414219 A    
C12   H27   1.110656 S    
C11   C12   1.520632 S    
C10   H23   1.111546 S    
P2    Ba1   3.390613 S    
C43   H55   1.082270 S    
C19   O25   1.221518 D    
Ba1   Ba2   4.539057 S    
P8    O23   1.547779 D    
C24   H42   1.083157 S    
O16   P7    1.746320 S    
O6    C10   1.406390 S    
C20   C21   1.414183 A    
P5    O17   1.758296 S    
C20   O26   1.220474 D    
C14   H34   1.109668 S    
C54   H54   1.082014 S    
C21   C27   1.409361 A    
O19   C13   1.401531 S    
C13   H31   1.111689 S    
P1    O5    1.750081 S    
Ba2   O20   2.789230 S    
C2    C3    1.519178 S    
C51   C52   1.399070 A    
H40   C28   1.083217 S    
C33   C42   1.503371 S    
C49   C53   1.422130 A    
C18   C23   1.408559 A    
O16   Ba2   2.893704 S    
H37   C16   1.111015 S    
P4    O15   1.749878 S    
C4    H8    1.103163 S    
C7    H17   1.110834 S    
P6    C38   1.834632 S    
C15   H35   1.111698 S    
C37   C41   1.414295 A    
O14   P8    1.742933 S    
P1    O2    1.543578 S    
O10   C8    1.399455 S    
C17   H48   1.081942 S    
C9    H20   1.110652 S    
C4    O15   1.395933 S    
P4    Ba2   3.365624 S    
P2    O20   1.571285 S    
P4    O12   1.507267 D    
C34   C42   1.324643 D    
N1    C20   1.395261 Am   
P8    C33   1.867608 S    
C23   H44   1.083127 S    
O2    Ba1   2.904404 S    
O3    Ba1   2.732473 S    
Ba2   O21   2.849670 S    
C19   N1    1.390211 Am   
C9    H21   1.108071 S    
C18   C22   1.410234 A    
C15   C16   1.522219 S    
C52   H52   1.076166 S    
C17   C38   1.391969 A    
P3    O11   1.749383 S    
C8    H18   1.103689 S    
P2    O7    1.499199 D    
C37   H43   1.082265 S    
C1    H3    1.110514 S    
C44   C45   1.404574 A    
C3    H7    1.111215 S    
C7    H16   1.105886 S    
O2    Ba2   2.758170 S    
Ba1   O16   2.789865 S    
C32   H46   1.085075 S    
C15   O24   1.410009 S    
C34   C35   1.341279 D    
P4    C34   1.854261 S    
C45   H51   1.076341 S    
C5    H10   1.110723 S    
C32   C33   1.508507 S    
C42   H49   1.085001 S    
C3    H6    1.110364 S    
O14   Ba2   2.731813 S    
C5    H12   1.110872 S    
O7    Ba1   2.849561 S    
C47   C48   1.389222 A    
O8    Ba1   2.731843 S    
C14   N3    1.458547 S    
C32   C36   1.356685 D    
C40   C41   1.423845 A    
C45   C46   1.425328 A    
C4    H9    1.110092 S    
C27   C28   1.397634 A    
O5    C6    1.395536 S    
C8    C9    1.520811 S    
P3    O8    1.747934 S    
C43   C48   1.386648 A    
Ba1   O20   2.894609 S    
C5    H11   1.105507 S    
C49   H50   1.074992 S    
N2    C31   1.394032 Am   
C31   O28   1.221225 D    
C35   H45   1.084918 S    
C8    H19   1.109570 S    
C6    H14   1.108160 S    
C6    H13   1.101382 S    
N3    O30   1.300452 A    
P1    C39   1.858153 S    
P1    Ba1   3.365021 S    
C24   C25   1.410167 A    
C9    H22   1.110789 S    
Ba1   O13   2.757569 S    
C47   H53   1.074889 S    
C49   C50   1.395519 A    
C11   H25   1.108402 S    
C11   O22   1.402517 S    
P7    C48   1.820108 S    
P3    O9    1.546025 D    
O3    P6    1.749150 S    
C25   C26   1.406401 A    
C16   H39   1.109743 S    
N3    O29   1.300760 A    
P7    O22   1.749688 S    
C3    H30   1.108160 S    
C1    C10   1.520229 S    
C52   C53   1.415446 A    
C26   C29   1.409942 A    
C15   H36   1.111666 S    
P5    O19   1.746603 S    
N2    C41   1.469259 S    
O17   Ba2   2.732387 S    
