data_mof_unit_22426.cif
_audit_creation_date              2012-12-11T15:22:21-0500
_audit_creation_method            fapswitch 2.2
_symmetry_space_group_name_H-M    P1
_symmetry_Int_Tables_number       1
_space_group_crystal_system       triclinic
_cell_length_a                    22.407866
_cell_length_b                    13.029073
_cell_length_c                    26.897453
_cell_angle_alpha                 90.170244
_cell_angle_beta                  90.523291
_cell_angle_gamma                 90.2606
_cell_volume                      7852.36712977

loop_
_atom_site_label
_atom_site_type_symbol
_atom_type_description
_atom_site_fract_x
_atom_site_fract_y
_atom_site_fract_z
_atom_type_partial_charge
C1    C     C_R   0.720771 0.344207 0.178222 0.535595
C2    C     C_R   0.278290 0.347782 0.820654 0.552507
C3    C     C_R   0.220771 0.844207 0.178222 0.535594
C4    C     C_R   0.778290 0.847782 0.820654 0.552507
C5    C     C_R   0.479034 0.163852 0.870299 -0.012841
C6    C     C_R   0.523125 0.163083 0.128725 -0.021271
C7    C     C_R   0.979034 0.663852 0.870300 -0.012841
C8    C     C_R   0.023125 0.663083 0.128725 -0.021271
C9    C     C_R   0.511864 0.257997 0.104761 -0.037873
C10   C     C_R   0.489691 0.258549 0.894766 -0.028686
C11   C     C_R   0.011864 0.757997 0.104761 -0.037873
C12   C     C_R   0.989691 0.758549 0.894766 -0.028686
C13   C     C_R   0.504740 0.259434 0.052388 -0.001309
C14   C     C_R   0.496320 0.259693 0.947104 0.017651
C15   C     C_R   0.004740 0.759434 0.052388 -0.001309
C16   C     C_R   0.996320 0.759693 0.947104 0.017651
C17   C     C_R   0.504480 0.165853 0.025537 0.051453
C18   C     C_R   0.499330 0.165999 0.973282 0.062177
C19   C     C_R   0.004481 0.665853 0.025537 0.051453
C20   C     C_R   0.999330 0.665999 0.973282 0.062177
C21   C     C_R   0.499374 0.351770 0.025865 -0.129498
C22   C     C_R   0.497395 0.351851 0.974169 -0.129713
C23   C     C_R   0.999374 0.851770 0.025865 -0.129498
C24   C     C_R   0.997395 0.851851 0.974169 -0.129713
C25   C     C_R   0.734246 0.978376 0.124744 0.002616
C26   C     C_R   0.261111 0.960996 0.871357 0.008211
C27   C     C_R   0.234246 0.478376 0.124744 0.002616
C28   C     C_R   0.761111 0.460996 0.871357 0.008211
C29   C     C_R   0.786116 0.003351 0.098814 -0.142942
C30   C     C_R   0.218367 0.003857 0.903102 -0.133792
C31   C     C_R   0.286116 0.503351 0.098814 -0.142942
C32   C     C_R   0.718367 0.503857 0.903102 -0.133792
C33   C     C_R   0.786221 0.010480 0.046744 0.003791
C34   C     C_R   0.219016 0.981652 0.954004 0.023557
C35   C     C_R   0.286221 0.510480 0.046744 0.003791
C36   C     C_R   0.719016 0.481652 0.954004 0.023556
C37   C     C_R   0.734010 0.980315 0.019489 0.108663
C38   C     C_R   0.261270 0.911227 0.972768 0.130920
C39   C     C_R   0.234010 0.480315 0.019489 0.108663
C40   C     C_R   0.761270 0.411227 0.972768 0.130920
C41   C     C_R   0.682074 0.955980 0.046127 -0.074253
C42   C     C_R   0.303076 0.867329 0.941035 -0.078052
C43   C     C_R   0.182074 0.455980 0.046127 -0.074253
C44   C     C_R   0.803076 0.367329 0.941035 -0.078052
C45   C     C_R   0.552771 0.157203 0.177919 0.537123
C46   C     C_R   0.447726 0.157578 0.821785 0.549352
C47   C     C_R   0.052771 0.657203 0.177919 0.537123
C48   C     C_R   0.947726 0.657578 0.821785 0.549353
C49   C     C_R   0.682200 0.954288 0.097810 -0.142106
C50   C     C_R   0.303161 0.891980 0.890749 -0.150909
C51   C     C_R   0.182200 0.454288 0.097810 -0.142106
C52   C     C_R   0.803161 0.391979 0.890749 -0.150909
C53   C     C_R   0.716274 0.858287 0.948982 0.188490
C54   C     C_R   0.299643 0.917993 0.060142 0.166281
C55   C     C_R   0.216274 0.358287 0.948982 0.188490
C56   C     C_R   0.799643 0.417993 0.060142 0.166281
C57   C     C_R   0.727244 0.826960 0.900250 -0.137329
C58   C     C_R   0.287228 0.908132 0.111143 -0.167906
C59   C     C_R   0.227243 0.326960 0.900250 -0.137329
C60   C     C_R   0.787228 0.408132 0.111143 -0.167906
C61   C     C_R   0.767676 0.993936 0.880992 -0.162105
C62   C     C_R   0.195788 0.816301 0.090983 -0.140469
C63   C     C_R   0.267676 0.493936 0.880992 -0.162105
C64   C     C_R   0.695788 0.316301 0.090983 -0.140469
C65   C     C_R   0.753794 0.028673 0.929344 0.210553
C66   C     C_R   0.207746 0.823718 0.040272 0.222839
C67   C     C_R   0.253794 0.528672 0.929344 0.210553
C68   C     C_R   0.707746 0.323718 0.040272 0.222839
C69   C     C_R   0.734082 0.957223 0.965054 0.102788
C70   C     C_R   0.258435 0.878618 0.024940 0.112591
C71   C     C_R   0.234081 0.457223 0.965054 0.102788
C72   C     C_R   0.758435 0.378618 0.024940 0.112591
C73   C     C_R   0.756298 0.891850 0.867232 -0.046434
C74   C     C_R   0.233970 0.861863 0.126136 -0.029730
C75   C     C_R   0.256298 0.391850 0.867232 -0.046434
C76   C     C_R   0.733970 0.361863 0.126136 -0.029730
C77   C     C_R   0.523320 0.170016 0.369445 0.009790
C78   C     C_R   0.475680 0.167231 0.629569 0.005426
C79   C     C_R   0.023320 0.670017 0.369445 0.009790
C80   C     C_R   0.975680 0.667231 0.629569 0.005426
C81   C     C_R   0.539376 0.255766 0.398524 -0.149642
C82   C     C_R   0.468651 0.259571 0.603218 -0.154137
C83   C     C_R   0.039376 0.755766 0.398524 -0.149641
C84   C     C_R   0.968652 0.759571 0.603218 -0.154138
C85   C     C_R   0.528315 0.257455 0.449074 -0.138058
C86   C     C_R   0.476238 0.262290 0.552004 -0.137737
C87   C     C_R   0.028315 0.757456 0.449074 -0.138056
C88   C     C_R   0.976238 0.762291 0.552004 -0.137737
C89   C     C_R   0.730142 0.005834 0.177799 0.537955
C90   C     C_R   0.268975 0.003382 0.821199 0.543212
C91   C     C_R   0.230142 0.505834 0.177799 0.537955
C92   C     C_R   0.768976 0.503382 0.821199 0.543212
C93   C     C_R   0.499014 0.175563 0.471669 0.015246
C94   C     C_R   0.493015 0.173866 0.526152 0.015682
C95   C     C_R   0.999013 0.675564 0.471669 0.015246
C96   C     C_R   0.993014 0.673867 0.526151 0.015682
C97   C     C_R   0.477307 0.094156 0.442286 -0.123601
C98   C     C_R   0.506083 0.084328 0.552610 -0.125532
C99   C     C_R   0.977306 0.594157 0.442286 -0.123602
C100  C     C_R   0.006082 0.584328 0.552609 -0.125531
C101  C     C_R   0.488739 0.090344 0.390970 -0.009463
C102  C     C_R   0.498407 0.079928 0.604219 -0.011516
C103  C     C_R   0.988739 0.590345 0.390970 -0.009463
C104  C     C_R   0.998406 0.579928 0.604218 -0.011516
C105  C     C_R   0.741842 0.961008 0.373322 0.052800
C106  C     C_R   0.260125 0.964581 0.625585 0.043604
C107  C     C_R   0.241842 0.461008 0.373322 0.052800
C108  C     C_R   0.760125 0.464579 0.625585 0.043604
C109  C     C_R   0.715817 0.866608 0.385213 -0.186931
C110  C     C_R   0.308484 0.915786 0.602897 -0.196176
C111  C     C_R   0.215813 0.366612 0.385214 -0.186931
C112  C     C_R   0.808483 0.415780 0.602898 -0.196175
C113  C     C_R   0.720914 0.828215 0.433082 -0.158130
C114  C     C_R   0.308155 0.898407 0.552276 -0.161243
C115  C     C_R   0.220909 0.328221 0.433084 -0.158132
C116  C     C_R   0.808154 0.398399 0.552277 -0.161242
C117  C     C_R   0.751239 0.883871 0.469739 -0.011902
C118  C     C_R   0.258687 0.925894 0.523791 -0.014701
C119  C     C_R   0.251237 0.383875 0.469740 -0.011902
C120  C     C_R   0.758687 0.425889 0.523792 -0.014701
C121  C     C_R   0.777596 0.979571 0.458826 -0.008886
C122  C     C_R   0.208612 0.974041 0.545383 -0.006162
C123  C     C_R   0.277598 0.479571 0.458826 -0.008887
C124  C     C_R   0.708613 0.474038 0.545383 -0.006163
C125  C     C_R   0.773348 0.018564 0.409991 0.229026
C126  C     C_R   0.209819 0.994314 0.596852 0.230014
C127  C     C_R   0.273350 0.518562 0.409991 0.229026
C128  C     C_R   0.709819 0.494313 0.596852 0.230014
C129  C     C_R   0.801655 0.782362 0.534764 -0.113619
C130  C     C_R   0.213597 0.825993 0.456693 -0.102830
C131  C     C_R   0.301652 0.282364 0.534765 -0.113616
C132  C     C_R   0.713596 0.325991 0.456693 -0.102828
C133  C     C_R   0.721778 0.348293 0.320874 0.530011
C134  C     C_R   0.294988 0.305538 0.672970 0.552464
C135  C     C_R   0.221778 0.848293 0.320874 0.530011
C136  C     C_R   0.794988 0.805537 0.672970 0.552465
C137  C     C_R   0.814862 0.769782 0.585010 -0.141636
C138  C     C_R   0.202369 0.812817 0.406727 -0.074555
C139  C     C_R   0.314860 0.269783 0.585010 -0.141635
C140  C     C_R   0.702368 0.312817 0.406727 -0.074550
C141  C     C_R   0.731233 0.878470 0.606507 -0.095056
C142  C     C_R   0.282130 0.932884 0.386866 -0.136542
C143  C     C_R   0.231234 0.378475 0.606508 -0.095058
C144  C     C_R   0.782131 0.432878 0.386867 -0.136542
C145  C     C_R   0.717016 0.888868 0.556393 -0.106524
C146  C     C_R   0.293575 0.946319 0.437427 -0.128204
C147  C     C_R   0.217016 0.388875 0.556395 -0.106527
C148  C     C_R   0.793577 0.446311 0.437428 -0.128205
C149  C     C_R   0.753836 0.844672 0.520471 0.034540
C150  C     C_R   0.257465 0.895705 0.472037 0.028588
C151  C     C_R   0.253834 0.344677 0.520472 0.034540
C152  C     C_R   0.757466 0.395699 0.472038 0.028588
C153  C     C_R   0.781569 0.821877 0.620757 0.042323
C154  C     C_R   0.234931 0.869099 0.372043 0.060531
C155  C     C_R   0.281568 0.321879 0.620757 0.042324
C156  C     C_R   0.734931 0.369098 0.372043 0.060531
C157  C     C_R   0.553048 0.158940 0.320977 0.530119
C158  C     C_R   0.446742 0.158606 0.678718 0.522994
C159  C     C_R   0.053048 0.658940 0.320977 0.530118
C160  C     C_R   0.946743 0.658606 0.678718 0.522994
C161  C     C_R   0.731279 0.005132 0.324063 0.575184
C162  C     C_R   0.268563 0.004293 0.676133 0.560653
C163  C     C_R   0.231279 0.505132 0.324063 0.575183
C164  C     C_R   0.768563 0.504292 0.676133 0.560653
C165  C     C_R   0.517198 0.071005 0.101872 -0.161165
C166  C     C_R   0.487572 0.071688 0.896298 -0.137854
C167  C     C_R   0.017198 0.571005 0.101872 -0.161165
C168  C     C_R   0.987572 0.571688 0.896298 -0.137854
C169  C     C_R   0.508781 0.071593 0.050788 0.006017
C170  C     C_R   0.497371 0.071998 0.947293 0.020426
C171  C     C_R   0.008781 0.571593 0.050788 0.006017
C172  C     C_R   0.997371 0.571998 0.947293 0.020426
C173  C     C_R   0.501728 0.978994 0.972949 -0.104590
C174  C     C_R   0.507522 0.978765 0.024398 -0.120352
C175  C     C_R   0.001728 0.478994 0.972949 -0.104590
C176  C     C_R   0.007521 0.478765 0.024398 -0.120352
Cr1   Cr    Cr6+3 0.756570 0.170940 0.251190 1.022438
Cr2   Cr    Cr6+3 0.243430 0.170940 0.748810 1.020145
Cr3   Cr    Cr6+3 0.256570 0.670940 0.251190 1.022439
Cr4   Cr    Cr6+3 0.743430 0.670940 0.748810 1.020145
Cr5   Cr    Cr6+3 0.623740 0.299110 0.249580 1.020605
Cr6   Cr    Cr6+3 0.376260 0.299110 0.750420 1.018422
Cr7   Cr    Cr6+3 0.123740 0.799110 0.249580 1.020605
Cr8   Cr    Cr6+3 0.876260 0.799110 0.750420 1.018421
Cr9   Cr    Cr6+3 0.625990 0.036240 0.250480 1.012503
Cr10  Cr    Cr6+3 0.374010 0.036240 0.749520 1.007227
Cr11  Cr    Cr6+3 0.125990 0.536240 0.250480 1.012502
Cr12  Cr    Cr6+3 0.874010 0.536240 0.749520 1.007226
H1    H     H_    0.482282 0.998400 0.877509 0.133676
H2    H     H_    0.523493 0.997725 0.120155 0.128566
H3    H     H_    0.982282 0.498400 0.877509 0.133676
H4    H     H_    0.023493 0.497725 0.120156 0.128566
H5    H     H_    0.787872 0.045724 0.854498 0.107848
H6    H     H_    0.156670 0.774411 0.103209 0.114275
H7    H     H_    0.287873 0.545724 0.854498 0.107848
H8    H     H_    0.656670 0.274411 0.103209 0.114275
H9    H     H_    0.640924 0.937221 0.026612 0.153456
H10   H     H_    0.335388 0.813427 0.955050 0.152995
H11   H     H_    0.140924 0.437222 0.026612 0.153456
H12   H     H_    0.835388 0.313427 0.955050 0.152994
H13   H     H_    0.640653 0.938305 0.116601 0.128778
H14   H     H_    0.337109 0.858893 0.867275 0.119370
H15   H     H_    0.140653 0.438305 0.116601 0.128778
H16   H     H_    0.837109 0.358893 0.867275 0.119370
H17   H     H_    0.565016 0.318584 0.383140 0.142678
H18   H     H_    0.451917 0.327893 0.621306 0.139639
H19   H     H_    0.065017 0.818584 0.383140 0.142679
H20   H     H_    0.951918 0.827893 0.621306 0.139638
H21   H     H_    0.522690 0.017719 0.532917 0.103892
H22   H     H_    0.451579 0.033535 0.459561 0.096467
H23   H     H_    0.022689 0.517720 0.532916 0.103892
H24   H     H_    0.951578 0.533536 0.459561 0.096466
H25   H     H_    0.545948 0.320029 0.471051 0.127700
H26   H     H_    0.465956 0.332205 0.532244 0.101783
H27   H     H_    0.045948 0.820030 0.471051 0.127700
H28   H     H_    0.965956 0.832206 0.532244 0.101781
H29   H     H_    0.690866 0.823203 0.357526 0.121501
H30   H     H_    0.347901 0.894358 0.623973 0.142471
H31   H     H_    0.190860 0.323209 0.357528 0.121504
H32   H     H_    0.847900 0.394351 0.623975 0.142470
H33   H     H_    0.830310 0.748033 0.507130 0.115313
H34   H     H_    0.186029 0.786350 0.483463 0.105562
H35   H     H_    0.330305 0.248034 0.507130 0.115313
H36   H     H_    0.686026 0.286349 0.483463 0.105561
H37   H     H_    0.851052 0.720039 0.596042 0.107643
H38   H     H_    0.168094 0.758888 0.394942 0.119241
H39   H     H_    0.351049 0.220037 0.596042 0.107642
H40   H     H_    0.668091 0.258890 0.394941 0.119242
H41   H     H_    0.500269 0.906448 0.953199 0.099264
H42   H     H_    0.511337 0.905960 0.043542 0.096056
H43   H     H_    0.000268 0.406448 0.953199 0.099264
H44   H     H_    0.011337 0.405960 0.043542 0.096056
H45   H     H_    0.699680 0.756615 0.442028 0.121318
H46   H     H_    0.346070 0.861059 0.535343 0.129641
H47   H     H_    0.199673 0.256624 0.442031 0.121320
H48   H     H_    0.846069 0.361049 0.535345 0.129642
H49   H     H_    0.680050 0.937417 0.545461 0.107856
H50   H     H_    0.327748 0.000135 0.449570 0.109732
H51   H     H_    0.180051 0.437425 0.545462 0.107855
H52   H     H_    0.827751 0.500124 0.449571 0.109732
H53   H     H_    0.703738 0.915755 0.634070 0.123622
H54   H     H_    0.308575 0.973502 0.359731 0.112558
H55   H     H_    0.203740 0.415761 0.634071 0.123620
H56   H     H_    0.808577 0.473495 0.359732 0.112560
H57   H     H_    0.495252 0.424794 0.955609 0.106170
H58   H     H_    0.497482 0.425031 0.044612 0.128098
H59   H     H_    0.995252 0.924794 0.955609 0.106170
H60   H     H_    0.997482 0.925031 0.044612 0.128098
H61   H     H_    0.825833 0.026145 0.119485 0.129241
H62   H     H_    0.186778 0.059610 0.888979 0.114904
H63   H     H_    0.325833 0.526145 0.119485 0.129241
H64   H     H_    0.686778 0.559610 0.888979 0.114904
H65   H     H_    0.716964 0.748652 0.889375 0.125907
H66   H     H_    0.317978 0.938449 0.138884 0.095450
H67   H     H_    0.216964 0.248652 0.889375 0.125906
H68   H     H_    0.817978 0.438449 0.138884 0.095450
O1    O     O_R   0.769900 0.064540 0.196060 -0.530135
O2    O     O_R   0.230100 0.064540 0.803940 -0.532916
O3    O     O_R   0.269900 0.564540 0.196060 -0.530135
O4    O     O_R   0.730100 0.564540 0.803940 -0.532917
O5    O     O_R   0.574760 0.239320 0.300850 -0.507693
O6    O     O_R   0.425240 0.239320 0.699150 -0.520964
O7    O     O_R   0.074760 0.739320 0.300850 -0.507693
O8    O     O_R   0.925240 0.739320 0.699150 -0.520965
O9    O     O_R   0.566290 0.069580 0.305400 -0.497625
O10   O     O_R   0.433710 0.069580 0.694600 -0.502495
O11   O     O_R   0.066290 0.569580 0.305400 -0.497625
O12   O     O_R   0.933710 0.569580 0.694600 -0.502494
O13   O     O_R   0.680760 0.993330 0.302620 -0.513177
O14   O     O_R   0.319240 0.993330 0.697380 -0.523882
O15   O     O_R   0.180760 0.493330 0.302620 -0.513178
O16   O     O_R   0.819240 0.493330 0.697380 -0.523882
O17   O     O_3   0.668770 0.168760 0.250420 -0.247133
O18   O     O_3   0.331230 0.168760 0.749580 -0.267024
O19   O     O_3   0.168770 0.668760 0.250420 -0.247133
O20   O     O_3   0.831230 0.668760 0.749580 -0.267024
O21   O     O_R   0.750800 0.274080 0.199250 -0.505563
O22   O     O_R   0.249200 0.274080 0.800750 -0.500998
O23   O     O_R   0.250800 0.774080 0.199250 -0.505563
O24   O     O_R   0.749200 0.774080 0.800750 -0.500998
O25   O     O_R   0.669990 0.371670 0.194150 -0.514290
O26   O     O_R   0.330010 0.371670 0.805850 -0.517488
O27   O     O_R   0.169990 0.871670 0.194150 -0.514290
O28   O     O_R   0.830010 0.871670 0.805850 -0.517488
O29   O     O_R   0.574600 0.238480 0.197800 -0.485559
O30   O     O_R   0.425400 0.238480 0.802200 -0.482437
O31   O     O_R   0.074600 0.738480 0.197800 -0.485559
O32   O     O_R   0.925400 0.738480 0.802200 -0.482437
O33   O     O_R   0.566130 0.068680 0.194240 -0.529321
O34   O     O_R   0.433870 0.068680 0.805760 -0.522010
O35   O     O_R   0.066130 0.568680 0.194240 -0.529321
O36   O     O_R   0.933870 0.568680 0.805760 -0.522010
O37   O     O_R   0.680610 0.992490 0.199570 -0.506355
O38   O     O_R   0.319390 0.992490 0.800430 -0.497423
O39   O     O_R   0.180610 0.492490 0.199570 -0.506355
O40   O     O_R   0.819390 0.492490 0.800430 -0.497423
O41   O     O_R   0.770060 0.065440 0.307230 -0.458649
O42   O     O_R   0.229940 0.065440 0.692770 -0.451630
O43   O     O_R   0.270060 0.565440 0.307230 -0.458644
O44   O     O_R   0.729940 0.565440 0.692770 -0.451630
O45   O     O_R   0.750960 0.274920 0.302300 -0.478030
O46   O     O_R   0.249040 0.274920 0.697700 -0.501428
O47   O     O_R   0.250960 0.774920 0.302300 -0.478032
O48   O     O_R   0.749040 0.774920 0.697700 -0.501428
O49   O     O_R   0.670160 0.372580 0.305320 -0.525450
O50   O     O_R   0.329840 0.372580 0.694680 -0.512756
O51   O     O_R   0.170160 0.872580 0.305320 -0.525450
O52   O     O_R   0.829840 0.872580 0.694680 -0.512757
C177  C     C_R   0.515022 0.983560 0.630050 0.056411
C178  C     C_R   0.555725 0.985818 0.670118 -0.075599
C179  C     C_R   0.573134 0.894577 0.693245 -0.111068
C180  C     C_R   0.550115 0.800563 0.676591 -0.097134
C181  C     C_R   0.509601 0.797585 0.636788 -0.116123
C182  C     C_R   0.492166 0.888576 0.613479 -0.096559
H69   H     H_    0.574359 0.058048 0.683070 0.099410
H70   H     H_    0.604685 0.896714 0.723950 0.112540
H71   H     H_    0.563734 0.730025 0.694483 0.120503
H72   H     H_    0.491828 0.724735 0.623891 0.104885
H73   H     H_    0.460774 0.885046 0.582643 0.091303
C183  C     C_R   0.463027 0.004372 0.361056 0.048072
C184  C     C_R   0.432870 0.024120 0.315986 -0.079804
C185  C     C_R   0.406902 0.943723 0.288700 -0.122804
C186  C     C_R   0.410261 0.843119 0.306296 -0.091502
C187  C     C_R   0.439843 0.822630 0.351097 -0.106742
C188  C     C_R   0.466167 0.902668 0.378383 -0.097166
H74   H     H_    0.428854 0.101854 0.302246 0.095690
H75   H     H_    0.383678 0.959562 0.254120 0.099944
H76   H     H_    0.389794 0.781094 0.285289 0.121168
H77   H     H_    0.442353 0.744665 0.364731 0.113747
H78   H     H_    0.489152 0.885159 0.412902 0.097402
C189  C     C_R   0.015020 0.483559 0.630050 0.056411
C190  C     C_R   0.055723 0.485814 0.670117 -0.075598
C191  C     C_R   0.073131 0.394571 0.693244 -0.111066
C192  C     C_R   0.050110 0.300559 0.676589 -0.097135
C193  C     C_R   0.009595 0.297584 0.636787 -0.116123
C194  C     C_R   0.992162 0.388576 0.613477 -0.096558
H79   H     H_    0.074358 0.558043 0.683069 0.099410
H80   H     H_    0.104681 0.396706 0.723949 0.112539
H81   H     H_    0.063727 0.230020 0.694482 0.120502
H82   H     H_    0.991821 0.224735 0.623889 0.104884
H83   H     H_    0.960770 0.385048 0.582641 0.091304
C195  C     C_R   0.963027 0.504373 0.361056 0.048071
C196  C     C_R   0.932870 0.524121 0.315985 -0.079804
C197  C     C_R   0.906903 0.443723 0.288699 -0.122803
C198  C     C_R   0.910261 0.343119 0.306295 -0.091503
C199  C     C_R   0.939844 0.322631 0.351097 -0.106743
C200  C     C_R   0.966167 0.402669 0.378383 -0.097167
H84   H     H_    0.928854 0.601854 0.302245 0.095690
H85   H     H_    0.883679 0.459561 0.254120 0.099944
H86   H     H_    0.889795 0.281094 0.285288 0.121166
H87   H     H_    0.942353 0.244666 0.364731 0.113746
H88   H     H_    0.989152 0.385160 0.412902 0.097402
C201  C     C_R   0.804849 0.040661 0.499790 0.025850
C202  C     C_R   0.769211 0.108189 0.527189 -0.090705
C203  C     C_R   0.792037 0.155694 0.569942 -0.106301
C204  C     C_R   0.851066 0.138543 0.584786 -0.098991
C205  C     C_R   0.887080 0.072542 0.557235 -0.112862
C206  C     C_R   0.864038 0.023184 0.514890 -0.097185
H89   H     H_    0.723069 0.120420 0.516582 0.100773
H90   H     H_    0.763749 0.205197 0.591766 0.119568
H91   H     H_    0.868744 0.175782 0.617831 0.105608
H92   H     H_    0.932448 0.058410 0.569340 0.097781
H93   H     H_    0.891618 0.969777 0.494573 0.097659
C207  C     C_R   0.155889 0.005415 0.514512 0.023238
C208  C     C_R   0.163672 0.065072 0.471585 -0.089555
C209  C     C_R   0.114469 0.096566 0.443254 -0.113851
C210  C     C_R   0.056829 0.071610 0.458316 -0.102613
C211  C     C_R   0.048423 0.013760 0.501258 -0.131763
C212  C     C_R   0.097553 0.978877 0.528740 -0.110194
H94   H     H_    0.207937 0.087564 0.460210 0.109176
H95   H     H_    0.120975 0.141341 0.409897 0.103008
H96   H     H_    0.018687 0.097040 0.436735 0.107174
H97   H     H_    0.003789 0.994377 0.512687 0.091656
H98   H     H_    0.090073 0.932117 0.561338 0.142807
C213  C     C_R   0.304854 0.540659 0.499789 0.025849
C214  C     C_R   0.269220 0.608186 0.527191 -0.090701
C215  C     C_R   0.292050 0.655692 0.569941 -0.106301
C216  C     C_R   0.351080 0.638544 0.584780 -0.098995
C217  C     C_R   0.387090 0.572545 0.557226 -0.112866
C218  C     C_R   0.364044 0.523187 0.514883 -0.097192
H99   H     H_    0.223078 0.620416 0.516587 0.100772
H100  H     H_    0.263765 0.705194 0.591768 0.119569
H101  H     H_    0.368760 0.675784 0.617823 0.105606
H102  H     H_    0.432458 0.558417 0.569326 0.097785
H103  H     H_    0.391621 0.469783 0.494562 0.097663
C219  C     C_R   0.655890 0.505413 0.514511 0.023238
C220  C     C_R   0.663675 0.565069 0.471584 -0.089554
C221  C     C_R   0.614472 0.596563 0.443252 -0.113850
C222  C     C_R   0.556832 0.571607 0.458313 -0.102613
C223  C     C_R   0.548425 0.513759 0.501255 -0.131763
C224  C     C_R   0.597555 0.478876 0.528738 -0.110195
H104  H     H_    0.707940 0.587560 0.460209 0.109175
H105  H     H_    0.620980 0.641337 0.409895 0.103008
H106  H     H_    0.518691 0.597037 0.436732 0.107174
H107  H     H_    0.503790 0.494375 0.512683 0.091654
H108  H     H_    0.590073 0.432117 0.561336 0.142804
O53   O     O_3   0.796304 0.113894 0.397388 -0.685961
H109  H     H_    0.820190 0.143206 0.425094 0.325347
O54   O     O_3   0.163637 0.046237 0.619437 -0.690343
H110  H     H_    0.148317 0.099176 0.596313 0.328254
O55   O     O_3   0.296310 0.613889 0.397386 -0.685962
H111  H     H_    0.320196 0.643201 0.425092 0.325348
O56   O     O_3   0.663638 0.546239 0.619436 -0.690343
H112  H     H_    0.648318 0.599177 0.596311 0.328254
C225  C     C_R   0.496473 0.354157 0.865596 0.032432
C226  C     C_R   0.448765 0.422583 0.860208 -0.063389
C227  C     C_R   0.455477 0.511707 0.831895 -0.109190
C228  C     C_R   0.510118 0.533601 0.809500 -0.116659
C229  C     C_R   0.558019 0.466119 0.815169 -0.121766
C230  C     C_R   0.551207 0.376378 0.842977 -0.102603
H113  H     H_    0.406621 0.406776 0.878078 0.124128
H114  H     H_    0.418462 0.564167 0.827711 0.104361
H115  H     H_    0.515379 0.602901 0.787849 0.105436
H116  H     H_    0.600375 0.483234 0.797950 0.134582
H117  H     H_    0.588536 0.324452 0.847063 0.121718
C231  C     C_R   0.505794 0.353584 0.134521 0.042865
C232  C     C_R   0.549628 0.430961 0.133048 -0.060897
C233  C     C_R   0.543577 0.519670 0.161906 -0.101315
C234  C     C_R   0.493610 0.532140 0.192018 -0.113699
C235  C     C_R   0.449755 0.455617 0.193552 -0.118357
C236  C     C_R   0.455901 0.366368 0.165096 -0.091097
H118  H     H_    0.588185 0.422732 0.109506 0.123117
H119  H     H_    0.577601 0.578819 0.160898 0.101812
H120  H     H_    0.488888 0.601052 0.214182 0.103079
H121  H     H_    0.411053 0.465366 0.216861 0.118985
H122  H     H_    0.421736 0.307418 0.166686 0.100834
C237  C     C_R   0.996473 0.854157 0.865596 0.032432
C238  C     C_R   0.948765 0.922583 0.860208 -0.063389
C239  C     C_R   0.955477 0.011707 0.831895 -0.109191
C240  C     C_R   0.010118 0.033601 0.809500 -0.116658
C241  C     C_R   0.058019 0.966118 0.815169 -0.121766
C242  C     C_R   0.051207 0.876378 0.842977 -0.102603
H123  H     H_    0.906621 0.906776 0.878078 0.124129
H124  H     H_    0.918462 0.064167 0.827711 0.104361
H125  H     H_    0.015379 0.102901 0.787849 0.105435
H126  H     H_    0.100375 0.983233 0.797950 0.134583
H127  H     H_    0.088536 0.824452 0.847064 0.121718
C243  C     C_R   0.005794 0.853584 0.134521 0.042865
C244  C     C_R   0.049628 0.930961 0.133048 -0.060897
C245  C     C_R   0.043577 0.019670 0.161906 -0.101315
C246  C     C_R   0.993610 0.032140 0.192018 -0.113699
C247  C     C_R   0.949755 0.955617 0.193552 -0.118357
C248  C     C_R   0.955901 0.866368 0.165096 -0.091096
H128  H     H_    0.088185 0.922732 0.109506 0.123117
H129  H     H_    0.077601 0.078820 0.160898 0.101812
H130  H     H_    0.988888 0.101052 0.214182 0.103079
H131  H     H_    0.911052 0.965367 0.216861 0.118984
H132  H     H_    0.921736 0.807418 0.166686 0.100833
O57   O     O_3   0.690434 0.791184 0.981894 -0.723818
H133  H     H_    0.670317 0.736018 0.962556 0.329033
O58   O     O_3   0.349326 0.970735 0.043823 -0.723083
H134  H     H_    0.373105 0.993857 0.073082 0.324999
O59   O     O_3   0.190434 0.291185 0.981894 -0.723817
H135  H     H_    0.170317 0.236018 0.962556 0.329033
O60   O     O_3   0.849326 0.470735 0.043823 -0.723083
H136  H     H_    0.873105 0.493857 0.073082 0.324999
C249  C     C_R   0.837572 0.066455 0.024784 0.075575
C250  C     C_R   0.853777 0.162808 0.045021 -0.072570
C251  C     C_R   0.900457 0.219829 0.024922 -0.122613
C252  C     C_R   0.929697 0.183874 0.982973 -0.132493
C253  C     C_R   0.914668 0.088190 0.962998 -0.131474
C254  C     C_R   0.870467 0.027435 0.984851 -0.066835
H137  H     H_    0.829754 0.194504 0.076222 0.117690
H138  H     H_    0.912731 0.293261 0.040927 0.144382
H139  H     H_    0.964646 0.229365 0.966283 0.104527
H140  H     H_    0.938109 0.061436 0.930847 0.101565
H141  H     H_    0.860773 0.952049 0.969699 0.102905
C255  C     C_R   0.176492 0.034612 0.987370 0.023410
C256  C     C_R   0.196963 0.087114 0.030184 -0.064975
C257  C     C_R   0.156654 0.135105 0.061960 -0.076846
C258  C     C_R   0.095767 0.133096 0.050764 -0.104274
C259  C     C_R   0.075285 0.082258 0.008149 -0.131678
C260  C     C_R   0.115206 0.033187 0.976500 -0.097136
H142  H     H_    0.244169 0.093796 0.038208 0.152627
H143  H     H_    0.172755 0.175523 0.094674 0.113317
H144  H     H_    0.064449 0.171165 0.074951 0.102680
H145  H     H_    0.028341 0.079937 0.999886 0.115599
H146  H     H_    0.098397 0.993595 0.943766 0.124522
C261  C     C_R   0.337572 0.566455 0.024784 0.075575
C262  C     C_R   0.353777 0.662809 0.045021 -0.072570
C263  C     C_R   0.400457 0.719829 0.024922 -0.122613
C264  C     C_R   0.429697 0.683874 0.982973 -0.132493
C265  C     C_R   0.414668 0.588190 0.962998 -0.131474
C266  C     C_R   0.370467 0.527435 0.984851 -0.066834
H147  H     H_    0.329754 0.694504 0.076222 0.117690
H148  H     H_    0.412731 0.793261 0.040927 0.144382
H149  H     H_    0.464646 0.729365 0.966283 0.104527
H150  H     H_    0.438109 0.561436 0.930847 0.101565
H151  H     H_    0.360773 0.452049 0.969699 0.102905
C267  C     C_R   0.676492 0.534612 0.987370 0.023410
C268  C     C_R   0.696963 0.587115 0.030184 -0.064975
C269  C     C_R   0.656655 0.635105 0.061960 -0.076846
C270  C     C_R   0.595767 0.633096 0.050764 -0.104274
C271  C     C_R   0.575285 0.582258 0.008149 -0.131677
C272  C     C_R   0.615206 0.533187 0.976500 -0.097136
H152  H     H_    0.744169 0.593796 0.038208 0.152627
H153  H     H_    0.672755 0.675523 0.094674 0.113317
H154  H     H_    0.564449 0.671165 0.074951 0.102680
H155  H     H_    0.528341 0.579937 0.999886 0.115599
H156  H     H_    0.598397 0.493594 0.943766 0.124522
O61   O     O_3   0.760620 0.130339 0.942686 -0.672339
H157  H     H_    0.773699 0.169314 0.913116 0.320557
O62   O     O_3   0.169531 0.781960 0.004914 -0.669158
H158  H     H_    0.136256 0.746380 0.021880 0.326004
O63   O     O_3   0.260620 0.630339 0.942686 -0.672339
H159  H     H_    0.273699 0.669314 0.913116 0.320557
O64   O     O_3   0.669531 0.281959 0.004914 -0.669157
H160  H     H_    0.636256 0.246380 0.021880 0.326003

loop_
_geom_bond_atom_site_label_1
_geom_bond_atom_site_label_2
_ccdc_geom_bond_type
C99   C103  A    
C251  C252  A    
C205  C206  A    
C158  O10   A    
C37   C69   S    
C249  C250  A    
C142  C146  A    
C77   C101  A    
C219  C224  A    
C141  H53   S    
C237  C238  A    
C47   O35   A    
C262  C263  A    
C38   C70   S    
C181  H72   S    
C114  H46   S    
C256  C257  A    
C90   O38   A    
C108  C164  S    
Cr12  O12   S    
C235  C236  A    
C55   C59   A    
C195  C200  A    
C26   C50   A    
C95   C99   A    
C264  H149  S    
C176  H44   S    
C29   C33   A    
C100  C104  A    
C23   H60   S    
C138  H38   S    
C3    C74   S    
C9    C13   A    
C259  H145  S    
C212  H98   S    
Cr2   O2    S    
C146  C150  A    
C131  C151  A    
C192  H81   S    
C12   C16   A    
C187  C188  A    
C56   C72   A    
C169  C174  A    
C210  H96   S    
C232  H118  S    
C162  O42   A    
C172  C175  A    
C141  C145  A    
C138  C154  A    
C265  H150  S    
C6    C165  A    
C53   C69   A    
C222  H106  S    
C21   C22   A    
C242  H127  S    
C41   C49   A    
C211  C212  A    
Cr12  O36   S    
C50   H14   S    
C25   C29   A    
C27   C31   A    
C186  C187  A    
C46   O30   A    
C28   C32   A    
Cr9   O33   S    
C62   C66   A    
C195  C196  A    
C167  C171  A    
C191  C192  A    
C60   C76   A    
Cr6   O50   S    
C7    C168  A    
C15   C19   A    
C225  C230  A    
C1    O21   A    
C260  H146  S    
C163  O43   A    
C78   C82   A    
C3    O23   A    
C134  C155  S    
C54   C70   A    
Cr3   O19   S    
C16   C20   A    
C165  H2    S    
C13   C21   A    
C259  C260  A    
C223  C224  A    
C140  C156  A    
C20   C172  A    
C80   C104  A    
C222  C223  A    
C132  C152  A    
C192  C193  A    
C267  C268  A    
C62   H6    S    
C220  C221  A    
C90   O2    A    
C237  C242  A    
C236  H122  S    
C106  C126  A    
C197  H85   S    
C137  C153  A    
C148  H52   S    
C84   C88   A    
Cr6   O26   S    
C213  C214  A    
Cr10  O18   S    
C119  C123  A    
C26   C90   S    
C5    C46   S    
Cr4   O48   S    
C105  C125  A    
Cr2   O46   S    
C7    C48   S    
C19   C20   A    
Cr3   O43   S    
C8    C47   S    
C107  C127  A    
C215  H100  S    
C109  H29   S    
C225  C226  A    
C231  C232  A    
C1    O25   A    
C136  C153  S    
C217  H102  S    
C66   C70   A    
C144  H56   S    
Cr8   O8    S    
C58   H66   S    
C12   C237  S    
C66   O62   S    
C233  H119  S    
C61   C65   A    
C129  C137  A    
C184  C185  A    
C45   O33   A    
C245  H129  S    
C117  C149  S    
C229  C230  A    
C262  H147  S    
C209  H95   S    
C55   C71   A    
C2    C75   S    
C26   C30   A    
Cr6   O6    S    
C35   C261  S    
C234  C235  A    
Cr4   O24   S    
C89   O37   A    
C6    C9    A    
Cr5   O17   S    
O55   H111  S    
Cr9   O9    S    
C199  H87   S    
C239  C240  A    
C269  C270  A    
C129  C149  A    
C204  H91   S    
C270  H154  S    
Cr7   O19   S    
C64   C68   A    
C85   H25   S    
C257  H143  S    
O54   H110  S    
C216  H101  S    
C207  C208  A    
Cr8   O52   S    
C57   C73   A    
C198  H86   S    
C136  O52   A    
C137  H37   S    
C54   O58   S    
C200  H88   S    
C243  C244  A    
C85   C93   A    
C254  H141  S    
C78   C158  S    
C241  C242  A    
C221  C222  A    
C158  O6    A    
C87   C95   A    
C130  C150  A    
C249  C254  A    
C47   O31   A    
C27   C91   S    
C272  H156  S    
C189  C194  A    
C110  C114  A    
C101  C183  S    
C44   C52   A    
C173  C174  A    
O61   H157  S    
Cr12  O16   S    
C79   C103  A    
C235  H121  S    
C111  H31   S    
C33   C249  S    
C27   C51   A    
C263  C264  A    
C64   C76   A    
C7    C12   A    
C98   H21   S    
C49   H13   S    
C140  H40   S    
C250  C251  A    
C30   C34   A    
C190  C191  A    
C41   H9    S    
C10   C14   A    
Cr3   O3    S    
C261  C266  A    
C187  H77   S    
C142  H54   S    
C108  C128  A    
C193  C194  A    
C163  O15   A    
C29   H61   S    
C207  C212  A    
C144  C156  A    
C147  C151  A    
C86   H26   S    
C121  C125  A    
C164  O44   A    
C84   H20   S    
C123  C127  A    
C265  C266  A    
C139  C155  A    
C54   C58   A    
C17   C18   A    
C112  H32   S    
C5    C166  A    
C142  C154  A    
C123  C213  S    
C174  H42   S    
C4    C73   S    
Cr12  O40   S    
C42   C50   A    
C113  C117  A    
C157  O5    A    
C44   H12   S    
C115  C119  A    
C143  H55   S    
Cr9   O37   S    
Cr10  O34   S    
C104  C189  S    
C61   H5    S    
C126  O54   S    
C82   H18   S    
Cr11  O39   S    
C238  C239  A    
C58   C74   A    
C182  H73   S    
C203  C204  A    
C105  C109  A    
C228  H115  S    
C39   C71   S    
C89   O1    A    
C40   C72   S    
C1    C76   S    
C133  O45   A    
C148  C152  A    
C107  C163  S    
C190  H79   S    
C2    O22   A    
O62   H158  S    
C160  O12   A    
C21   H58   S    
C147  H51   S    
C171  C176  A    
C100  H23   S    
Cr6   O18   S    
C166  H1    S    
C14   C22   A    
C216  C217  A    
O53   H109  S    
C134  O50   A    
C141  C153  A    
C63   C75   A    
C96   C100  A    
Cr7   O31   S    
C228  C229  A    
C4    O28   A    
C105  C161  S    
C243  C248  A    
C37   C41   A    
C91   O3    A    
O58   H134  S    
C40   C44   A    
C197  C198  A    
C159  O7    A    
O57   H133  S    
C160  O8    A    
C24   H59   S    
C131  H35   S    
C247  C248  A    
C240  H125  S    
C81   C85   A    
Cr11  O19   S    
C238  H123  S    
C83   C87   A    
C88   C96   A    
C6    C45   S    
C93   C97   A    
C78   C102  A    
C133  C156  S    
C268  H152  S    
C261  C262  A    
C112  C116  A    
C80   C84   A    
C115  H47   S    
C201  C202  A    
Cr1   O17   S    
C217  C218  A    
C2    O26   A    
C113  H45   S    
C135  C154  S    
C34   C255  S    
C127  O55   S    
C67   O63   S    
C68   O64   S    
C79   C159  S    
C193  H82   S    
C116  C120  A    
C80   C160  S    
C94   C98   A    
C184  H74   S    
C45   O29   A    
C245  C246  A    
C139  H39   S    
C229  H116  S    
C118  C150  S    
C209  C210  A    
Cr1   O41   S    
O56   H112  S    
C128  O56   S    
C65   O61   S    
Cr5   O29   S    
Cr9   O13   S    
C124  C128  A    
Cr10  O10   S    
C4    O24   A    
C18   C170  A    
C185  C186  A    
Cr11  O15   S    
O60   H136  S    
C270  C271  A    
C165  C169  A    
C103  C195  S    
C107  C111  A    
C51   H15   S    
C178  H69   S    
C124  C219  S    
C130  H34   S    
C258  H144  S    
C223  H107  S    
C131  C139  A    
C53   C57   A    
C214  H99   S    
C61   C73   A    
C221  H105  S    
C253  C254  A    
C59   H67   S    
C271  H155  S    
C33   C37   A    
C56   C60   A    
C68   C72   A    
C52   H16   S    
C269  H153  S    
Cr7   O27   S    
C258  C259  A    
C48   O36   A    
C8    C167  A    
C98   C102  A    
C42   H10   S    
C116  H48   S    
C188  H78   S    
C183  C188  A    
C266  H151  S    
C226  H113  S    
C10   C225  S    
C63   H7    S    
C36   C267  S    
C32   C36   A    
C178  C179  A    
C231  C236  A    
C132  H36   S    
C125  O53   S    
C135  O47   A    
C208  C209  A    
C177  C182  A    
C136  O48   A    
C241  H126  S    
C13   C17   A    
C132  C140  A    
C157  O9    A    
C251  H138  S    
C92   O40   A    
C25   C89   S    
C263  H148  S    
C143  C155  A    
C161  O13   A    
C56   O60   S    
C219  C220  A    
C230  H117  S    
C189  C190  A    
C82   C86   A    
C244  H128  S    
C79   C83   A    
C48   O32   A    
C43   C51   A    
C181  C182  A    
C191  H80   S    
C65   C69   A    
C91   O39   A    
C67   C71   A    
C106  C162  S    
Cr10  O38   S    
C25   C49   A    
Cr11  O35   S    
C23   C24   A    
Cr4   O4    S    
C108  C112  A    
C168  C172  A    
Cr5   O5    S    
C252  C253  A    
C264  C265  A    
C87   H27   S    
C226  C227  A    
C62   C74   A    
C9    C231  S    
Cr1   O1    S    
C145  C149  A    
C170  C173  A    
Cr8   O20   S    
C196  C197  A    
C93   C94   S    
C14   C18   A    
C35   C39   A    
C95   C96   S    
C60   H68   S    
C244  C245  A    
C161  O41   A    
C232  C233  A    
C199  C200  A    
C135  O51   A    
O64   H160  S    
C177  C178  A    
C180  C181  A    
C143  C147  A    
C167  H4    S    
O63   H159  S    
C168  H3    S    
C239  H124  S    
C19   C171  A    
C38   C42   A    
C213  C218  A    
C211  H97   S    
C17   C169  A    
C255  C260  A    
C159  O11   A    
C202  H89   S    
C64   H8    S    
C186  H76   S    
C46   O34   A    
C247  H131  S    
Cr2   O22   S    
C240  C241  A    
C117  C121  A    
C86   C94   A    
C175  C176  A    
Cr5   O49   S    
C252  H139  S    
C83   H19   S    
C227  C228  A    
C77   C81   A    
C201  C206  A    
Cr8   O28   S    
C267  C272  A    
Cr2   O18   S    
C15   C23   A    
C203  H90   S    
C164  O16   A    
Cr3   O23   S    
Cr8   O32   S    
C179  H70   S    
C57   H65   S    
C55   O59   S    
C92   O4    A    
C99   H24   S    
C119  C151  S    
C224  H108  S    
C63   C67   A    
C120  C152  S    
C175  H43   S    
C97   H22   S    
C31   H63   S    
C146  H50   S    
C36   C40   A    
C121  C201  S    
C129  H33   S    
C220  H104  S    
C28   C92   S    
C39   C43   A    
Cr12  O20   S    
C179  C180  A    
C102  C177  S    
C30   H62   S    
C145  H49   S    
C122  C126  A    
C118  C122  A    
Cr5   O25   S    
C194  H83   S    
Cr9   O17   S    
Cr6   O30   S    
C210  C211  A    
C53   O57   S    
Cr10  O14   S    
Cr7   O51   S    
C122  C207  S    
C185  H75   S    
Cr11  O11   S    
C268  C269  A    
Cr4   O44   S    
Cr1   O45   S    
C248  H132  S    
C206  H93   S    
Cr2   O42   S    
C227  H114  S    
C255  C256  A    
Cr3   O47   S    
C109  C113  A    
C133  O49   A    
C215  C216  A    
C114  C118  A    
C173  H41   S    
C208  H94   S    
C202  C203  A    
C11   C15   A    
C59   C75   A    
C214  C215  A    
C81   H17   S    
C233  C234  A    
C106  C110  A    
C205  H92   S    
C271  C272  A    
C162  O14   A    
C88   H28   S    
C34   C38   A    
C22   H57   S    
C43   H11   S    
C256  H142  S    
Cr1   O21   S    
C246  H130  S    
C32   H64   S    
C250  H137  S    
C183  C184  A    
C234  H120  S    
C5    C10   A    
Cr4   O20   S    
C28   C52   A    
C246  C247  A    
C11   C243  S    
C253  H140  S    
C8    C11   A    
Cr7   O7    S    
C3    O27   A    
C204  C205  A    
C166  C170  A    
C218  H103  S    
C31   C35   A    
O59   H135  S    
C110  H30   S    
C257  C258  A    
C16   C24   A    
C180  H71   S    
C111  C115  A    
C134  O46   A    
C198  C199  A    
C196  H84   S    
C97   C101  A    
C120  C124  A    
C77   C157  S    
C144  C148  A    
C130  C138  A    
