data_mof_unit_45382.cif
_audit_creation_date              2012-12-10T18:41:20-0500
_audit_creation_method            fapswitch 2.2
_symmetry_space_group_name_H-M    P1
_symmetry_Int_Tables_number       1
_space_group_crystal_system       triclinic
_cell_length_a                    15.121023
_cell_length_b                    13.966946
_cell_length_c                    10.77078
_cell_angle_alpha                 90.070216
_cell_angle_beta                  90.34165
_cell_angle_gamma                 89.597417
_cell_volume                      2274.63143812

loop_
_atom_site_label
_atom_site_type_symbol
_atom_type_description
_atom_site_fract_x
_atom_site_fract_y
_atom_site_fract_z
_atom_type_partial_charge
C1    C     C_R   0.329651 0.500460 0.500930 0.882311
C2    C     C_R   0.669531 0.499480 0.503371 0.831643
C3    C     C_R   0.188285 0.412738 0.497979 -0.386521
C4    C     C_R   0.811048 0.452215 0.414044 -0.372082
C5    C     C_R   0.096116 0.407950 0.505640 0.500468
C6    C     C_R   0.902993 0.451326 0.412028 0.510959
C7    C     C_R   0.046973 0.493543 0.509345 -0.065226
C8    C     C_R   0.950100 0.489933 0.513080 -0.087901
C9    C     C_R   0.546550 0.109087 0.596800 0.238128
C10   C     C_R   0.463204 0.108220 0.405460 0.293340
C11   C     C_R   0.553628 0.210642 0.581532 0.463353
C12   C     C_R   0.453151 0.209052 0.413291 0.463769
C13   C     C_R   0.495180 0.054655 0.509463 -0.158359
C14   C     C_R   0.432539 0.890417 0.430286 0.027546
C15   C     C_R   0.518478 0.888117 0.615969 0.097514
C16   C     C_R   0.444551 0.789387 0.420622 0.225378
C17   C     C_R   0.538943 0.790060 0.595728 0.250888
C18   C     C_R   0.484004 0.944005 0.516571 0.099035
C19   C     C_R   0.500563 0.499893 0.262706 0.817103
C20   C     C_R   0.500025 0.500088 0.737193 0.876570
C21   C     C_R   0.440398 0.552117 0.063400 -0.019627
C22   C     C_R   0.441140 0.553599 0.935808 -0.144576
C23   C     C_R   0.504044 0.500113 0.129363 -0.127404
C24   C     C_R   0.504008 0.500984 0.870295 -0.069843
C25   C     C_R   0.573850 0.454446 0.064946 0.097028
C26   C     C_R   0.573326 0.454398 0.934391 0.141023
C27   C     C_3   0.341930 0.552790 0.926052 0.524594
C28   C     C_3   0.341116 0.549407 0.069914 0.541629
C29   C     C_R   0.089804 0.582835 0.512749 0.435739
C30   C     C_R   0.904671 0.528323 0.615884 0.508125
C31   C     C_R   0.182418 0.586380 0.514487 0.036725
C32   C     C_R   0.812141 0.534616 0.613768 0.042644
C33   C     C_R   0.232210 0.500782 0.503379 -0.177843
C34   C     C_R   0.765492 0.497148 0.510635 -0.193446
Cu1   Cu    Cu3+1 0.500000 0.596430 0.500000 0.981128
Cu2   Cu    Cu3+1 0.500000 0.403570 0.500000 1.016213
H1    H     H_    0.225757 0.347073 0.489025 0.188992
H2    H     H_    0.775263 0.418943 0.338467 0.173775
N1    N     N_R   0.500000 0.258690 0.500000 -0.293137
N2    N     N_R   0.500000 0.741330 0.500000 -0.189507
O1    O     O_R   0.371460 0.581430 0.500010 -0.535252
O2    O     O_R   0.628540 0.581430 0.499990 -0.591633
O3    O     O_R   0.371470 0.418560 0.500010 -0.572581
O4    O     O_R   0.628530 0.418560 0.499990 -0.552385
O5    O     O_R   0.499990 0.581450 0.319660 -0.551820
O6    O     O_R   0.500010 0.581450 0.680340 -0.583451
O7    O     O_R   0.500010 0.418580 0.319660 -0.542358
O8    O     O_R   0.499990 0.418580 0.680340 -0.518903
N3    N     N_3   0.645682 0.408868 0.129670 -0.613927
H3    H     H_    0.620890 0.352677 0.182776 0.241527
H4    H     H_    0.673970 0.459509 0.188917 0.198907
N4    N     N_3   0.642000 0.406287 0.866853 -0.553431
H5    H     H_    0.702659 0.435758 0.893133 0.235470
H6    H     H_    0.642404 0.334249 0.893077 0.249001
N5    N     N_3   0.356814 0.933868 0.371752 -0.538217
H7    H     H_    0.299801 0.904229 0.409887 0.194787
H8    H     H_    0.357500 0.918137 0.276839 0.244864
N6    N     N_3   0.505863 0.919064 0.742238 -0.546192
H9    H     H_    0.481170 0.862119 0.794379 0.200014
H10   H     H_    0.454489 0.969614 0.744447 0.218427
N7    N     N_3   0.397289 0.736465 0.328416 -0.464349
H11   H     H_    0.329566 0.747578 0.339922 0.221781
H12   H     H_    0.415268 0.762406 0.241204 0.221935
N8    N     N_3   0.596681 0.739967 0.679800 -0.536431
H13   H     H_    0.654417 0.725779 0.630362 0.216402
H14   H     H_    0.616598 0.784151 0.752987 0.214248
N9    N     N_3   0.308258 0.642181 0.870131 -0.610552
H15   H     H_    0.338369 0.701255 0.912214 0.221611
H16   H     H_    0.327304 0.643080 0.776936 0.228315
N10   N     N_3   0.311822 0.458551 0.124586 -0.565218
H17   H     H_    0.317467 0.463691 0.221153 0.216670
H18   H     H_    0.245120 0.447366 0.104628 0.201579
O9    O     O_3   0.312573 0.467960 0.865693 -0.578309
C35   C     C_3   0.220910 0.470973 0.839846 -0.276254
H19   H     H_    0.205469 0.523036 0.765042 0.190250
H20   H     H_    0.181047 0.487700 0.923105 0.132433
H21   H     H_    0.200413 0.399421 0.806164 0.171663
O10   O     O_3   0.309130 0.632847 0.130858 -0.593643
C36   C     C_3   0.215988 0.634769 0.137575 -0.375497
H22   H     H_    0.192031 0.583423 0.208316 0.164326
H23   H     H_    0.184186 0.621651 0.046139 0.180146
H24   H     H_    0.195042 0.707250 0.168208 0.185580
O11   O     O_3   0.041958 0.667173 0.525550 -0.538972
C37   C     C_3   0.013513 0.698495 0.407343 -0.346639
H25   H     H_    0.954786 0.657564 0.376142 0.160100
H26   H     H_    0.066769 0.694323 0.336422 0.128124
H27   H     H_    0.993021 0.774680 0.414659 0.198869
O12   O     O_3   0.950942 0.564623 0.716509 -0.527637
C38   C     C_3   0.965476 0.489984 0.802415 -0.326649
H28   H     H_    0.007055 0.431991 0.761955 0.142594
H29   H     H_    0.901976 0.460328 0.836641 0.176253
H30   H     H_    0.001710 0.519248 0.883722 0.173777
N11   N     N_3   0.225160 0.676878 0.530998 -0.551185
H31   H     H_    0.205174 0.705605 0.616097 0.246099
H32   H     H_    0.203480 0.723205 0.460901 0.219859
N12   N     N_3   0.768389 0.574997 0.720112 -0.572967
H33   H     H_    0.780455 0.648568 0.720566 0.240622
H34   H     H_    0.700111 0.565384 0.716840 0.229098
O13   O     O_3   0.051864 0.321077 0.501632 -0.533589
C39   C     C_3   0.085274 0.257403 0.592476 -0.324933
H35   H     H_    0.098486 0.293521 0.682874 0.131009
H36   H     H_    0.145636 0.220225 0.558573 0.162287
H37   H     H_    0.034839 0.201737 0.609554 0.192100
O14   O     O_3   0.946517 0.406721 0.314992 -0.523401
C40   C     C_3   0.953441 0.471650 0.215504 -0.344104
H38   H     H_    0.999997 0.530215 0.238996 0.140842
H39   H     H_    0.887879 0.501385 0.186955 0.160032
H40   H     H_    0.981051 0.432955 0.134339 0.186192
O15   O     O_3   0.601038 0.062453 0.682142 -0.547874
C41   C     C_3   0.590821 0.100602 0.803549 -0.210795
H41   H     H_    0.601297 0.042165 0.871819 0.172974
H42   H     H_    0.523755 0.131416 0.820771 0.143439
H43   H     H_    0.642518 0.154348 0.823786 0.180112
O16   O     O_3   0.452710 0.066528 0.290036 -0.545552
C42   C     C_3   0.536110 0.060255 0.232567 -0.299074
H44   H     H_    0.527203 0.028780 0.138747 0.177777
H45   H     H_    0.581889 0.012428 0.285385 0.158060
H46   H     H_    0.565946 0.132323 0.220671 0.157465
O17   O     O_3   0.615201 0.262275 0.648574 -0.538380
C43   C     C_3   0.700419 0.243637 0.600144 -0.243519
H47   H     H_    0.746846 0.297253 0.638927 0.183993
H48   H     H_    0.725415 0.171960 0.628236 0.176822
H49   H     H_    0.702208 0.250066 0.497040 0.152803
O18   O     O_3   0.407740 0.259802 0.322373 -0.524401
C44   C     C_3   0.320390 0.225628 0.309782 -0.206849
H50   H     H_    0.278306 0.284137 0.271889 0.171181
H51   H     H_    0.317903 0.165597 0.242308 0.205643
H52   H     H_    0.290952 0.203380 0.399838 0.108714

loop_
_geom_bond_atom_site_label_1
_geom_bond_atom_site_label_2
_ccdc_geom_bond_type
C15   C18   A    
N5    H7    S    
N11   H31   S    
C7    C29   A    
O9    C35   S    
C14   C18   A    
Cu1   Cu2   S    
C37   H27   S    
C11   O17   S    
O16   C42   S    
C1    C33   S    
C7    C8    S    
C43   H47   S    
C40   H39   S    
C35   H20   S    
C13   C18   S    
C24   C26   A    
C29   O11   S    
C17   N8    S    
C19   O7    A    
C3    C33   A    
N6    H10   S    
C42   H44   S    
Cu2   O7    S    
N7    H12   S    
Cu1   O2    S    
C9    C13   A    
C41   H41   S    
C1    O3    A    
C20   C24   S    
C43   H48   S    
N3    H4    S    
C35   H21   S    
N12   H34   S    
C44   H52   S    
C31   C33   A    
N10   H17   S    
C6    O14   S    
C38   H29   S    
C28   O10   S    
C10   O16   S    
C43   H49   S    
C2    C34   S    
C14   N5    S    
N11   H32   S    
C21   C22   A    
O14   C40   S    
N4    H6    S    
C41   H42   S    
C9    O15   S    
C40   H40   S    
C4    C34   A    
C35   H19   S    
N9    H15   S    
C5    O13   S    
C37   H25   S    
C4    C6    A    
C2    O4    A    
C36   H23   S    
O10   C36   S    
C6    C8    A    
C42   H45   S    
N6    H9    S    
C31   N11   S    
C39   H37   S    
N9    H16   S    
C17   N2    A    
C32   C34   A    
C19   C23   S    
C26   N4    S    
O11   C37   S    
C12   O18   S    
C42   H46   S    
N12   H33   S    
C39   H36   S    
C38   H30   S    
C11   N1    A    
C9    C11   A    
C41   H43   S    
C20   O8    A    
C10   C12   A    
C16   N2    A    
C1    O1    A    
C32   N12   S    
C21   C28   S    
C4    H2    S    
C22   C27   S    
C21   C23   A    
C44   H50   S    
C15   N6    S    
C22   C24   A    
Cu2   O4    S    
C16   N7    S    
C30   O12   S    
Cu1   O5    S    
N4    H5    S    
C5    C7    A    
C15   C17   A    
Cu2   N1    S    
C28   N10   S    
C37   H26   S    
C3    C5    A    
C10   C13   A    
C36   H24   S    
O17   C43   S    
C19   O5    A    
C40   H38   S    
O13   C39   S    
C8    C30   A    
N8    H13   S    
C12   N1    A    
N5    H8    S    
Cu1   N2    S    
C25   C26   A    
C29   C31   A    
O15   C41   S    
C30   C32   A    
C2    O2    A    
C39   H35   S    
Cu2   O8    S    
C14   C16   A    
C23   C25   A    
N7    H11   S    
Cu1   O1    S    
C25   N3    S    
C27   N9    S    
C36   H22   S    
O12   C38   S    
C3    H1    S    
N3    H3    S    
C27   C28   S    
C44   H51   S    
Cu2   O3    S    
N10   H18   S    
C38   H28   S    
C27   O9    S    
Cu1   O6    S    
C20   O6    A    
N8    H14   S    
O18   C44   S    
