data_mof_unit_22161.cif
_audit_creation_date              2012-10-26T20:31:41-0400
_audit_creation_method            fapswitch 2.2
_symmetry_space_group_name_H-M    P1
_symmetry_Int_Tables_number       1
_space_group_crystal_system       triclinic
_cell_length_a                    15.876012
_cell_length_b                    10.820265
_cell_length_c                    9.596013
_cell_angle_alpha                 89.126702
_cell_angle_beta                  89.219848
_cell_angle_gamma                 90.853717
_cell_volume                      1647.89618744

loop_
_atom_site_label
_atom_site_type_symbol
_atom_type_description
_atom_site_fract_x
_atom_site_fract_y
_atom_site_fract_z
_atom_type_partial_charge
C1    C     C_R   0.501178 0.262526 0.500928 0.542162
C2    C     C_R   0.508937 0.129557 0.503293 0.011581
C3    C     C_R   0.540331 0.067743 0.386197 -0.156110
C4    C     C_R   0.340336 0.499952 0.500851 0.543266
C5    C     C_R   0.541030 0.938788 0.385761 -0.144606
C6    C     C_R   0.508973 0.871083 0.501073 0.005322
C7    C     C_R   0.489198 0.934044 0.622786 0.012023
C8    C     C_3   0.412462 0.923649 0.714098 -0.257804
C9    C     C_3   0.412866 0.063820 0.716200 -0.276262
C10   C     C_R   0.564117 0.555864 0.070570 0.181071
C11   C     C_R   0.441296 0.435448 0.078814 0.026027
C12   C     C_3   0.949156 0.405912 0.603402 -0.223852
C13   C     C_R   0.439937 0.435524 0.930736 0.100982
C14   C     C_R   0.564945 0.553886 0.923385 0.091467
C15   C     C_3   0.593301 0.685221 0.909741 -0.189149
C16   C     C_R   0.501736 0.737586 0.499461 0.543427
C17   C     C_3   0.587943 0.690249 0.067598 0.317582
C18   C     C_R   0.659674 0.500413 0.499143 0.537806
C19   C     C_3   0.046687 0.407434 0.605586 -0.209671
C20   C     C_3   0.050242 0.472756 0.352850 0.269287
C21   C     C_3   0.952622 0.475061 0.351488 -0.160753
C22   C     C_1   0.749366 0.501567 0.497544 -0.038259
C23   C     C_3   0.917121 0.504081 0.498398 0.018833
C24   C     C_3   0.082876 0.505413 0.500138 0.097258
C25   C     C_3   0.366339 0.369350 0.867015 -0.349179
C26   C     C_3   0.671416 0.719835 0.138390 -0.346156
C27   C     C_3   0.085456 0.743969 0.456873 -0.434683
C28   C     C_3   0.950781 0.632926 0.541326 -0.218071
C29   C     C_3   0.048959 0.634579 0.544292 -0.146513
C30   C     C_1   0.824939 0.502708 0.497419 -0.080120
C31   C     C_1   0.175155 0.502904 0.502068 -0.026327
C32   C     C_1   0.250688 0.501204 0.502358 -0.024563
C33   C     C_R   0.489526 0.061271 0.624283 0.025197
Cu1   Cu    Cu3+1 0.500000 0.499980 0.640670 0.929647
Cu2   Cu    Cu3+1 0.500000 0.500020 0.359330 0.991751
F1    F     F_    0.522219 0.763572 0.110970 -0.639710
F2    F     F_    0.077584 0.356623 0.314993 -0.653972
H1    H     H_    0.925990 0.312375 0.574084 0.133712
H2    H     H_    0.426964 0.101205 0.820721 0.145228
H3    H     H_    0.392926 0.386282 0.138901 0.130948
H4    H     H_    0.070218 0.313941 0.580117 0.175340
H5    H     H_    0.658274 0.693410 0.865423 0.077798
H6    H     H_    0.546660 0.745010 0.857778 0.180011
H7    H     H_    0.075960 0.539686 0.273681 0.123953
H8    H     H_    0.927265 0.384346 0.316638 0.165409
H9    H     H_    0.931795 0.546296 0.274983 0.068201
H10   H     H_    0.068426 0.650770 0.653738 0.138707
H11   H     H_    0.925637 0.655889 0.646519 0.115717
H12   H     H_    0.068310 0.428426 0.712656 0.097840
H13   H     H_    0.384948 0.317196 0.774558 0.177689
H14   H     H_    0.337655 0.300279 0.940996 0.078009
H15   H     H_    0.316644 0.436690 0.841491 0.149183
H16   H     H_    0.663400 0.712198 0.253211 0.154621
H17   H     H_    0.721337 0.655326 0.104803 0.076065
H18   H     H_    0.691763 0.815889 0.111095 0.120219
H19   H     H_    0.062611 0.832222 0.500141 0.142453
H20   H     H_    0.155304 0.746352 0.460432 0.146163
H21   H     H_    0.065514 0.739207 0.346709 0.130859
H22   H     H_    0.924049 0.424632 0.709762 0.120055
H23   H     H_    0.926871 0.704417 0.467715 0.127546
H24   H     H_    0.561752 0.118485 0.293870 0.141105
H25   H     H_    0.564506 0.893092 0.294631 0.201832
H26   H     H_    0.357351 0.883296 0.659643 0.138782
H27   H     H_    0.425863 0.881022 0.817361 0.169160
H28   H     H_    0.357748 0.105111 0.663567 0.130177
N1    N     N_R   0.500530 0.500930 0.147930 -0.220659
N2    N     N_R   0.500530 0.500890 0.852020 -0.220685
O1    O     O_R   0.500000 0.319640 0.618810 -0.509633
O2    O     O_R   0.500010 0.319680 0.381230 -0.513071
O3    O     O_R   0.379430 0.499990 0.618840 -0.516699
O4    O     O_R   0.379440 0.500030 0.381260 -0.486188
O5    O     O_R   0.499990 0.680320 0.618770 -0.515624
O6    O     O_R   0.500000 0.680360 0.381190 -0.436012
O7    O     O_R   0.620560 0.499970 0.618740 -0.494555
O8    O     O_R   0.620570 0.500010 0.381160 -0.512586

loop_
_geom_bond_atom_site_label_1
_geom_bond_atom_site_label_2
_ccdc_geom_bond_type
C18   O8    A    
C27   C29   S    
C16   O5    A    
C26   H18   S    
C4    O3    A    
C7    C8    S    
C12   C23   S    
Cu2   O8    S    
C29   H10   S    
C17   C26   S    
C28   C29   S    
C1    C2    S    
C5    C6    A    
C10   C17   S    
C9    H2    S    
C1    O1    A    
Cu1   Cu2   S    
C24   C29   S    
C25   H13   S    
C12   H22   S    
Cu2   O6    S    
C20   C24   S    
C8    C9    S    
C14   N2    A    
C17   F1    S    
Cu1   O3    S    
C11   N1    A    
C3    H24   S    
Cu2   O4    S    
C18   O7    A    
C9    C33   S    
C7    C33   A    
C13   C25   S    
C26   H17   S    
C20   H7    S    
C21   H8    S    
C10   N1    A    
C16   O6    A    
C23   C30   S    
C10   C14   A    
Cu1   O1    S    
C27   H19   S    
Cu2   N1    S    
C1    O2    A    
C25   H14   S    
C19   H12   S    
C31   C32   T    
C23   C28   S    
C4    C32   S    
C28   H23   S    
Cu1   O7    S    
C2    C33   A    
C8    H27   S    
C21   C23   S    
C27   H20   S    
C26   H16   S    
Cu1   O5    S    
C21   H9    S    
C13   N2    A    
C15   C17   S    
C28   H11   S    
C22   C30   T    
C18   C22   S    
C15   H5    S    
C3    C5    A    
C27   H21   S    
Cu1   N2    S    
C6    C7    A    
C2    C3    A    
C24   C31   S    
C15   H6    S    
C20   F2    S    
C11   C13   A    
C12   C19   S    
C5    H25   S    
C19   C24   S    
C12   H1    S    
C11   H3    S    
C9    H28   S    
C25   H15   S    
C8    H26   S    
C6    C16   S    
C20   C21   S    
Cu2   O2    S    
C14   C15   S    
C4    O4    A    
C19   H4    S    
