data_mof_unit_18326.cif
_audit_creation_date              2012-12-10T17:37:15-0500
_audit_creation_method            fapswitch 2.2
_symmetry_space_group_name_H-M    P1
_symmetry_Int_Tables_number       1
_space_group_crystal_system       triclinic
_cell_length_a                    12.335215
_cell_length_b                    13.073367
_cell_length_c                    15.873777
_cell_angle_alpha                 78.6516
_cell_angle_beta                  100.607283
_cell_angle_gamma                 116.568655
_cell_volume                      2231.25366705

loop_
_atom_site_label
_atom_site_type_symbol
_atom_type_description
_atom_site_fract_x
_atom_site_fract_y
_atom_site_fract_z
_atom_type_partial_charge
C1    C     C_R   0.855314 0.286460 0.507778 0.841587
C2    C     C_3   0.999372 0.503155 0.915433 0.052830
C3    C     C_3   0.115890 0.545693 0.036721 -0.115796
C4    C     C_3   0.000942 0.500276 0.084072 -0.064075
C5    C     C_3   0.059987 0.610762 0.963386 -0.167667
C6    C     C_3   0.945225 0.565760 0.010951 -0.106661
C7    C     C_1   0.998291 0.502698 0.823890 0.102946
C8    C     C_1   0.002015 0.499494 0.175871 0.013743
C9    C     C_R   0.282325 0.022111 0.535949 0.367588
C10   C     C_R   0.227944 0.839092 0.485770 -0.267935
C11   C     C_R   0.806538 0.119044 0.435192 0.295469
C12   C     C_R   0.999639 0.500894 0.659572 0.828595
C13   C     C_R   0.713191 0.036403 0.385768 0.295437
C14   C     C_R   0.591347 0.008556 0.392583 -0.045029
C15   C     C_R   0.559702 0.035759 0.464473 -0.005214
C16   C     C_R   0.653295 0.117000 0.515351 -0.063972
C17   C     C_R   0.437683 0.989307 0.485276 0.031001
C18   C     C_R   0.407033 0.048670 0.535625 -0.092437
C19   C     C_R   0.500343 0.121816 0.591327 -0.102512
C20   C     C_R   0.622789 0.149656 0.584757 -0.031069
C21   C     C_R   0.349137 0.879102 0.466594 0.341597
C22   C     C_R   0.192874 0.916695 0.511446 -0.140994
C23   C     C_R   0.145278 0.714454 0.488453 0.802404
C24   C     C_R   0.774603 0.166246 0.494007 -0.160613
C25   C     C_R   0.385704 0.403921 0.667285 0.342537
C26   C     C_R   0.731668 0.597041 0.365404 -0.028537
C27   C     C_R   0.610426 0.559315 0.325742 0.325831
C28   C     C_R   0.515563 0.500616 0.377877 0.425962
C29   C     C_R   0.541882 0.504001 0.468445 -0.251070
C30   C     C_R   0.665632 0.533401 0.504322 0.130984
C31   C     C_R   0.451538 0.480311 0.523998 -0.252148
C32   C     C_R   0.481034 0.460057 0.614040 -0.150540
C33   C     C_R   0.605773 0.503076 0.648248 0.339856
C34   C     C_R   0.000789 0.499802 0.340386 0.820570
C35   C     C_R   0.697010 0.551031 0.591525 0.415031
C36   C     C_R   0.336618 0.485767 0.495695 0.559156
C37   C     C_R   0.266242 0.386330 0.631262 0.418150
C38   C     C_3   0.940160 0.392431 0.036247 -0.160465
C39   C     C_3   0.885785 0.458348 0.963294 0.350238
C40   C     C_1   0.998438 0.502108 0.748633 -0.083363
C41   C     C_1   0.002159 0.499364 0.251268 -0.117808
C42   C     C_3   0.054479 0.438510 0.988808 0.349677
Cu1   Cu    Cu3+1 0.098270 0.475420 0.519690 1.049260
Cu2   Cu    Cu3+1 0.901730 0.524580 0.480310 1.000952
N1    N     N_R   0.246280 0.438200 0.549540 -0.259016
N2    N     N_R   0.754330 0.561180 0.450980 -0.201662
O1    O     O_R   0.972510 0.318130 0.524770 -0.549933
O2    O     O_R   0.806530 0.359650 0.491510 -0.596104
O3    O     O_R   0.082970 0.479240 0.637550 -0.562468
O4    O     O_R   0.916990 0.520750 0.604290 -0.530243
O5    O     O_R   0.193470 0.640350 0.508490 -0.528351
O6    O     O_R   0.027490 0.681870 0.475230 -0.568348
O7    O     O_R   0.083010 0.479250 0.395710 -0.501024
O8    O     O_R   0.917030 0.520760 0.362450 -0.601532
O9    O     O_3   0.766110 0.413342 0.923143 -0.644146
H1    H     H_    0.713565 0.392454 0.969810 0.338385
O10   O     O_3   0.386176 0.805742 0.441270 -0.712156
H2    H     H_    0.321583 0.762192 0.397698 0.342713
O11   O     O_3   0.927162 0.166413 0.419262 -0.697356
H3    H     H_    0.931008 0.160469 0.358764 0.336012
C43   C     C_1   0.504106 0.968808 0.318018 0.409345
N3    N     N_1   0.434895 0.937589 0.258177 -0.247593
O12   O     O_3   0.737900 0.988419 0.325693 -0.701867
H4    H     H_    0.815900 0.982380 0.346492 0.343771
C44   C     C_1   0.715280 0.203001 0.653672 0.250004
N4    N     N_1   0.788328 0.244651 0.709041 -0.242173
O13   O     O_3   0.172850 0.323450 0.682187 -0.701163
H5    H     H_    0.097327 0.289294 0.643681 0.375218
O14   O     O_3   0.641753 0.511626 0.735164 -0.657460
H6    H     H_    0.590152 0.539611 0.756033 0.366368
O15   O     O_3   0.410570 0.363653 0.752623 -0.659192
H7    H     H_    0.336710 0.330986 0.783056 0.387553
O16   O     O_3   0.318664 0.550267 0.419332 -0.651380
H8    H     H_    0.398858 0.611350 0.403983 0.346974
C45   C     C_1   0.831443 0.680521 0.318135 0.336068
N5    N     N_1   0.911216 0.747842 0.280216 -0.269091
C46   C     C_1   0.874753 0.273161 0.075841 0.316074
N6    N     N_1   0.823203 0.179161 0.107172 -0.209208
O17   O     O_3   0.399833 0.442051 0.338073 -0.639903
H9    H     H_    0.352635 0.377832 0.380508 0.328609
O18   O     O_3   0.580651 0.574289 0.237238 -0.645890
H10   H     H_    0.654898 0.604504 0.207535 0.328568
O19   O     O_3   0.811270 0.634738 0.614914 -0.685623
H11   H     H_    0.819117 0.646202 0.675940 0.357632
C47   C     C_1   0.883527 0.634188 0.023544 0.314347
N7    N     N_1   0.834881 0.688057 0.033571 -0.231650
C48   C     C_1   0.125136 0.729714 0.922901 0.299106
N8    N     N_1   0.176451 0.823419 0.890948 -0.220670
C49   C     C_1   0.242203 0.591942 0.077706 0.333286
N9    N     N_1   0.341699 0.628334 0.110109 -0.160532
O20   O     O_3   0.111655 0.372575 0.975489 -0.676671
H12   H     H_    0.137336 0.342138 0.034082 0.339544
C50   C     C_1   0.066719 0.888613 0.517481 0.441686
N10   N     N_1   0.966009 0.867033 0.522022 -0.210125
C51   C     C_1   0.470736 0.150266 0.665430 0.303333
N11   N     N_1   0.447406 0.171745 0.725138 -0.140359
O21   O     O_3   0.245422 0.096650 0.560086 -0.702099
H13   H     H_    0.308474 0.176502 0.547478 0.316895

loop_
_geom_bond_atom_site_label_1
_geom_bond_atom_site_label_2
_ccdc_geom_bond_type
Cu2   O2    S    
O9    H1    S    
C3    C42   S    
C50   N10   T    
O16   H8    S    
C51   N11   T    
C4    C8    S    
C12   O3    A    
C23   O6    A    
C46   N6    T    
C10   C22   A    
C26   C27   A    
C6    C47   S    
C30   C35   A    
O19   H11   S    
C28   C29   A    
C38   C42   S    
C5    C6    S    
C9    C22   A    
C15   C16   A    
O21   H13   S    
C11   C24   A    
C18   C19   A    
C28   O17   S    
C2    C7    S    
C25   C37   A    
C2    C39   S    
Cu1   O7    S    
C39   O9    S    
C19   C20   A    
C7    C40   T    
C25   O15   S    
C33   O14   S    
Cu2   O6    S    
C25   C32   A    
O11   H3    S    
C16   C24   A    
C13   C14   A    
C43   N3    T    
C34   C41   S    
C11   O11   S    
Cu2   N2    S    
O18   H10   S    
C10   C21   A    
O13   H5    S    
C20   C44   S    
C27   O18   S    
C8    C41   T    
C4    C6    S    
O20   H12   S    
C35   O19   S    
C1    O1    A    
C47   N7    T    
C14   C43   S    
C17   C21   A    
O17   H9    S    
C12   C40   S    
C48   N8    T    
C45   N5    T    
C21   O10   S    
C29   C30   A    
C23   O5    A    
C31   C32   A    
C13   O12   S    
C16   C20   A    
C6    C39   S    
C17   C18   A    
C36   N1    A    
Cu1   N1    S    
C34   O7    A    
C4    C38   S    
C34   O8    A    
Cu1   Cu2   S    
C22   C50   S    
C2    C5    S    
C37   N1    A    
C3    C4    S    
C19   C51   S    
Cu2   O4    S    
C15   C17   A    
C9    O21   S    
C31   C36   A    
C30   N2    A    
Cu1   O3    S    
C3    C5    S    
C12   O4    A    
C1    O2    A    
C38   C46   S    
C10   C23   S    
C3    C49   S    
C32   C33   A    
O15   H7    S    
C29   C31   A    
C11   C13   A    
Cu1   O5    S    
O10   H2    S    
C38   C39   S    
C2    C42   S    
C37   O13   S    
C33   C35   A    
O14   H6    S    
C36   O16   S    
C26   N2    A    
O12   H4    S    
C5    C48   S    
Cu2   O8    S    
C9    C18   A    
C1    C24   S    
C26   C45   S    
C44   N4    T    
C27   C28   A    
C14   C15   A    
C49   N9    T    
Cu1   O1    S    
C42   O20   S    
