data_mof_unit_57343.cif
_audit_creation_date              2013-03-05T15:40:06-0500
_audit_creation_method            fapswitch 2.2
_symmetry_space_group_name_H-M    P1
_symmetry_Int_Tables_number       1
_space_group_crystal_system       triclinic
_cell_length_a                    28.166999
_cell_length_b                    18.443149
_cell_length_c                    17.147525
_cell_angle_alpha                 90.255029
_cell_angle_beta                  60.09122
_cell_angle_gamma                 90.204939
_cell_volume                      7721.49442141

loop_
_atom_site_label
_atom_site_type_symbol
_atom_site_description
_atom_site_fract_x
_atom_site_fract_y
_atom_site_fract_z
_atom_type_partial_charge
O1    O     O_R   0.746490 0.236330 0.638080 -0.566850
O2    O     O_R   0.253510 0.763670 0.361920 -0.579105
O3    O     O_R   0.253510 0.236330 0.361920 -0.562940
O4    O     O_R   0.746490 0.763670 0.638080 -0.587629
O5    O     O_R   0.246490 0.736330 0.638080 -0.567097
O6    O     O_R   0.753510 0.263670 0.361920 -0.579084
O7    O     O_R   0.753510 0.736330 0.361920 -0.562905
O8    O     O_R   0.246490 0.263670 0.638080 -0.587542
O9    O     O_R   0.674170 0.186160 0.516270 -0.656642
O10   O     O_R   0.325830 0.813840 0.483730 -0.649214
O11   O     O_R   0.325830 0.186160 0.483730 -0.636327
O12   O     O_R   0.674170 0.813840 0.516270 -0.653814
O13   O     O_R   0.174170 0.686160 0.516270 -0.656430
O14   O     O_R   0.825830 0.313840 0.483730 -0.649265
O15   O     O_R   0.825830 0.686160 0.483730 -0.636319
O16   O     O_R   0.174170 0.313840 0.516270 -0.653966
O17   O     O_R   0.739960 0.127620 0.525000 -0.551161
O18   O     O_R   0.260040 0.872380 0.475000 -0.582951
O19   O     O_R   0.260040 0.127620 0.475000 -0.564200
O20   O     O_R   0.739960 0.872380 0.525000 -0.576419
O21   O     O_R   0.239960 0.627620 0.525000 -0.551444
O22   O     O_R   0.760040 0.372380 0.475000 -0.582943
O23   O     O_R   0.760040 0.627620 0.475000 -0.564169
O24   O     O_R   0.239960 0.372380 0.525000 -0.576137
O25   O     O_R   0.680700 0.294870 0.629350 -0.581591
O26   O     O_R   0.319300 0.705130 0.370650 -0.584973
O27   O     O_R   0.319300 0.294870 0.370650 -0.571342
O28   O     O_R   0.680700 0.705130 0.629350 -0.595656
O29   O     O_R   0.180700 0.794870 0.629350 -0.581612
O30   O     O_R   0.819300 0.205130 0.370650 -0.585079
O31   O     O_R   0.819300 0.794870 0.370650 -0.571283
O32   O     O_R   0.180700 0.205130 0.629350 -0.595828
C1    C     C_R   0.711473 0.286243 0.665394 0.945239
C2    C     C_R   0.301262 0.737669 0.323531 0.913106
C3    C     C_R   0.289791 0.284359 0.332907 0.958644
C4    C     C_R   0.698832 0.737547 0.676581 0.896524
C5    C     C_R   0.211476 0.786247 0.665390 0.945109
C6    C     C_R   0.801262 0.237670 0.323531 0.913133
C7    C     C_R   0.789745 0.784431 0.332971 0.958707
C8    C     C_R   0.198836 0.237542 0.676583 0.896977
C9    C     C_R   0.690486 0.129615 0.537102 0.908290
C10   C     C_R   0.309403 0.870179 0.463459 0.815103
C11   C     C_R   0.304371 0.127581 0.479061 0.923385
C12   C     C_R   0.690749 0.870495 0.536867 0.824702
C13   C     C_R   0.190489 0.629611 0.537095 0.907814
C14   C     C_R   0.809402 0.370179 0.463458 0.815124
C15   C     C_R   0.804372 0.627581 0.479058 0.923474
C16   C     C_R   0.190751 0.370492 0.536854 0.825278
Zn1   Zn    Zn3+2 0.792340 0.208750 0.507670 1.101258
Zn2   Zn    Zn3+2 0.207660 0.791250 0.492330 1.067341
Zn3   Zn    Zn3+2 0.207660 0.208750 0.492330 1.092820
Zn4   Zn    Zn3+2 0.792340 0.791250 0.507670 1.094245
Zn5   Zn    Zn3+2 0.292340 0.708750 0.507670 1.101084
Zn6   Zn    Zn3+2 0.707660 0.291250 0.492330 1.067475
Zn7   Zn    Zn3+2 0.707660 0.708750 0.492330 1.092843
Zn8   Zn    Zn3+2 0.292340 0.291250 0.507670 1.094643
C17   C     C_R   0.530856 0.997641 0.553670 -0.107677
C18   C     C_R   0.442042 0.995109 0.521158 -0.112329
C19   C     C_R   0.030872 0.497635 0.553624 -0.107507
C20   C     C_R   0.942050 0.495103 0.521138 -0.111910
C21   C     C_R   0.501953 0.062352 0.561248 -0.043911
C22   C     C_R   0.473534 0.931841 0.506999 -0.049281
C23   C     C_R   0.452040 0.057781 0.558855 -0.052756
C24   C     C_R   0.511892 0.931076 0.537972 -0.045105
C25   C     C_R   0.001968 0.562345 0.561210 -0.044873
C26   C     C_R   0.973542 0.431835 0.506971 -0.049219
C27   C     C_R   0.952047 0.557770 0.558840 -0.053368
C28   C     C_R   0.011902 0.431070 0.537937 -0.045061
C29   C     C_R   0.603815 0.933254 0.563740 -0.026170
C30   C     C_R   0.366817 0.057231 0.516052 -0.044621
C31   C     C_R   0.389260 0.933978 0.461396 -0.022314
C32   C     C_R   0.602400 0.065250 0.566209 -0.024773
C33   C     C_R   0.103819 0.433247 0.563715 -0.026395
C34   C     C_R   0.866824 0.557231 0.516040 -0.045094
C35   C     C_R   0.889263 0.433977 0.461382 -0.022311
C36   C     C_R   0.102414 0.565242 0.566175 -0.024341
C37   C     C_R   0.655172 0.934760 0.562002 -0.218149
C38   C     C_R   0.331584 0.060982 0.478417 -0.210388
C39   C     C_R   0.343567 0.934533 0.447020 -0.207566
C40   C     C_R   0.654368 0.065204 0.563075 -0.199091
C41   C     C_R   0.155174 0.434749 0.561971 -0.217439
C42   C     C_R   0.831585 0.560982 0.478414 -0.210473
C43   C     C_R   0.843567 0.434533 0.447017 -0.207445
C44   C     C_R   0.154384 0.565192 0.563038 -0.199902
C45   C     C_R   0.675793 0.000285 0.573418 0.215532
C46   C     C_R   0.322758 0.999850 0.439292 0.230992
C47   C     C_R   0.175818 0.500262 0.573345 0.215403
C48   C     C_R   0.822754 0.499848 0.439294 0.231007
C49   C     C_R   0.579012 0.998845 0.561455 0.053689
C50   C     C_R   0.399881 0.995672 0.498616 0.051214
C51   C     C_R   0.079026 0.498839 0.561415 0.053624
C52   C     C_R   0.899887 0.495669 0.498602 0.051165
C53   C     C_R   0.073997 0.368710 0.574471 -0.271673
C54   C     C_R   0.869252 0.611334 0.572246 -0.274589
C55   C     C_R   0.924944 0.374573 0.438064 -0.264347
C56   C     C_R   0.072268 0.628926 0.575814 -0.263353
C57   C     C_R   0.573995 0.868714 0.574491 -0.271645
C58   C     C_R   0.369240 0.111332 0.572263 -0.275874
C59   C     C_R   0.424942 0.874576 0.438080 -0.264287
C60   C     C_R   0.572263 0.128935 0.575815 -0.263255
C61   C     C_R   0.029225 0.366871 0.560596 0.548858
C62   C     C_R   0.910272 0.611132 0.595554 0.564973
C63   C     C_R   0.967617 0.373794 0.457778 0.549838
C64   C     C_R   0.025334 0.628712 0.567585 0.536720
C65   C     C_R   0.529220 0.866877 0.560620 0.548904
C66   C     C_R   0.410274 0.111137 0.595554 0.565181
C67   C     C_R   0.467613 0.873801 0.457802 0.549846
C68   C     C_R   0.525336 0.128721 0.567570 0.537699
H1    H     H_    0.082578 0.319306 0.598595 0.195824
H2    H     H_    0.838100 0.652676 0.602531 0.195912
H3    H     H_    0.922084 0.329691 0.399710 0.184917
H4    H     H_    0.083151 0.680691 0.591754 0.213490
H5    H     H_    0.582577 0.819307 0.598612 0.195785
H6    H     H_    0.338097 0.152686 0.602527 0.195646
H7    H     H_    0.422088 0.829694 0.399723 0.184915
H8    H     H_    0.583156 0.180705 0.591724 0.213539
C69   C     C_R   0.733201 0.290955 0.942044 -0.026382
C70   C     C_R   0.288611 0.753510 0.040055 -0.018375
C71   C     C_R   0.269304 0.286917 0.055191 -0.029003
C72   C     C_R   0.713132 0.750913 0.958170 -0.025048
C73   C     C_R   0.233207 0.790966 0.942036 -0.026361
C74   C     C_R   0.788607 0.253502 0.040058 -0.018411
C75   C     C_R   0.769162 0.787160 0.055350 -0.029007
C76   C     C_R   0.213245 0.250682 0.958065 -0.025627
C77   C     C_R   0.779711 0.245623 0.905081 -0.241895
C78   C     C_R   0.239227 0.793292 0.079925 -0.248766
C79   C     C_R   0.222145 0.242619 0.092557 -0.242538
C80   C     C_R   0.763405 0.788682 0.917374 -0.256971
C81   C     C_R   0.279717 0.745634 0.905074 -0.242030
C82   C     C_R   0.739222 0.293282 0.079931 -0.248823
C83   C     C_R   0.722000 0.742866 0.092701 -0.242684
C84   C     C_R   0.263537 0.288399 0.917222 -0.258678
H9    H     H_    0.794206 0.219608 0.840932 0.252522
H10   H     H_    0.218602 0.807341 0.150093 0.251418
H11   H     H_    0.207416 0.216686 0.156557 0.254648
H12   H     H_    0.784188 0.801565 0.846887 0.257455
H13   H     H_    0.294213 0.719620 0.840924 0.252499
H14   H     H_    0.718600 0.307332 0.150098 0.251421
H15   H     H_    0.707260 0.716937 0.156705 0.254672
H16   H     H_    0.284298 0.301269 0.846728 0.257370
C85   C     C_R   0.810898 0.235129 0.947532 0.294333
C86   C     C_R   0.215895 0.819427 0.029503 0.276419
C87   C     C_R   0.190527 0.233364 0.050718 0.292295
C88   C     C_R   0.787080 0.814719 0.967465 0.274372
C89   C     C_R   0.310903 0.735137 0.947529 0.294313
C90   C     C_R   0.715889 0.319415 0.029511 0.276422
C91   C     C_R   0.690399 0.733600 0.050830 0.291988
C92   C     C_R   0.287233 0.314434 0.967281 0.274789
C93   C     C_R   0.647693 0.328100 0.935736 -0.273401
C94   C     C_R   0.350168 0.668819 0.067207 -0.258669
C95   C     C_R   0.354454 0.324633 0.062301 -0.275478
C96   C     C_R   0.650716 0.667428 0.931831 -0.264659
C97   C     C_R   0.147699 0.828107 0.935731 -0.273495
C98   C     C_R   0.850167 0.168815 0.067207 -0.258509
C99   C     C_R   0.854352 0.824772 0.062390 -0.275590
C100  C     C_R   0.150775 0.167300 0.931760 -0.264556
H17   H     H_    0.623606 0.325570 0.008203 0.214526
H18   H     H_    0.353244 0.633788 0.014271 0.232940
H19   H     H_    0.378884 0.321813 0.989894 0.214255
H20   H     H_    0.647499 0.632584 0.984736 0.231188
H21   H     H_    0.123612 0.825577 0.008197 0.214525
H22   H     H_    0.853245 0.133784 0.014271 0.233001
H23   H     H_    0.878756 0.821965 0.989978 0.214176
H24   H     H_    0.147568 0.132421 0.984631 0.231212
C101  C     C_R   0.623678 0.358316 0.887980 -0.184660
C102  C     C_R   0.382598 0.653064 0.106427 -0.208551
C103  C     C_R   0.377808 0.356120 0.110559 -0.182137
C104  C     C_R   0.617891 0.652259 0.893220 -0.208349
C105  C     C_R   0.123682 0.858321 0.887976 -0.184704
C106  C     C_R   0.882597 0.153062 0.106427 -0.208606
C107  C     C_R   0.877753 0.856193 0.110613 -0.182082
C108  C     C_R   0.117917 0.152207 0.893193 -0.208350
C109  C     C_R   0.650877 0.356610 0.795271 0.384878
C110  C     C_R   0.374726 0.689958 0.182406 0.379699
C111  C     C_R   0.350727 0.353930 0.203230 0.382057
C112  C     C_R   0.625858 0.688968 0.817329 0.377687
C113  C     C_R   0.150880 0.856615 0.795267 0.384887
C114  C     C_R   0.874725 0.189956 0.182407 0.379651
C115  C     C_R   0.850688 0.854002 0.203286 0.382105
C116  C     C_R   0.125875 0.188948 0.817328 0.377371
C117  C     C_R   0.696811 0.314984 0.752897 -0.302801
C118  C     C_R   0.329064 0.733275 0.225566 -0.299932
C119  C     C_R   0.305074 0.311728 0.244970 -0.305141
C120  C     C_R   0.671544 0.732433 0.774319 -0.290898
C121  C     C_R   0.196815 0.814992 0.752892 -0.302833
C122  C     C_R   0.829063 0.233273 0.225566 -0.299799
C123  C     C_R   0.805010 0.811842 0.245056 -0.305228
C124  C     C_R   0.171568 0.232400 0.774315 -0.290133
C125  C     C_R   0.728784 0.302806 0.794658 0.456445
C126  C     C_R   0.305962 0.763800 0.175843 0.426617
C127  C     C_R   0.273286 0.299084 0.202914 0.455951
C128  C     C_R   0.695186 0.762310 0.823752 0.427125
C129  C     C_R   0.228789 0.802817 0.794651 0.456364
C130  C     C_R   0.805959 0.263794 0.175845 0.426596
C131  C     C_R   0.773196 0.799246 0.203036 0.455967
C132  C     C_R   0.195234 0.262220 0.823733 0.426776
C133  C     C_R   0.703430 0.307307 0.890137 0.035718
C134  C     C_R   0.315378 0.729782 0.094518 0.034535
C135  C     C_R   0.298848 0.303374 0.107429 0.034945
C136  C     C_R   0.685893 0.727931 0.904392 0.027160
C137  C     C_R   0.203436 0.807317 0.890130 0.035699
C138  C     C_R   0.815377 0.229777 0.094518 0.034428
C139  C     C_R   0.798734 0.803560 0.107557 0.035111
C140  C     C_R   0.185964 0.227781 0.904332 0.026238
O33   O     O_R   0.062020 0.072840 0.007170 -0.597629
O34   O     O_R   0.937980 0.927160 0.992830 -0.600360
O35   O     O_R   0.937980 0.072840 0.992830 -0.597216
O36   O     O_R   0.062020 0.927160 0.007170 -0.604268
O37   O     O_R   0.562020 0.572840 0.007170 -0.597643
O38   O     O_R   0.437980 0.427160 0.992830 -0.600285
O39   O     O_R   0.437980 0.572840 0.992830 -0.597251
O40   O     O_R   0.562020 0.427160 0.007170 -0.604278
O41   O     O_R   0.947860 0.073950 0.109290 -0.570542
O42   O     O_R   0.052140 0.926050 0.890710 -0.570827
O43   O     O_R   0.052140 0.073950 0.890710 -0.570909
O44   O     O_R   0.947860 0.926050 0.109290 -0.572493
O45   O     O_R   0.447860 0.573950 0.109290 -0.570511
O46   O     O_R   0.552140 0.426050 0.890710 -0.570802
O47   O     O_R   0.552140 0.573950 0.890710 -0.570905
O48   O     O_R   0.447860 0.426050 0.109290 -0.572500
C141  C     C_R   0.076147 0.097073 0.931190 0.932828
C142  C     C_R   0.925906 0.900322 0.066565 0.914957
C143  C     C_R   0.923937 0.097256 0.068836 0.932557
C144  C     C_R   0.074608 0.900876 0.932786 0.914080
C145  C     C_R   0.576141 0.597087 0.931197 0.932765
C146  C     C_R   0.425926 0.400303 0.066546 0.914987
C147  C     C_R   0.423936 0.597256 0.068836 0.932512
C148  C     C_R   0.574607 0.400875 0.932788 0.914081
Zn9   Zn    Zn3+2 0.505960 0.500000 0.080520 1.109533
Zn10  Zn    Zn3+2 0.494040 0.500000 0.919480 1.115059
Zn11  Zn    Zn3+2 0.005960 1.000000 0.080520 1.109503
Zn12  Zn    Zn3+2 0.994040 0.000000 0.919480 1.114990
N1    N     N_R   0.714973 0.001164 0.604133 0.229256
O49   O     O_R   0.767349 0.998696 0.547004 -0.349756
O50   O     O_R   0.698516 0.018768 0.687279 -0.416223
N2    N     N_R   0.296046 0.004231 0.386582 0.216838
O51   O     O_R   0.243040 0.998644 0.424260 -0.347270
O52   O     O_R   0.324460 0.022661 0.302384 -0.425120
N3    N     N_R   0.215036 0.501080 0.603966 0.229959
O53   O     O_R   0.198534 0.517692 0.687400 -0.415958
O54   O     O_R   0.267419 0.498825 0.546813 -0.349681
N4    N     N_R   0.796029 0.504226 0.386602 0.216947
O55   O     O_R   0.743022 0.498656 0.424303 -0.347228
O56   O     O_R   0.824446 0.522567 0.302378 -0.425152
O57   O     O_3   0.999953 0.302994 0.577043 -0.562585
C149  C     C_3   0.959090 0.301648 0.668624 -0.194308
H25   H     H_    0.932261 0.350357 0.688090 0.121127
H26   H     H_    0.977607 0.296862 0.712460 0.166712
H27   H     H_    0.932783 0.253403 0.680340 0.247432
O58   O     O_3   0.906475 0.660960 0.658860 -0.538772
C150  C     C_3   0.879671 0.627800 0.744185 -0.261817
H28   H     H_    0.903788 0.581370 0.747367 0.148239
H29   H     H_    0.837609 0.609827 0.762368 0.141149
H30   H     H_    0.875636 0.668237 0.795238 0.210468
O59   O     O_3   0.004952 0.317521 0.424489 -0.554761
C151  C     C_3   0.042993 0.331399 0.333290 -0.230642
H31   H     H_    0.064550 0.383977 0.325088 0.124402
H32   H     H_    0.023005 0.330468 0.291352 0.163984
H33   H     H_    0.074290 0.287874 0.307854 0.241667
O60   O     O_3   0.005150 0.695006 0.560466 -0.549865
C152  C     C_3   0.029922 0.713253 0.468589 -0.218618
H34   H     H_    0.020088 0.672694 0.430417 0.143669
H35   H     H_    0.075096 0.719179 0.437947 0.155940
H36   H     H_    0.013495 0.766275 0.462781 0.215083
O61   O     O_3   0.499952 0.802998 0.577060 -0.562611
C153  C     C_3   0.459085 0.801651 0.668637 -0.194244
H37   H     H_    0.432246 0.850349 0.688089 0.121220
H38   H     H_    0.477596 0.796891 0.712486 0.166688
H39   H     H_    0.432791 0.753393 0.680356 0.247426
O62   O     O_3   0.406559 0.160941 0.658817 -0.538546
C154  C     C_3   0.378423 0.128417 0.744440 -0.262810
H40   H     H_    0.401172 0.080747 0.748667 0.147640
H41   H     H_    0.336085 0.112449 0.761961 0.141907
H42   H     H_    0.374994 0.168596 0.795347 0.210819
O63   O     O_3   0.504953 0.817534 0.424508 -0.554804
C155  C     C_3   0.543000 0.831425 0.333315 -0.230431
H43   H     H_    0.564538 0.884017 0.325125 0.124353
H44   H     H_    0.523019 0.830472 0.291365 0.164104
H45   H     H_    0.574312 0.787920 0.307885 0.241706
O64   O     O_3   0.505201 0.195016 0.560321 -0.549741
C156  C     C_3   0.529978 0.213140 0.468406 -0.219126
H46   H     H_    0.520081 0.172558 0.430339 0.143655
H47   H     H_    0.575161 0.218971 0.437720 0.155937
H48   H     H_    0.513613 0.266176 0.462493 0.215196
N5    N     N_R   0.678021 0.378755 0.066202 0.201719
O65   O     O_R   0.685090 0.436002 0.017419 -0.384000
O66   O     O_R   0.642379 0.381101 0.151781 -0.375255
N6    N     N_R   0.366492 0.711027 0.893006 0.184966
O67   O     O_R   0.405899 0.745307 0.896396 -0.447994
O68   O     O_R   0.378744 0.662058 0.830976 -0.381342
N7    N     N_R   0.325868 0.372972 0.929897 0.201061
O69   O     O_R   0.319063 0.431200 0.977518 -0.377964
O70   O     O_R   0.361941 0.373637 0.844480 -0.354363
N8    N     N_R   0.634126 0.712055 0.105878 0.189641
O71   O     O_R   0.595793 0.747282 0.100823 -0.439820
O72   O     O_R   0.620295 0.665474 0.170520 -0.368419
N9    N     N_R   0.178028 0.878768 0.066192 0.201744
O73   O     O_R   0.185098 0.936013 0.017406 -0.383997
O74   O     O_R   0.142386 0.881116 0.151771 -0.375253
N10   N     N_R   0.866488 0.211024 0.893007 0.184967
O75   O     O_R   0.905894 0.245306 0.896397 -0.448049
O76   O     O_R   0.878741 0.162057 0.830973 -0.381228
N11   N     N_R   0.825689 0.873293 0.930142 0.201159
O77   O     O_R   0.818889 0.931462 0.977856 -0.377936
O78   O     O_R   0.861734 0.874054 0.844712 -0.354355
N12   N     N_R   0.134252 0.211836 0.105796 0.189697
O79   O     O_R   0.095915 0.247099 0.100793 -0.439831
O80   O     O_R   0.120429 0.165244 0.170422 -0.368240
O81   O     O_3   0.631450 0.392864 0.746006 -0.559930
C157  C     C_3   0.662299 0.457101 0.711271 -0.157480
H49   H     H_    0.705877 0.444965 0.661744 0.115567
H50   H     H_    0.659690 0.492544 0.766043 0.125022
H51   H     H_    0.645131 0.487863 0.675585 0.210310
O82   O     O_3   0.406623 0.675478 0.221247 -0.568056
C158  C     C_3   0.441978 0.734907 0.205122 -0.175731
H52   H     H_    0.418676 0.785046 0.238602 0.112027
H53   H     H_    0.469072 0.744196 0.131666 0.155817
H54   H     H_    0.468629 0.722570 0.233912 0.217638
O83   O     O_3   0.369742 0.390807 0.253105 -0.563320
C159  C     C_3   0.338768 0.454928 0.287698 -0.142495
H55   H     H_    0.295154 0.442607 0.336855 0.118093
H56   H     H_    0.341546 0.489992 0.232844 0.124019
H57   H     H_    0.355677 0.486180 0.323774 0.214126
O84   O     O_3   0.593835 0.674427 0.778578 -0.567868
C160  C     C_3   0.557979 0.733303 0.796510 -0.179784
H58   H     H_    0.580843 0.783850 0.763717 0.114552
H59   H     H_    0.531185 0.741978 0.870228 0.156476
H60   H     H_    0.531057 0.720625 0.768212 0.211690
O85   O     O_3   0.131451 0.892869 0.746003 -0.559942
C161  C     C_3   0.162299 0.957106 0.711267 -0.157555
H61   H     H_    0.205879 0.944971 0.661744 0.115577
H62   H     H_    0.159688 0.992552 0.766039 0.124975
H63   H     H_    0.145133 0.987865 0.675577 0.210293
O86   O     O_3   0.906622 0.175478 0.221247 -0.568036
C162  C     C_3   0.941980 0.234905 0.205113 -0.175918
H64   H     H_    0.918681 0.285047 0.238587 0.112071
H65   H     H_    0.969074 0.244188 0.131656 0.155751
H66   H     H_    0.968631 0.222569 0.233903 0.217580
O87   O     O_3   0.869748 0.890826 0.253131 -0.563352
C163  C     C_3   0.838809 0.954966 0.287767 -0.142487
H67   H     H_    0.795195 0.942672 0.336953 0.118178
H68   H     H_    0.841580 0.990059 0.232938 0.124075
H69   H     H_    0.855753 0.986176 0.323819 0.214069
O88   O     O_3   0.093829 0.174455 0.778606 -0.567870
C164  C     C_3   0.057987 0.233355 0.796579 -0.179860
H70   H     H_    0.080862 0.283894 0.763782 0.114796
H71   H     H_    0.031214 0.242025 0.870303 0.156409
H72   H     H_    0.031043 0.220709 0.768315 0.211685
O89   O     O_3   0.784023 0.288246 0.741385 -0.595991
C165  C     C_3   0.811941 0.354093 0.705191 -0.275509
H73   H     H_    0.808973 0.390582 0.759316 0.158709
H74   H     H_    0.796715 0.382179 0.664584 0.137696
H75   H     H_    0.855832 0.341987 0.659211 0.201223
O90   O     O_3   0.273721 0.824928 0.208791 -0.612629
C166  C     C_3   0.308351 0.885967 0.185356 -0.156296
H76   H     H_    0.335012 0.890449 0.111043 0.145916
H77   H     H_    0.333664 0.884734 0.218600 0.155740
H78   H     H_    0.282535 0.935348 0.209088 0.240067
O91   O     O_3   0.217961 0.284861 0.256018 -0.594629
C167  C     C_3   0.190357 0.350944 0.291821 -0.269330
H79   H     H_    0.193141 0.386597 0.237498 0.161762
H80   H     H_    0.205966 0.379823 0.331713 0.133484
H81   H     H_    0.146514 0.339053 0.338481 0.205299
O92   O     O_3   0.727487 0.823509 0.791408 -0.601728
C168  C     C_3   0.693267 0.884745 0.825066 -0.164697
H82   H     H_    0.670492 0.885734 0.899998 0.148948
H83   H     H_    0.664247 0.887196 0.798825 0.153171
H84   H     H_    0.719244 0.934082 0.801968 0.240991
O93   O     O_3   0.284029 0.788257 0.741377 -0.596012
C169  C     C_3   0.311945 0.854103 0.705166 -0.275391
H85   H     H_    0.308976 0.890604 0.759281 0.158705
H86   H     H_    0.296718 0.882175 0.664552 0.137690
H87   H     H_    0.355836 0.841997 0.659189 0.201212
O94   O     O_3   0.773722 0.324924 0.208795 -0.612548
C170  C     C_3   0.808357 0.385968 0.185190 -0.156586
H88   H     H_    0.834930 0.390413 0.110854 0.145941
H89   H     H_    0.833762 0.384775 0.218273 0.155819
H90   H     H_    0.782544 0.435350 0.208964 0.240074
O95   O     O_3   0.717874 0.785025 0.256169 -0.594689
C171  C     C_3   0.690279 0.851104 0.292030 -0.269465
H91   H     H_    0.693030 0.886775 0.237745 0.161838
H92   H     H_    0.705921 0.879965 0.331885 0.133491
H93   H     H_    0.646441 0.839211 0.338736 0.205336
O96   O     O_3   0.227493 0.323459 0.791425 -0.601268
C172  C     C_3   0.193344 0.384651 0.826395 -0.165231
H94   H     H_    0.171261 0.385230 0.901319 0.149292
H95   H     H_    0.163710 0.387458 0.801418 0.153695
H96   H     H_    0.219291 0.434007 0.803095 0.240812

loop_
_geom_bond_atom_site_label_1
_geom_bond_atom_site_label_2
_geom_bond_distance
_ccdc_geom_bond_type
O4    C4    1.258718 A    
O5    C5    1.257613 A    
C82   C90   1.408665 A    
O38   C146  1.238877 A    
N7    O69   1.301688 A    
C33   C53   1.413035 A    
O31   Zn4   2.079247 S    
O8    Zn8   2.013120 S    
C35   C55   1.404809 A    
N11   O78   1.301467 A    
O47   C145  1.258759 A    
C156  H48   1.109175 S    
O18   Zn2   2.013680 S    
C106  C114  1.383726 A    
C45   N1    1.440472 S    
C12   C37   1.472408 S    
C29   C49   1.409542 A    
C58   H6    1.080652 S    
C131  C139  1.424982 A    
C3    C119  1.439358 S    
C154  H40   1.113424 S    
C151  H33   1.109155 S    
C129  C137  1.424998 A    
C96   C136  1.407163 A    
C130  O94   1.380164 S    
C34   C52   1.404502 A    
C21   C23   1.428967 A    
C22   C24   1.421962 A    
C108  C141  1.440698 S    
C85   N10   1.436961 S    
C5    C121  1.442051 S    
O63   C155  1.410604 S    
O84   C160  1.410255 S    
N4    O56   1.300203 A    
O7    Zn7   2.013120 S    
C132  C140  1.424244 A    
C67   O63   1.383024 S    
C81   C89   1.406858 A    
C57   C65   1.395369 A    
O2    C2    1.261438 A    
C43   C48   1.377034 A    
C61   O57   1.382528 S    
O57   C149  1.410365 S    
O6    Zn6   2.010423 S    
O43   C141  1.258710 A    
C33   C41   1.432009 A    
C97   C137  1.414427 A    
C157  H50   1.113938 S    
C102  C110  1.383723 A    
C161  H61   1.112987 S    
C159  H57   1.109237 S    
C150  H28   1.113218 S    
O23   C15   1.284819 A    
C28   C61   1.410055 A    
C53   C61   1.395337 A    
C162  H65   1.113862 S    
O27   C3    1.296719 A    
C71   C92   1.425057 A    
C92   N7    1.436264 S    
C31   C59   1.404801 A    
C101  C148  1.435353 S    
C97   H21   1.079886 S    
C69   C90   1.424193 A    
C132  O96   1.380002 S    
C166  H76   1.113903 S    
N12   O79   1.301653 A    
C109  O81   1.388802 S    
C79   C87   1.404269 A    
C110  O82   1.386413 S    
C164  H72   1.108963 S    
O23   Zn7   2.019548 S    
C80   C88   1.406526 A    
C161  H62   1.113936 S    
O30   Zn1   2.078750 S    
C56   C64   1.397705 A    
O47   Zn10  1.991626 S    
C82   H14   1.074049 S    
C98   H22   1.079636 S    
C116  O88   1.386176 S    
N10   O75   1.301589 A    
C111  C119  1.360742 A    
C125  C133  1.424998 A    
C112  C120  1.376194 A    
C26   C63   1.419984 A    
C163  H68   1.113898 S    
C150  H30   1.109546 S    
C170  H88   1.113913 S    
C17   C21   1.415689 A    
O24   Zn8   2.019548 S    
O9    C9    1.263656 A    
C58   C66   1.398508 A    
C75   C139  1.525164 S    
C73   C137  1.528041 S    
N5    O66   1.301449 A    
C168  H82   1.113880 S    
C36   C56   1.411826 A    
O13   C13   1.263710 A    
N8    O72   1.301498 A    
C95   C103  1.410859 A    
C128  C136  1.424180 A    
C165  H73   1.112961 S    
C113  O85   1.388802 S    
C162  H64   1.113262 S    
C114  C122  1.375885 A    
N9    O73   1.301695 A    
C115  O87   1.389189 S    
C81   H13   1.075058 S    
C54   C62   1.398299 A    
O12   C12   1.261872 A    
O92   C168  1.408862 S    
O91   C167  1.411018 S    
O7    C7    1.251928 A    
O9    Zn6   2.103040 S    
O8    C8    1.258671 A    
C129  O93   1.382359 S    
C112  O84   1.386172 S    
O11   Zn8   2.105889 S    
C95   H19   1.079561 S    
C171  H91   1.112868 S    
C172  H95   1.113497 S    
C131  O95   1.382196 S    
O35   C143  1.240891 A    
O89   C165  1.411232 S    
O39   Zn10  1.974745 S    
C29   C37   1.432123 A    
O16   Zn3   2.105889 S    
C110  C118  1.375886 A    
C31   C39   1.426134 A    
C169  H85   1.112962 S    
O22   Zn6   2.013680 S    
O30   C6    1.298846 A    
O48   Zn9   1.991627 S    
N7    O70   1.301467 A    
O18   C10   1.303824 A    
C152  H34   1.113418 S    
C65   O61   1.382500 S    
C94   C102  1.409755 A    
N2    O51   1.301788 A    
C76   C84   1.410312 A    
C160  H59   1.113898 S    
C89   N6    1.436963 S    
O94   C170  1.409090 S    
O2    Zn2   2.010423 S    
C20   C27   1.416210 A    
C77   C85   1.406850 A    
C102  C147  1.443906 S    
C151  H32   1.112657 S    
O6    C6    1.261439 A    
C83   C91   1.404320 A    
N1    O49   1.302700 A    
O41   Zn11  1.996629 S    
C37   C45   1.393704 A    
C10   C39   1.462356 S    
N9    O74   1.301450 A    
C107  C115  1.378524 A    
C99   C139  1.412605 A    
C105  C113  1.378528 A    
C167  H79   1.112868 S    
O20   C12   1.297072 A    
C55   C63   1.401649 A    
O21   C13   1.303126 A    
C20   C52   1.420450 A    
C125  O89   1.382358 S    
C60   C68   1.397657 A    
C47   N3    1.440290 S    
O43   Zn12  1.991626 S    
O24   C16   1.297114 A    
C93   C101  1.413469 A    
O64   C156  1.410321 S    
C168  H84   1.108898 S    
O17   Zn1   2.013680 S    
O86   C162  1.410592 S    
C103  C146  1.431108 S    
C99   H23   1.079573 S    
C6    C122  1.459158 S    
C100  C108  1.406507 A    
C46   N2    1.438336 S    
C14   C43   1.462365 S    
N6    O68   1.301444 A    
O3    C3    1.251782 A    
O48   C146  1.261272 A    
N3    O54   1.302782 A    
C78   H10   1.074050 S    
C153  H38   1.112111 S    
C171  H93   1.107983 S    
C88   N11   1.436303 S    
C166  H77   1.113271 S    
C128  O92   1.379994 S    
O83   C159  1.412996 S    
O33   Zn11  1.974678 S    
O29   C5    1.301835 A    
C70   C134  1.529821 S    
C127  O91   1.382199 S    
C170  H90   1.109126 S    
C104  C112  1.384824 A    
C149  H25   1.113640 S    
C158  H54   1.109411 S    
C122  C130  1.423888 A    
C70   C89   1.424650 A    
O60   C152  1.410318 S    
C153  H39   1.108835 S    
C152  H36   1.109182 S    
C8    C124  1.457634 S    
C91   N8    1.438072 S    
C156  H47   1.113492 S    
C118  C126  1.423908 A    
C54   H2    1.080669 S    
C32   C40   1.437745 A    
C90   N5    1.436760 S    
C19   C25   1.415630 A    
O40   Zn9   1.974747 S    
C31   C50   1.404643 A    
O34   C142  1.238899 A    
C86   N9    1.436759 S    
C42   C48   1.393114 A    
O12   Zn7   2.105889 S    
C83   H15   1.074453 S    
C36   C51   1.409766 A    
C20   C26   1.413309 A    
O13   Zn2   2.103040 S    
C155  H43   1.113839 S    
O90   C166  1.409087 S    
C74   C85   1.424647 A    
C69   C77   1.411390 A    
C167  H81   1.107975 S    
O25   C1    1.301831 A    
C149  H27   1.108856 S    
C71   C79   1.410896 A    
C18   C22   1.413312 A    
C154  H42   1.109577 S    
O10   C10   1.257637 A    
C63   O59   1.383042 S    
C34   C54   1.409221 A    
N3    O53   1.300279 A    
C60   H8    1.076695 S    
O42   Zn12  1.996631 S    
C36   C44   1.437791 A    
C9    C40   1.479444 S    
O95   C171  1.411018 S    
O14   C14   1.257649 A    
C11   C38   1.447257 S    
C93   C133  1.414421 A    
C17   C49   1.427734 A    
C71   C135  1.525151 S    
C103  C111  1.378488 A    
C79   H11   1.074456 S    
C80   H12   1.075169 S    
C48   N4    1.438376 S    
N8    O71   1.301653 A    
O35   Zn12  1.974745 S    
C105  C144  1.435361 S    
C115  C123  1.360815 A    
C130  C138  1.425917 A    
O44   Zn11  1.991627 S    
C113  C121  1.362344 A    
C64   O60   1.381508 S    
O46   C148  1.263752 A    
O10   Zn5   2.103040 S    
O46   Zn10  1.996631 S    
C116  C124  1.376189 A    
C96   C104  1.406575 A    
C117  C125  1.421354 A    
N10   O76   1.301449 A    
C25   C27   1.429005 A    
C161  H63   1.109199 S    
C75   C88   1.425006 A    
N12   O80   1.301494 A    
C120  C128  1.421873 A    
C76   C87   1.422988 A    
C164  H71   1.113894 S    
C108  C116  1.384819 A    
C109  C117  1.362339 A    
C158  H52   1.113260 S    
O37   C145  1.241978 A    
C34   C42   1.430309 A    
C98   C138  1.410421 A    
O19   C11   1.284820 A    
C111  O83   1.389200 S    
O34   Zn12  1.974678 S    
O25   Zn6   2.078750 S    
O3    Zn3   2.013120 S    
O27   Zn8   2.079247 S    
C22   C67   1.419969 A    
C165  H75   1.108259 S    
O58   C150  1.409887 S    
C126  O90   1.380178 S    
C78   C86   1.408667 A    
C159  H56   1.113897 S    
O32   Zn3   2.079247 S    
N5    O65   1.301696 A    
O87   C163  1.412992 S    
C155  H45   1.109168 S    
N4    O55   1.301772 A    
O38   Zn10  1.974678 S    
O15   Zn4   2.105889 S    
C163  H67   1.112822 S    
C23   C66   1.418754 A    
C165  H74   1.113424 S    
C18   C50   1.420448 A    
C41   C47   1.393568 A    
O45   C147  1.261306 A    
C114  O86   1.386412 S    
O22   C14   1.303804 A    
C76   C140  1.522534 S    
C1    C117  1.442043 S    
O36   C144  1.237868 A    
C126  C134  1.425910 A    
C171  H92   1.113506 S    
C172  H94   1.113824 S    
C157  H49   1.112988 S    
C94   H18   1.079642 S    
C75   C83   1.410905 A    
C73   C81   1.411387 A    
C162  H66   1.109417 S    
C169  H86   1.113421 S    
C72   C80   1.410390 A    
C84   H16   1.075236 S    
C59   C67   1.401685 A    
C74   C138  1.529805 S    
O82   C158  1.410593 S    
C73   C86   1.424193 A    
O41   C143  1.261305 A    
C98   C106  1.409753 A    
C35   C43   1.426075 A    
C59   H7    1.082447 S    
C72   C136  1.522667 S    
N2    O52   1.300270 A    
C160  H58   1.113224 S    
C169  H87   1.108259 S    
O36   Zn11  1.974747 S    
C106  C143  1.443896 S    
O40   C148  1.237863 A    
O28   C4    1.296245 A    
C72   C91   1.423024 A    
C97   C105  1.413466 A    
O62   C154  1.409831 S    
C93   H17   1.079886 S    
C94   C134  1.410424 A    
C39   C46   1.377025 A    
C157  H51   1.109195 S    
C26   C28   1.421946 A    
C96   H20   1.080270 S    
C30   C38   1.430282 A    
O85   C161  1.412857 S    
C44   C47   1.394000 A    
O15   C15   1.257687 A    
O96   C172  1.408897 S    
O16   C16   1.261741 A    
C167  H80   1.113506 S    
O1    C1    1.257601 A    
C24   C65   1.410060 A    
O81   C157  1.412856 S    
C16   C41   1.472315 S    
C159  H55   1.112818 S    
C56   H4    1.076698 S    
C40   C45   1.393901 A    
O4    Zn4   2.013120 S    
O5    Zn5   2.010423 S    
C127  C135  1.424999 A    
C168  H83   1.113495 S    
C150  H29   1.113784 S    
O14   Zn1   2.103040 S    
C101  C109  1.378524 A    
C15   C42   1.447270 S    
C21   C68   1.417089 A    
O45   Zn9   1.996629 S    
O26   C2    1.298841 A    
N11   O77   1.301693 A    
O11   C11   1.257686 A    
C4    C120  1.457657 S    
O61   C153  1.410364 S    
C172  H96   1.108901 S    
C7    C123  1.439423 S    
C38   C46   1.393089 A    
O39   C147  1.240896 A    
C30   C50   1.404505 A    
O28   Zn7   2.079247 S    
O17   C9    1.303190 A    
O29   Zn2   2.078750 S    
C170  H89   1.113257 S    
C149  H26   1.112070 S    
C158  H53   1.113859 S    
C84   C92   1.406508 A    
C95   C135  1.412565 A    
C33   C51   1.409477 A    
C87   N12   1.438076 S    
C104  C145  1.440834 S    
C152  H35   1.113497 S    
C19   C51   1.427749 A    
C156  H46   1.113374 S    
C160  H60   1.108971 S    
O19   Zn3   2.019548 S    
C19   C28   1.414476 A    
C151  H31   1.113831 S    
O37   Zn9   1.974678 S    
O88   C164  1.410257 S    
C163  H69   1.109230 S    
N1    O50   1.300367 A    
C124  C132  1.421790 A    
O42   C144  1.263750 A    
C35   C52   1.404650 A    
C155  H44   1.112655 S    
C66   O62   1.382061 S    
C13   C44   1.479398 S    
C57   H5    1.079117 S    
O59   C151  1.410599 S    
C100  C140  1.407040 A    
O26   Zn5   2.078750 S    
C107  C142  1.431245 S    
C69   C133  1.528039 S    
C17   C24   1.414468 A    
O93   C169  1.411233 S    
C32   C60   1.411824 A    
C77   H9    1.075056 S    
C18   C23   1.416224 A    
C154  H41   1.113622 S    
C123  C131  1.420225 A    
C62   O58   1.382174 S    
C121  C129  1.421354 A    
C119  C127  1.420229 A    
N6    O67   1.301591 A    
O20   Zn4   2.019548 S    
C55   H3    1.082465 S    
O21   Zn5   2.013680 S    
C32   C49   1.409771 A    
O33   C141  1.241956 A    
O31   C7    1.296774 A    
C2    C118  1.459156 S    
O32   C8    1.296293 A    
O44   C142  1.261300 A    
C153  H37   1.113613 S    
C99   C107  1.410886 A    
C166  H78   1.109120 S    
C100  H24   1.080295 S    
C53   H1    1.079061 S    
C70   C78   1.412469 A    
C25   C64   1.417068 A    
C164  H70   1.113217 S    
C68   O64   1.381549 S    
O1    Zn1   2.010423 S    
C74   C82   1.412470 A    
C30   C58   1.409198 A    
C27   C62   1.418998 A    
C29   C57   1.413059 A    
