data_mof_unit_24631.cif
_audit_creation_date              2013-03-05T15:53:41-0500
_audit_creation_method            fapswitch 2.2
_symmetry_space_group_name_H-M    P1
_symmetry_Int_Tables_number       1
_space_group_crystal_system       triclinic
_cell_length_a                    13.457511
_cell_length_b                    13.617181
_cell_length_c                    29.005366
_cell_angle_alpha                 95.877474
_cell_angle_beta                  90.389572
_cell_angle_gamma                 119.246663
_cell_volume                      4603.47642958

loop_
_atom_site_label
_atom_site_type_symbol
_atom_site_description
_atom_site_fract_x
_atom_site_fract_y
_atom_site_fract_z
_atom_type_partial_charge
O1    O     O_R   0.296680 0.802170 0.437540 -0.523371
O2    O     O_R   0.525380 0.838530 0.443500 -0.518136
C1    C     C_R   0.620319 0.904476 0.424970 0.553813
O3    O     O_R   0.702130 0.995190 0.446810 -0.508454
O4    O     O_R   0.661770 0.181390 0.458760 -0.497247
C2    C     C_R   0.592480 0.208901 0.437708 0.550265
O5    O     O_R   0.499820 0.198480 0.455280 -0.471230
O6    O     O_R   0.311660 0.976250 0.449080 -0.469876
C3    C     C_R   0.286986 0.881866 0.423030 0.561327
O7    O     O_R   0.297580 0.804960 0.544440 -0.500058
O8    O     O_R   0.526220 0.841130 0.542590 -0.504649
C4    C     C_R   0.621525 0.908269 0.568308 0.552262
O9    O     O_R   0.703030 0.997990 0.553710 -0.494200
O10   O     O_R   0.662610 0.183990 0.557860 -0.522048
C5    C     C_R   0.593974 0.212985 0.580439 0.544277
O11   O     O_R   0.500730 0.201280 0.562180 -0.457769
O12   O     O_R   0.312500 0.978850 0.548170 -0.461774
C6    C     C_R   0.288050 0.886286 0.566808 0.547074
Cr1   Cr    Cr6+3 0.416430 0.829200 0.492370 1.039753
Cr2   Cr    Cr6+3 0.674630 0.087020 0.504170 1.047213
Cr3   Cr    Cr6+3 0.408920 0.083740 0.503490 1.143022
O13   O     O_3   0.499990 0.999990 0.500010 -0.320443
C7    C     C_1   0.611626 0.239401 0.389282 0.115657
C8    C     C_R   0.750422 0.315391 0.281387 -0.006659
C9    C     C_R   0.765410 0.348646 0.233254 -0.015297
C10   C     C_R   0.577857 0.346442 0.228263 0.134714
C11   C     C_R   0.559680 0.314158 0.275870 0.047928
C12   C     C_R   0.644756 0.299398 0.301009 -0.068707
C13   C     C_R   0.679874 0.363788 0.208280 -0.001717
C14   C     C_1   0.695908 0.399089 0.159206 0.042958
C15   C     C_1   0.624412 0.265795 0.349369 0.093231
C16   C     C_1   0.712041 0.425094 0.119313 0.033482
C17   C     C_R   0.237859 0.772427 0.343559 0.141187
C18   C     C_R   0.203443 0.754666 0.296336 0.025643
C19   C     C_R   0.135629 0.717494 0.200667 -0.032634
C20   C     C_R   0.152352 0.633541 0.221590 0.049802
C21   C     C_R   0.188344 0.655690 0.267796 -0.095297
C22   C     C_R   0.102186 0.703758 0.152278 -0.017683
H1    H     H_    0.202535 0.589944 0.279071 0.143319
C23   C     C_R   0.082767 0.784509 0.132559 -0.032782
C24   C     C_R   0.232479 0.952272 0.357094 -0.023818
C25   C     C_R   0.198879 0.936950 0.308032 -0.039291
C26   C     C_R   0.184033 0.836520 0.277675 -0.004059
C27   C     C_R   0.179869 0.017702 0.287116 0.042708
C28   C     C_R   0.148044 0.995759 0.239154 -0.119271
C29   C     C_R   0.130697 0.899922 0.209463 -0.000897
C30   C     C_R   0.150201 0.818141 0.229191 0.030485
C31   C     C_R   0.095975 0.883512 0.161101 -0.131253
C32   C     C_R   0.251971 0.869022 0.373484 -0.014397
H2    H     H_    0.081866 0.946974 0.145242 0.136492
H3    H     H_    0.142327 0.059908 0.224569 0.146938
C33   C     C_R   0.732413 0.966290 0.354680 -0.100350
C34   C     C_R   0.748473 0.948028 0.307672 -0.021278
C35   C     C_R   0.779883 0.910005 0.212756 0.062014
C36   C     C_R   0.861677 0.010102 0.241527 0.165288
C37   C     C_R   0.847598 0.029444 0.288184 -0.059806
C38   C     C_R   0.793082 0.890389 0.165051 0.143231
H4    H     H_    0.799176 0.046352 0.375072 0.152430
H5    H     H_    0.915400 0.109786 0.307782 0.197763
C39   C     C_R   0.709862 0.791185 0.135928 -0.025737
C40   C     C_R   0.547670 0.782733 0.348441 -0.109919
C41   C     C_R   0.563710 0.764563 0.301028 0.023457
C42   C     C_R   0.664128 0.846701 0.280231 0.009779
C43   C     C_R   0.482551 0.666349 0.274377 0.195807
C44   C     C_R   0.500753 0.647289 0.229401 0.172559
C45   C     C_R   0.595511 0.725953 0.205224 -0.020687
C46   C     C_R   0.680062 0.827946 0.232302 -0.048281
C47   C     C_R   0.610128 0.706116 0.156559 -0.027945
C48   C     C_R   0.633289 0.882037 0.375168 0.001872
H6    H     H_    0.470907 0.720613 0.365809 0.129678
C49   C     C_R   0.715447 0.261754 0.655740 0.136372
C50   C     C_R   0.734300 0.296148 0.704328 0.025935
C51   C     C_R   0.772783 0.364684 0.802171 -0.033266
C52   C     C_R   0.855972 0.348576 0.774732 0.034571
C53   C     C_R   0.836123 0.314575 0.728054 -0.095366
C54   C     C_R   0.791414 0.398371 0.852103 -0.034592
H7    H     H_    0.904956 0.302287 0.712862 0.151030
C55   C     C_R   0.703915 0.414634 0.875880 -0.039746
C56   C     C_R   0.525846 0.260512 0.656404 -0.020995
C57   C     C_R   0.545595 0.294562 0.706397 -0.019236
C58   C     C_R   0.649429 0.312699 0.729576 -0.005517
C59   C     C_R   0.463716 0.309783 0.734910 -0.043051
C60   C     C_R   0.480933 0.345137 0.781624 0.112131
C61   C     C_R   0.582627 0.363775 0.804438 0.044843
C62   C     C_R   0.667841 0.347067 0.778807 0.009482
C63   C     C_R   0.601614 0.397735 0.852360 -0.119574
C64   C     C_R   0.612819 0.245521 0.631634 -0.018690
H8    H     H_    0.537419 0.409028 0.872950 0.149992
H9    H     H_    0.379278 0.296011 0.727242 0.214299
C65   C     C_1   0.253124 0.877118 0.615604 0.082090
C66   C     C_R   0.175911 0.748234 0.725428 0.032975
C67   C     C_R   0.141627 0.734998 0.772379 -0.110234
C68   C     C_R   0.137245 0.916231 0.779159 -0.107630
C69   C     C_R   0.171068 0.931165 0.732512 0.029127
C70   C     C_R   0.190215 0.847520 0.705296 -0.015261
C71   C     C_R   0.121986 0.818711 0.799503 -0.012453
C72   C     C_1   0.085854 0.803071 0.848401 -0.026367
C73   C     C_1   0.225192 0.865319 0.656267 0.086968
C74   C     C_1   0.063617 0.784210 0.889154 0.004157
H10   H     H_    0.128741 0.658462 0.787266 0.210058
H11   H     H_    0.123255 0.981246 0.799821 0.172171
C75   C     C_1   0.634400 0.886871 0.616964 0.044122
C76   C     C_R   0.769038 0.943627 0.735458 0.025291
C77   C     C_R   0.784954 0.926236 0.782286 -0.141046
C78   C     C_R   0.601527 0.743772 0.773702 0.176002
C79   C     C_R   0.584551 0.759977 0.726024 0.149421
C80   C     C_R   0.667210 0.859034 0.707187 0.014637
C81   C     C_R   0.701785 0.826439 0.801360 0.012636
C82   C     C_1   0.720207 0.809372 0.849921 -0.026386
C83   C     C_1   0.647348 0.873684 0.657879 0.047919
C84   C     C_1   0.725913 0.792661 0.890656 -0.004953
H12   H     H_    0.864252 0.992256 0.803406 0.174409
O14   O     O_R   0.820790 0.857990 0.068830 -0.531465
O15   O     O_R   0.016700 0.827330 0.062850 -0.519162
C85   C     C_R   0.050208 0.764080 0.081703 0.543416
O16   O     O_R   0.041970 0.673520 0.060040 -0.441075
O17   O     O_R   0.817980 0.483660 0.048840 -0.475634
C86   C     C_R   0.722748 0.457457 0.070786 0.543675
O18   O     O_R   0.637200 0.461990 0.052510 -0.503472
O19   O     O_R   0.664790 0.681920 0.057970 -0.456971
C87   C     C_R   0.731120 0.777332 0.084405 0.574607
O20   O     O_R   0.815840 0.852920 0.961840 -0.501212
O21   O     O_R   0.012100 0.822630 0.963670 -0.503491
C88   C     C_R   0.041409 0.759116 0.938253 0.549820
O22   O     O_R   0.037010 0.668460 0.953040 -0.489481
O23   O     O_R   0.813390 0.478970 0.949660 -0.463649
C89   C     C_R   0.716225 0.450218 0.926809 0.549598
O24   O     O_R   0.632250 0.456930 0.945520 -0.528259
O25   O     O_R   0.660200 0.677230 0.958780 -0.496362
C90   C     C_R   0.727978 0.773267 0.940209 0.550095
Cr4   Cr    Cr6+3 0.914010 0.832750 0.013970 1.038850
Cr5   Cr    Cr6+3 0.922310 0.578600 0.003000 1.105068
Cr6   Cr    Cr6+3 0.656280 0.574630 0.003870 1.045337
O26   O     O_3   0.830870 0.661990 0.006950 -0.317130
C91   C     C_2   0.840125 0.299351 0.313372 0.591252
O27   O     O_2   0.934336 0.311686 0.301720 -0.462109
O28   O     O_R   0.813636 0.267525 0.358534 -0.720964
H13   H     H_    0.875887 0.257107 0.374548 0.337096
C92   C     C_2   0.188995 0.130679 0.311546 0.621602
O29   O     O_2   0.200722 0.157713 0.352382 -0.484797
O30   O     O_R   0.151181 0.195524 0.291045 -0.701182
H14   H     H_    0.176939 0.271108 0.313056 0.341326
C93   C     C_2   0.254634 0.053346 0.393029 0.686352
O31   O     O_2   0.189817 0.053477 0.422247 -0.450329
O32   O     O_R   0.354341 0.155309 0.395052 -0.599900
H15   H     H_    0.348775 0.225665 0.408792 0.387782
N1    N     N_3   0.896246 0.971020 0.147202 -0.599490
H16   H     H_    0.924815 0.971117 0.116641 0.259084
H17   H     H_    0.953909 0.054304 0.144650 0.179970
N2    N     N_3   0.963817 0.097508 0.225361 -0.579649
H18   H     H_    0.017539 0.077222 0.207978 0.243263
H19   H     H_    0.978315 0.176297 0.217657 0.307472
C94   C     C_2   0.520415 0.598402 0.126361 0.631334
O33   O     O_2   0.435578 0.510449 0.132629 -0.532137
O34   O     O_R   0.518255 0.567288 0.083213 -0.633011
H20   H     H_    0.484970 0.516698 0.055824 0.374752
N3    N     N_3   0.415430 0.543496 0.210747 -0.628284
H21   H     H_    0.393102 0.463911 0.205783 0.259220
H22   H     H_    0.373093 0.551442 0.188140 0.323478
N4    N     N_3   0.381377 0.580563 0.292526 -0.643854
H23   H     H_    0.318662 0.508273 0.272124 0.271455
H24   H     H_    0.368109 0.586478 0.326498 0.220382
C95   C     C_2   0.869049 0.369021 0.208294 0.646602
O35   O     O_2   0.936164 0.352169 0.228024 -0.413919
O36   O     O_R   0.882161 0.396958 0.162662 -0.715195
H25   H     H_    0.937493 0.410355 0.137618 0.370380
C96   C     C_2   0.904946 0.419240 0.880898 0.639323
O37   O     O_2   0.979487 0.397638 0.870837 -0.428370
O38   O     O_R   0.934884 0.435025 0.926908 -0.620208
H26   H     H_    0.988792 0.464731 0.954151 0.371969
N5    N     N_3   0.801380 0.244870 0.631138 -0.607956
H27   H     H_    0.877002 0.258570 0.645670 0.213219
H28   H     H_    0.802233 0.216226 0.597372 0.291932
C97   C     C_2   0.970299 0.367641 0.790132 0.648721
O39   O     O_2   0.046838 0.466095 0.799211 -0.490623
O40   O     O_R   0.982974 0.274486 0.802205 -0.610492
H29   H     H_    0.057301 0.289270 0.819294 0.365529
N6    N     N_3   0.393023 0.363100 0.804196 -0.654297
H30   H     H_    0.319363 0.350646 0.785137 0.255899
H31   H     H_    0.399854 0.388259 0.839406 0.245724
C98   C     C_2   0.408287 0.243674 0.632874 0.636879
O41   O     O_2   0.368511 0.221010 0.592397 -0.435548
O42   O     O_R   0.333164 0.264240 0.657778 -0.712299
H32   H     H_    0.261801 0.247211 0.638233 0.371351
C99   C     C_2   0.195546 0.659548 0.696236 0.592215
O43   O     O_2   0.183652 0.573214 0.711009 -0.494545
O44   O     O_R   0.230449 0.678697 0.651020 -0.716285
H33   H     H_    0.242919 0.620888 0.631368 0.346126
N7    N     N_3   0.495526 0.361087 0.200382 -0.611166
H34   H     H_    0.501958 0.384262 0.166894 0.262055
H35   H     H_    0.419004 0.346598 0.208486 0.293557
C100  C     C_2   0.187195 0.036808 0.713332 0.585049
O45   O     O_2   0.215210 0.055262 0.673812 -0.502764
O46   O     O_R   0.164493 0.113967 0.740418 -0.678225
H36   H     H_    0.176369 0.182472 0.724741 0.364388
C101  C     C_2   0.857608 0.049238 0.714640 0.598577
O47   O     O_2   0.947920 0.125007 0.735407 -0.465840
O48   O     O_R   0.834856 0.058560 0.668883 -0.707954
H37   H     H_    0.895208 0.125482 0.655563 0.338220
N8    N     N_3   0.517617 0.643450 0.794183 -0.622981
H38   H     H_    0.526453 0.628515 0.828534 0.249125
H39   H     H_    0.444650 0.581523 0.774903 0.263052
N9    N     N_3   0.483551 0.676120 0.696201 -0.621281
H40   H     H_    0.421429 0.603754 0.708636 0.271412
H41   H     H_    0.467983 0.684544 0.661509 0.249079
C102  C     C_2   0.451404 0.294598 0.297337 0.628980
O49   O     O_2   0.430765 0.271196 0.336474 -0.480968
O50   O     O_R   0.377563 0.312792 0.272766 -0.740914
H42   H     H_    0.307504 0.316324 0.277148 0.361275
C103  C     C_2   0.075140 0.595446 0.126227 0.528361
O51   O     O_2   0.068351 0.545856 0.087067 -0.356090
O52   O     O_R   0.114415 0.521354 0.096729 -0.463198
H43   H     H_    0.100120 0.435865 0.107499 0.331413
N10   N     N_3   0.257918 0.687953 0.361670 -0.614966
H44   H     H_    0.245586 0.615349 0.343805 0.206174
H45   H     H_    0.293092 0.680671 0.391338 0.270968
C104  C     C_2   0.149561 0.528524 0.195134 0.575508
O53   O     O_2   0.074173 0.437936 0.184994 -0.506777
O54   O     O_R   0.229765 0.544944 0.167142 -0.697793
H46   H     H_    0.225082 0.472068 0.152954 0.347699

loop_
_geom_bond_atom_site_label_1
_geom_bond_atom_site_label_2
_geom_bond_distance
_ccdc_geom_bond_type
C40   H6    1.130032 S    
C45   C47   1.442808 A    
N9    H40   1.035360 S    
C24   C25   1.453047 A    
O36   H25   1.008555 S    
C18   C21   1.429923 A    
C34   C42   1.434629 A    
O15   Cr4   2.004943 S    
C35   C36   1.433330 A    
C19   C20   1.455146 A    
N5    H27   1.020140 S    
Cr4   O26   2.014434 S    
C19   C30   1.450602 A    
C56   C64   1.463783 A    
N6    H30   1.061177 S    
C70   C73   1.506940 S    
O21   C88   1.285998 A    
C96   O38   1.356019 S    
O4    Cr2   1.994245 S    
C28   C29   1.403093 A    
C27   C28   1.410590 A    
N5    H28   1.018694 S    
O8    Cr1   2.004732 S    
C10   C11   1.477736 A    
O23   C89   1.318040 A    
C59   H9    1.075019 S    
C88   O22   1.322410 A    
C20   C21   1.373833 A    
N1    H17   1.025600 S    
C54   C55   1.464857 A    
C24   C93   1.539676 S    
C82   C84   1.234736 T    
C96   O37   1.205285 D    
O4    C2    1.327830 A    
C57   C58   1.442765 A    
N10   H45   1.015968 S    
C36   C37   1.384167 A    
C99   O44   1.402644 S    
C23   C85   1.494454 S    
C79   C80   1.431238 A    
C28   H3    1.043467 S    
C17   C32   1.428096 A    
C93   O31   1.220799 D    
C98   O41   1.231255 D    
C67   C71   1.449771 A    
C81   C82   1.489324 S    
C54   C96   1.619408 S    
C93   O32   1.376037 S    
O19   Cr6   1.993615 S    
O38   H26   0.976892 S    
N7    H35   0.984328 S    
O17   Cr5   2.003570 S    
C23   C31   1.438639 A    
C86   O18   1.295407 A    
C41   C43   1.388725 A    
C33   C48   1.450467 A    
C76   C77   1.434706 A    
C79   N9    1.471310 S    
C97   O39   1.225696 D    
N3    H21   0.966821 S    
N1    H16   0.968469 S    
N8    H38   1.054383 S    
C8    C9    1.496316 A    
O48   H37   0.996255 S    
C94   O34   1.274984 S    
C50   C58   1.456253 A    
C66   C67   1.441357 A    
O21   Cr4   2.013173 S    
C55   C63   1.434992 A    
C31   H2    1.111304 S    
O46   H36   1.022091 S    
C66   C99   1.533158 S    
N3    H22   0.914326 S    
C22   C23   1.418484 A    
Cr3   O13   2.038794 S    
N7    H34   1.042995 S    
C25   C27   1.432507 A    
C50   C53   1.424800 A    
C55   C89   1.488655 S    
C24   C32   1.406846 A    
C72   C74   1.242837 T    
C10   N7    1.469035 S    
O32   H15   1.036640 S    
C29   C31   1.435573 A    
C39   C87   1.533488 S    
C98   O42   1.366532 S    
C51   C52   1.466678 A    
C9    C13   1.464055 A    
O7    C6    1.287072 A    
C78   C81   1.430874 A    
C42   C46   1.424338 A    
O1    Cr1   2.127781 S    
C52   C53   1.365534 A    
C63   H8    1.115642 S    
C6    C65   1.492498 S    
O10   Cr2   1.996481 S    
C91   O27   1.248700 D    
Cr1   O13   2.014449 S    
C3    C32   1.475343 S    
C61   C62   1.466778 A    
C44   N3    1.363063 S    
C47   C94   1.538936 S    
C68   H11   1.110917 S    
O54   H46   1.006484 S    
C77   H12   1.123907 S    
C102  O49   1.207998 D    
O6    C3    1.309082 A    
C38   C39   1.437993 A    
C35   C46   1.431061 A    
C104  O53   1.155943 D    
O5    Cr3   2.120404 S    
C5    O11   1.287920 A    
O12   Cr3   1.998567 S    
C1    O3    1.280891 A    
C56   C98   1.618668 S    
C7    C15   1.235532 T    
O42   H32   1.022507 S    
C4    C75   1.495615 S    
C13   C14   1.531866 S    
C69   C100  1.512130 S    
N9    H41   1.055412 S    
C84   C90   1.490211 S    
C60   C61   1.410365 A    
O16   Cr5   2.119679 S    
O23   Cr5   1.994721 S    
O7    Cr1   2.137106 S    
C92   O29   1.189434 D    
C71   C72   1.504479 S    
C43   N4    1.441221 S    
C41   C42   1.453771 A    
O10   C5    1.322710 A    
O12   C6    1.313777 A    
O19   C87   1.313844 A    
O1    C3    1.266108 A    
C69   C70   1.446474 A    
C68   C69   1.433002 A    
O18   Cr6   2.114777 S    
C65   C73   1.242598 T    
C22   C103  1.456794 S    
C53   H7    1.105509 S    
C51   C62   1.460793 A    
C33   H4    1.117690 S    
C52   C97   1.486845 S    
O25   Cr6   1.992074 S    
C8    C91   1.627747 S    
C101  O48   1.392213 S    
O40   H29   1.030909 S    
Cr2   O13   2.046419 S    
C44   C45   1.447974 A    
C27   C92   1.573167 S    
C103  O52   1.542632 S    
C38   N1    1.427491 S    
C49   C64   1.449872 A    
Cr6   O26   2.046399 S    
C80   C83   1.503982 S    
C49   N5    1.461811 S    
C75   C83   1.241942 T    
C104  O54   1.299032 S    
C25   C26   1.472915 A    
C89   O24   1.295799 A    
O20   Cr4   2.125924 S    
C77   C81   1.442799 A    
C33   C34   1.398106 A    
C67   H10   1.104217 S    
C36   N2    1.431903 S    
C5    C64   1.488629 S    
O25   C90   1.348231 A    
O28   H13   1.030539 S    
C34   C37   1.421841 A    
C40   C48   1.416991 A    
C91   O28   1.415098 S    
C29   C30   1.431975 A    
O14   Cr4   2.135510 S    
C60   N6    1.465794 S    
C1    C48   1.474993 S    
O2    Cr1   2.014518 S    
N10   H44   1.003536 S    
O9    Cr2   2.117226 S    
C12   C15   1.505373 S    
C18   C26   1.417642 A    
C8    C12   1.458514 A    
C16   C86   1.504605 S    
C101  O47   1.241744 D    
O6    Cr3   1.993251 S    
C20   C104  1.535470 S    
N6    H31   1.032047 S    
C17   N10   1.448184 S    
O11   Cr3   2.113596 S    
O15   C85   1.310275 A    
C2    O5    1.298231 A    
C68   C71   1.431595 A    
C78   C79   1.456295 A    
O17   C86   1.336330 A    
N2    H18   1.012330 S    
C37   H5    1.114789 S    
C11   C102  1.499651 S    
C100  O45   1.221298 D    
O2    C1    1.309475 A    
C49   C50   1.419055 A    
C21   H1    1.082172 S    
O24   Cr6   2.113845 S    
C43   C44   1.351398 A    
C14   C16   1.234384 T    
C92   O30   1.390959 S    
O22   Cr5   2.127862 S    
C99   O43   1.229457 D    
O52   H43   1.160272 S    
C9    C95   1.491019 S    
C2    C7    1.493870 S    
C51   C54   1.455145 A    
C57   C59   1.463404 A    
C17   C18   1.401163 A    
C45   C46   1.435529 A    
O50   H42   0.975748 S    
N2    H19   1.041255 S    
C103  O51   1.239243 D    
C40   C41   1.409112 A    
N4    H23   1.045754 S    
C97   O40   1.436118 S    
C78   N8    1.470461 S    
C95   O35   1.190941 D    
C66   C70   1.454252 A    
C56   C57   1.457717 A    
O3    Cr2   2.122067 S    
O44   H33   1.005602 S    
O14   C87   1.296373 A    
C4    O9    1.295328 A    
C39   C47   1.461185 A    
C10   C13   1.413711 A    
Cr5   O26   2.038996 S    
C59   C60   1.369128 A    
C76   C101  1.538241 S    
O34   H20   0.942264 S    
C19   C22   1.436273 A    
C61   C63   1.399763 A    
C95   O36   1.402988 S    
C76   C80   1.458089 A    
C94   O33   1.217478 D    
O30   H14   1.049232 S    
C102  O50   1.350500 S    
C26   C30   1.433702 A    
O20   C90   1.251220 A    
N8    H39   1.036775 S    
C58   C62   1.436844 A    
C85   O16   1.278508 A    
O8    C4    1.318649 A    
N4    H24   1.004735 S    
C74   C88   1.496647 S    
C11   C12   1.458221 A    
C35   C38   1.411198 A    
C100  O46   1.400867 S    
