data_mof_unit_53786.cif
_audit_creation_date              2013-03-05T15:55:26-0500
_audit_creation_method            fapswitch 2.2
_symmetry_space_group_name_H-M    P1
_symmetry_Int_Tables_number       1
_space_group_crystal_system       triclinic
_cell_length_a                    11.01769
_cell_length_b                    12.534976
_cell_length_c                    13.477801
_cell_angle_alpha                 117.051435
_cell_angle_beta                  73.806108
_cell_angle_gamma                 101.690708
_cell_volume                      1585.69832175

loop_
_atom_site_label
_atom_site_type_symbol
_atom_site_description
_atom_site_fract_x
_atom_site_fract_y
_atom_site_fract_z
_atom_type_partial_charge
O1    O     O_R   0.537340 0.972510 0.318130 -0.518937
O2    O     O_R   0.487200 0.806530 0.359650 -0.539680
C1    C     C_R   0.510507 0.853373 0.287290 0.957647
O3    O     O_R   0.707380 0.082980 0.479220 -0.585924
O4    O     O_R   0.657240 0.917000 0.520740 -0.504007
C2    C     C_R   0.739956 0.997291 0.495847 0.968246
Cu1   Cu    Cu3+1 0.529690 0.098270 0.475420 1.062427
Cu2   Cu    Cu3+1 0.470310 0.901730 0.524580 1.102241
O5    O     O_R   0.512800 0.193470 0.640350 -0.572104
O6    O     O_R   0.462660 0.027490 0.681870 -0.522942
O7    O     O_R   0.342760 0.083000 0.479260 -0.576821
O8    O     O_R   0.292620 0.917020 0.520780 -0.517472
C3    C     C_R   0.497469 0.143290 0.710564 0.864765
C4    C     C_R   0.263594 0.992548 0.487255 0.911484
C5    C     C_3   0.964312 0.043549 0.395864 0.122198
C6    C     C_3   0.114757 0.027088 0.374912 -0.338455
C7    C     C_3   0.911807 0.076938 0.608148 0.587281
C8    C     C_3   0.913192 0.856612 0.445204 0.575309
C9    C     C_3   0.879761 0.991897 0.486306 -0.173342
C10   C     C_3   0.126797 0.990040 0.477166 -0.294859
C11   C     C_3   0.060678 0.087610 0.596716 0.571391
C12   C     C_3   0.051776 0.857811 0.459852 -0.323353
C13   C     C_R   0.476880 0.254028 0.024885 0.434302
C14   C     C_R   0.516762 0.222307 0.828009 -0.313732
C15   C     C_R   0.578532 0.805048 0.080748 0.287097
C16   C     C_R   0.648875 0.728099 0.975385 -0.237555
C17   C     C_R   0.651409 0.607168 0.953280 0.441254
C18   C     C_R   0.558484 0.555560 0.019288 -0.006722
C19   C     C_R   0.498443 0.633190 0.131405 -0.119795
C20   C     C_R   0.532210 0.427812 0.979331 0.052231
C21   C     C_R   0.473683 0.378191 0.057786 -0.175038
C22   C     C_R   0.404291 0.450520 0.163667 -0.199713
C23   C     C_R   0.417474 0.576294 0.201925 0.373658
C24   C     C_R   0.548022 0.348453 0.862238 0.430876
C25   C     C_R   0.498914 0.175373 0.909387 -0.107530
C26   C     C_R   0.522941 0.762745 0.165457 -0.078265
C27   C     C_R   0.675577 0.322556 0.299054 -0.129721
N1    N     N_R   0.574690 0.246280 0.438200 -0.284388
C28   C     C_R   0.337545 0.771924 0.658754 0.507986
C29   C     C_R   0.300465 0.680064 0.696174 0.142223
C30   C     C_R   0.341917 0.565124 0.623808 0.023923
C31   C     C_R   0.448720 0.548869 0.530350 -0.128717
C32   C     C_R   0.486764 0.647179 0.498193 0.073979
C33   C     C_R   0.519887 0.441447 0.467727 -0.053234
C34   C     C_R   0.606742 0.426120 0.362709 -0.156734
C35   C     C_R   0.624330 0.514325 0.322843 0.284949
C36   C     C_R   0.581695 0.627997 0.396667 0.409515
C37   C     C_R   0.512456 0.350133 0.505962 0.539961
C38   C     C_R   0.653604 0.232724 0.336106 0.500508
N2    N     N_R   0.426100 0.754320 0.561190 -0.198866
O9    O     O_3   0.939194 0.165674 0.441680 -0.655200
H1    H     H_    0.992009 0.219773 0.496456 0.427099
C39   C     C_2   0.046565 0.821557 0.557870 1.003096
O10   O     O_2   0.978542 0.868143 0.652009 -0.522933
O11   O     O_R   0.115114 0.728081 0.537733 -0.718699
H2    H     H_    0.093337 0.704574 0.603777 0.332474
O12   O     O_3   0.845929 0.029042 0.686682 -0.695621
H3    H     H_    0.848849 0.090351 0.765408 0.359138
O13   O     O_3   0.087000 0.074804 0.687564 -0.700997
H4    H     H_    0.061942 0.147430 0.758898 0.334400
C40   C     C_2   0.504230 0.045947 0.877604 1.005339
O14   O     O_2   0.591093 0.991535 0.803156 -0.569134
O15   O     O_R   0.411850 0.987269 0.935212 -0.682740
H5    H     H_    0.427164 0.900132 0.907132 0.317022
C41   C     C_2   0.293644 0.393204 0.220385 0.937552
O16   O     O_2   0.286714 0.404442 0.316656 -0.585974
O17   O     O_R   0.198015 0.325219 0.161425 -0.681975
H6    H     H_    0.124452 0.294444 0.209007 0.403378
O18   O     O_3   0.461213 0.207954 0.103807 -0.646585
H7    H     H_    0.485882 0.273074 0.173578 0.322216
O19   O     O_3   0.576702 0.396418 0.783845 -0.604610
H8    H     H_    0.651082 0.356758 0.725679 0.386979
O20   O     O_3   0.568936 0.923413 0.106096 -0.584769
H9    H     H_    0.574931 0.930741 0.034816 0.371949
O21   O     O_3   0.750422 0.540556 0.875697 -0.687783
H10   H     H_    0.823018 0.594563 0.857528 0.351990
C42   C     C_2   0.723418 0.772770 0.889258 0.862280
O22   O     O_2   0.784525 0.871048 0.918643 -0.506906
O23   O     O_R   0.724884 0.700468 0.773678 -0.701565
H11   H     H_    0.777890 0.740049 0.722805 0.373080
C43   C     C_2   0.921444 0.992609 0.282035 1.049629
O24   O     O_2   0.976091 0.033176 0.212278 -0.505385
O25   O     O_R   0.818474 0.906002 0.257372 -0.771667
H12   H     H_    0.803767 0.881200 0.178526 0.342208
O26   O     O_3   0.341244 0.640717 0.303941 -0.660323
H13   H     H_    0.334265 0.607537 0.359245 0.345905
O27   O     O_3   0.715885 0.131160 0.266816 -0.642418
H14   H     H_    0.724210 0.096401 0.315765 0.375205
O28   O     O_3   0.695463 0.493037 0.214546 -0.730835
H15   H     H_    0.656108 0.527583 0.179619 0.307695
C44   C     C_2   0.778770 0.305837 0.196216 1.086926
O29   O     O_2   0.877947 0.370915 0.205026 -0.525036
O30   O     O_R   0.763229 0.213402 0.090526 -0.691993
H16   H     H_    0.839984 0.210476 0.027115 0.340259
O31   O     O_3   0.449099 0.369939 0.614549 -0.670029
H17   H     H_    0.392028 0.296664 0.607726 0.349210
O32   O     O_3   0.279552 0.877786 0.714193 -0.658633
H18   H     H_    0.193674 0.865216 0.757817 0.343355
C45   C     C_2   0.248007 0.465537 0.631363 0.987150
O33   O     O_2   0.217612 0.386521 0.544882 -0.564210
O34   O     O_R   0.186851 0.467668 0.738259 -0.674073
H19   H     H_    0.106236 0.411997 0.736652 0.352676
O35   O     O_3   0.214176 0.697059 0.797642 -0.678651
H20   H     H_    0.227414 0.781408 0.853539 0.350787
O36   O     O_3   0.646166 0.723186 0.376478 -0.639366
H21   H     H_    0.690729 0.700896 0.296327 0.341961
C46   C     C_2   0.170246 0.931984 0.254007 0.889668
O37   O     O_2   0.285634 0.933009 0.218263 -0.499052
O38   O     O_R   0.094877 0.840890 0.183844 -0.705726
H22   H     H_    0.146084 0.786007 0.108254 0.367744
C47   C     C_2   0.195106 0.141593 0.363556 1.054684
O39   O     O_2   0.150160 0.203498 0.336539 -0.503322
O40   O     O_R   0.326259 0.159884 0.354015 -0.673464
H23   H     H_    0.366890 0.229939 0.334574 0.344326
O41   O     O_3   0.867457 0.191206 0.649384 -0.715608
H24   H     H_    0.893566 0.244839 0.722660 0.335286
O42   O     O_3   0.112132 0.202158 0.603566 -0.779745
H25   H     H_    0.190838 0.222938 0.632705 0.344977
O43   O     O_3   0.824991 0.789246 0.499398 -0.672139
H26   H     H_    0.790138 0.838897 0.579888 0.399225
O44   O     O_3   0.909187 0.795139 0.328869 -0.680755
H27   H     H_    0.890089 0.707539 0.307050 0.409710
C48   C     C_2   0.116083 0.753308 0.354598 0.984632
O45   O     O_2   0.217456 0.769984 0.296628 -0.566821
O46   O     O_R   0.060158 0.635182 0.327438 -0.678009
H28   H     H_    0.109486 0.573894 0.255170 0.374000

loop_
_geom_bond_atom_site_label_1
_geom_bond_atom_site_label_2
_geom_bond_distance
_ccdc_geom_bond_type
O11   H2    1.013658 S    
O34   H19   1.011005 S    
C37   O31   1.364078 S    
O20   H9    0.989013 S    
C38   O27   1.370747 S    
O31   H17   0.984307 S    
O27   H14   0.972060 S    
O32   H18   0.989602 S    
C48   O45   1.211936 D    
C5    C43   1.541226 S    
C35   O28   1.381412 S    
C34   C35   1.394332 A    
C5    C9    1.616460 S    
C2    C9    1.522343 S    
C19   C26   1.460924 A    
C16   C17   1.410361 A    
O30   H16   1.013823 S    
O25   H12   1.013558 S    
C18   C19   1.426092 A    
C11   O13   1.415908 S    
O26   H13   0.985677 S    
C20   C21   1.405764 A    
O7    C4    1.309907 A    
C28   O32   1.379455 S    
C5    C6    1.641439 S    
C19   C23   1.446937 A    
C8    C9    1.613406 S    
C30   C31   1.431703 A    
C40   O15   1.398233 S    
O5    C3    1.314887 A    
C11   O42   1.403686 S    
O35   H20   0.990462 S    
C6    C46   1.556603 S    
C47   O40   1.395005 S    
C21   C22   1.392302 A    
C36   O36   1.358800 S    
C46   O37   1.227132 D    
C30   C45   1.473979 S    
C5    O9    1.420530 S    
N1    C37   1.389226 A    
C6    C10   1.685735 S    
C42   O23   1.398587 S    
O13   H4    0.993487 S    
C8    C12   1.589560 S    
C46   O38   1.399725 S    
C40   O14   1.222426 D    
C31   C33   1.471513 A    
O3    Cu1   2.022126 S    
C17   O21   1.385416 S    
C43   O25   1.399678 S    
C43   O24   1.224768 D    
C12   C39   1.564678 S    
C39   O11   1.404289 S    
C16   C42   1.486135 S    
C20   C24   1.414004 A    
O17   H6    1.012604 S    
C14   C25   1.416848 A    
C4    C10   1.543474 S    
Cu1   Cu2   2.743396 S    
O23   H11   1.012915 S    
O3    C2    1.323927 A    
C44   O29   1.223345 D    
N1    C38   1.363114 A    
C27   C44   1.486956 S    
C15   C26   1.410247 A    
C41   O17   1.398207 S    
C15   C16   1.410953 A    
C42   O22   1.223336 D    
C13   O18   1.382299 S    
C14   C24   1.426940 A    
O9    H1    0.983779 S    
C3    C14   1.485973 S    
O1    C1    1.347359 A    
C13   C21   1.416312 A    
Cu1   O7    2.017623 S    
O21   H10   0.990003 S    
C44   O30   1.398332 S    
C27   C38   1.381870 A    
C45   O33   1.218589 D    
Cu2   O8    2.022125 S    
C25   C40   1.487063 S    
O44   H27   0.991804 S    
C29   C30   1.405601 A    
C45   O34   1.400434 S    
C10   C12   1.638750 S    
C13   C25   1.394429 A    
O46   H28   1.013700 S    
C31   C32   1.434319 A    
C27   C34   1.421082 A    
Cu2   N2    2.055603 S    
C28   C29   1.403488 A    
C33   C34   1.423973 A    
C7    O41   1.416805 S    
C12   C48   1.534794 S    
O40   H23   1.012289 S    
Cu1   O5    1.961221 S    
C35   C36   1.400685 A    
C23   O26   1.367050 S    
C47   O39   1.221999 D    
O1    Cu1   1.975024 S    
O2    Cu2   1.961223 S    
O8    C4    1.339823 A    
O6    C3    1.322936 A    
O4    Cu2   2.017625 S    
O43   H26   0.980830 S    
C32   N2    1.407610 A    
C39   O10   1.218836 D    
O36   H21   0.985545 S    
C22   C23   1.407872 A    
C18   C20   1.432737 A    
O2    C1    1.296885 A    
O19   H8    0.992759 S    
O42   H25   0.989661 S    
C29   O35   1.382523 S    
O12   H3    0.992364 S    
O4    C2    1.311837 A    
C1    C26   1.498818 S    
C8    O43   1.422492 S    
C7    C9    1.592582 S    
Cu1   N1    2.067524 S    
C15   O20   1.382609 S    
O18   H7    0.989409 S    
C7    C11   1.587706 S    
C48   O46   1.403286 S    
C8    O44   1.407123 S    
O15   H5    1.013810 S    
C28   N2    1.355518 A    
C10   C11   1.592666 S    
Cu2   O6    1.975024 S    
C41   O16   1.221514 D    
C17   C18   1.416047 A    
O41   H24   0.993098 S    
O28   H15   0.986141 S    
O38   H22   1.014251 S    
C32   C36   1.424254 A    
C24   O19   1.375612 S    
C33   C37   1.434361 A    
C6    C47   1.573704 S    
C7    O12   1.407311 S    
C22   C41   1.487107 S    
