data_mof_unit_31873.cif
_audit_creation_date              2012-10-26T18:30:17-0400
_audit_creation_method            fapswitch 2.2
_symmetry_space_group_name_H-M    P1
_symmetry_Int_Tables_number       1
_space_group_crystal_system       triclinic
_cell_length_a                    10.622222
_cell_length_b                    12.908748
_cell_length_c                    11.855022
_cell_angle_alpha                 97.592725
_cell_angle_beta                  92.952058
_cell_angle_gamma                 92.922166
_cell_volume                      1606.42129293

loop_
_atom_site_label
_atom_site_type_symbol
_atom_type_description
_atom_site_fract_x
_atom_site_fract_y
_atom_site_fract_z
_atom_type_partial_charge
C1    C     C_R   0.493603 0.300127 0.480442 0.570678
C2    C     C_R   0.593861 0.600729 0.850065 0.040778
C3    C     C_R   0.545645 0.551612 0.153478 0.174317
C4    C     C_R   0.462179 0.445763 0.849067 0.177512
C5    C     C_R   0.536153 0.544181 0.031645 0.020764
C6    C     C_R   0.456678 0.464643 0.970106 0.014034
C7    C     C_R   0.260001 0.500244 0.500808 0.556984
C8    C     C_R   0.740019 0.500210 0.499208 0.562753
C9    C     C_3   0.045058 0.510560 0.606357 0.236240
C10   C     C_3   0.954945 0.490411 0.393616 0.238648
C11   C     C_3   0.954938 0.419098 0.550579 -0.150581
C12   C     C_R   0.505571 0.699904 0.519726 0.575382
C13   C     C_3   0.045133 0.581820 0.449423 -0.146320
C14   C     C_3   0.876683 0.500232 0.498305 0.041764
C15   C     C_3   0.123352 0.500653 0.501695 0.037851
C16   C     C_3   0.965819 0.591906 0.556673 -0.139708
C17   C     C_3   0.034176 0.409008 0.443272 -0.144782
C18   C     C_R   0.517830 0.812826 0.529761 -0.004061
C19   C     C_R   0.479289 0.187350 0.471647 -0.005232
C20   C     C_R   0.376852 0.020592 0.386943 0.242635
C21   C     C_R   0.618331 0.979753 0.616146 0.242735
C22   C     C_R   0.387406 0.130906 0.394703 0.230993
C23   C     C_R   0.554784 0.137514 0.544367 -0.169007
C24   C     C_R   0.610107 0.869338 0.606244 0.230681
C25   C     C_3   0.427972 0.332800 0.795849 -0.223137
C26   C     C_3   0.295388 0.314743 0.737345 -0.376548
C27   C     C_3   0.631960 0.640171 0.217810 -0.223966
C28   C     C_3   0.572641 0.746336 0.220474 -0.426145
C29   C     C_R   0.439052 0.862974 0.460075 -0.173802
C30   C     C_R   0.542102 0.029558 0.541444 0.000371
C31   C     C_R   0.451955 0.970928 0.462667 -0.001310
C32   C     C_R   0.378554 0.402012 0.031214 -0.173047
C33   C     C_R   0.606152 0.611672 0.969072 -0.170952
C34   C     C_R   0.391598 0.409902 0.149806 0.045313
Cu1   Cu    Cu3+1 0.509400 0.507730 0.615930 0.979312
Cu2   Cu    Cu3+1 0.490600 0.492270 0.384070 0.974199
H1    H     H_    0.916290 0.354010 0.593495 0.125941
H2    H     H_    0.671337 0.673917 0.009203 0.103145
H3    H     H_    0.022662 0.524045 0.766843 0.322553
H4    H     H_    0.976984 0.476162 0.233032 0.322739
H5    H     H_    0.774052 0.856876 0.682671 0.327017
H6    H     H_    0.225214 0.144513 0.315760 0.325967
H7    H     H_    0.285641 0.997086 0.238543 0.336083
H8    H     H_    0.711130 0.002076 0.763788 0.335507
H9    H     H_    0.226785 0.360738 0.787447 0.181437
H10   H     H_    0.292509 0.334571 0.649737 0.201199
H11   H     H_    0.264707 0.230516 0.730944 0.119320
H12   H     H_    0.083894 0.646904 0.406563 0.127794
H13   H     H_    0.504198 0.298704 0.747001 0.174505
H14   H     H_    0.431969 0.279307 0.861689 0.104995
H15   H     H_    0.472370 0.739619 0.241690 0.188377
H16   H     H_    0.625144 0.804744 0.285519 0.147949
H17   H     H_    0.575385 0.776663 0.137540 0.144755
H18   H     H_    0.658444 0.628846 0.304694 0.221302
H19   H     H_    0.725275 0.642983 0.180018 0.129741
H20   H     H_    0.935724 0.665497 0.604446 0.137842
H21   H     H_    0.064287 0.335410 0.395526 0.135508
H22   H     H_    0.367960 0.816734 0.403290 0.181627
H23   H     H_    0.624373 0.183869 0.602738 0.181262
H24   H     H_    0.645346 0.655425 0.805274 0.175483
H25   H     H_    0.332998 0.359501 0.194171 0.167997
H26   H     H_    0.306895 0.345941 0.988194 0.105953
N1    N     N_R   0.523540 0.519360 0.790140 -0.224578
N2    N     N_R   0.476460 0.480640 0.209860 -0.229433
O1    O     O_R   0.506670 0.354460 0.582000 -0.551395
O2    O     O_3   0.903576 0.479834 0.281449 -0.681645
O3    O     O_3   0.693275 0.814547 0.665838 -0.725453
O4    O     O_3   0.306730 0.185765 0.332669 -0.722264
O5    O     O_3   0.296602 0.959853 0.305948 -0.726144
O6    O     O_3   0.698531 0.040309 0.697331 -0.726166
O7    O     O_R   0.493330 0.645540 0.418000 -0.549756
O8    O     O_R   0.490800 0.341410 0.386200 -0.445935
O9    O     O_R   0.509200 0.658590 0.613800 -0.453281
O10   O     O_R   0.324790 0.506500 0.597880 -0.459271
O11   O     O_R   0.675210 0.493500 0.402120 -0.478363
O12   O     O_R   0.308910 0.493440 0.402080 -0.518319
O13   O     O_R   0.691090 0.506560 0.597920 -0.515623
O14   O     O_3   0.096213 0.521677 0.718594 -0.683714

loop_
_geom_bond_atom_site_label_1
_geom_bond_atom_site_label_2
_ccdc_geom_bond_type
C6    C32   A    
Cu1   O10   S    
Cu1   Cu2   S    
C4    C25   S    
C27   H18   S    
H5    O3    S    
C3    N2    A    
C23   H23   S    
C4    N1    A    
C18   C24   A    
C9    C16   S    
C30   C31   A    
C28   H15   S    
C2    H24   S    
Cu1   O1    S    
C10   C17   S    
C11   H1    S    
C25   H14   S    
Cu2   O12   S    
C26   H9    S    
C11   C17   S    
C5    C33   A    
C1    O1    A    
H8    O6    S    
C23   C30   A    
C24   O3    S    
Cu2   O7    S    
C7    C15   S    
H7    O5    S    
H4    O2    S    
C12   O9    A    
H6    O4    S    
C7    O10   A    
C10   O2    S    
C1    C19   S    
C1    O8    A    
H3    O14   S    
C19   C22   A    
C4    C6    A    
C10   C14   S    
C25   C26   S    
Cu1   O13   S    
C8    O11   A    
C32   C34   A    
C19   C23   A    
C16   H20   S    
Cu2   O11   S    
C34   N2    A    
C18   C29   A    
C9    C11   S    
C22   O4    S    
C26   H11   S    
C2    C33   A    
C12   O7    A    
C20   C22   A    
C13   C15   S    
C8    O13   A    
C14   C16   S    
C20   O5    S    
C21   C24   A    
C2    N1    A    
C15   C17   S    
Cu1   O9    S    
C8    C14   S    
C3    C5    A    
C10   C13   S    
C13   H12   S    
C28   H17   S    
C7    O12   A    
C21   C30   A    
C33   H2    S    
C21   O6    S    
C3    C27   S    
C9    C15   S    
C32   H26   S    
C29   C31   A    
C28   H16   S    
C5    C6    A    
C11   C14   S    
C27   H19   S    
C9    O14   S    
C34   H25   S    
C25   H13   S    
C26   H10   S    
C29   H22   S    
C13   C16   S    
C12   C18   S    
C27   C28   S    
Cu1   N1    S    
Cu2   N2    S    
Cu2   O8    S    
C17   H21   S    
C20   C31   A    
