data_mof_unit_61759.cif
_audit_creation_date              2012-12-10T18:21:47-0500
_audit_creation_method            fapswitch 2.2
_symmetry_space_group_name_H-M    P1
_symmetry_Int_Tables_number       1
_space_group_crystal_system       triclinic
_cell_length_a                    18.575135
_cell_length_b                    18.657943
_cell_length_c                    18.596171
_cell_angle_alpha                 109.500213
_cell_angle_beta                  109.801711
_cell_angle_gamma                 109.4789
_cell_volume                      4938.67586118

loop_
_atom_site_label
_atom_site_type_symbol
_atom_type_description
_atom_site_fract_x
_atom_site_fract_y
_atom_site_fract_z
_atom_type_partial_charge
C1    C     C_R   0.623654 0.621354 0.502465 0.824306
C2    C     C_3   0.181526 0.417542 0.194773 -0.171100
C3    C     C_3   0.217987 0.471364 0.295122 -0.157593
C4    C     C_3   0.311655 0.499675 0.310306 0.026317
C5    C     C_3   0.744803 0.654100 0.467375 -0.382580
C6    C     C_3   0.817123 0.727282 0.470261 -0.423696
C7    C     C_3   0.646907 0.720106 0.443776 -0.459696
C8    C     C_3   0.759140 0.772054 0.600404 0.034198
C9    C     C_3   0.693092 0.690280 0.504335 0.120469
C10   C     C_3   0.810603 0.811718 0.501606 0.146059
C11   C     C_3   0.715940 0.790171 0.440315 -0.387763
C12   C     C_R   0.378832 0.499952 0.378390 0.865601
C13   C     C_3   0.827498 0.844467 0.597223 -0.407035
C14   C     C_3   0.654123 0.407360 0.679127 -0.417518
C15   C     C_3   0.724878 0.405843 0.750421 -0.388763
C16   C     C_3   0.772497 0.523095 0.678915 -0.417736
C17   C     C_3   0.718335 0.568521 0.784605 -0.372921
C18   C     C_3   0.690288 0.500329 0.690083 0.193767
C19   C     C_3   0.810982 0.497288 0.808768 0.191848
C20   C     C_3   0.843485 0.520041 0.748265 -0.385187
C21   C     C_3   0.790628 0.567400 0.854665 -0.424802
C22   C     C_3   0.261626 0.221477 0.414415 -0.419317
C23   C     C_R   0.378353 0.378639 0.499737 0.824366
C24   C     C_3   0.190878 0.150341 0.415232 -0.427270
C25   C     C_3   0.356646 0.297902 0.581144 -0.009390
C26   C     C_3   0.242539 0.337607 0.509614 -0.386293
C27   C     C_3   0.311822 0.311084 0.502157 0.119442
C28   C     C_3   0.190543 0.190643 0.502242 0.142063
C29   C     C_3   0.283209 0.228489 0.581944 -0.354758
C30   C     C_3   0.171293 0.266707 0.510111 -0.417568
C31   C     C_R   0.999057 0.621180 0.120245 0.846796
C32   C     C_R   0.122768 0.499882 0.122131 0.860673
C33   C     C_R   0.002644 0.378611 0.881248 0.837780
C34   C     C_R   0.621930 0.500533 0.621886 0.814866
C35   C     C_R   0.879447 0.497124 0.876812 0.828581
C36   C     C_R   0.999572 0.878100 0.378393 0.843946
C37   C     C_R   0.878349 0.879441 0.500661 0.839770
C38   C     C_R   0.001719 0.123191 0.621239 0.826644
C39   C     C_R   0.121708 0.122382 0.501340 0.834983
C40   C     C_3   0.910704 0.648847 0.188834 -0.411877
C41   C     C_3   0.904754 0.721950 0.252784 0.011322
C42   C     C_3   0.076526 0.724113 0.279066 -0.431121
C43   C     C_3   0.006402 0.765752 0.169391 -0.398408
C44   C     C_3   0.998123 0.688743 0.187734 0.160971
C45   C     C_3   0.320877 0.581983 0.304707 -0.160249
C46   C     C_3   0.997440 0.809088 0.308447 0.125703
C47   C     C_3   0.070962 0.788744 0.350955 -0.423250
C48   C     C_3   0.017806 0.841511 0.247101 -0.414488
C49   C     C_3   0.948463 0.218018 0.797745 -0.381155
C50   C     C_3   0.951419 0.148832 0.727318 -0.466529
C51   C     C_3   0.962717 0.311425 0.725711 -0.422928
C52   C     C_3   0.099766 0.331611 0.841573 -0.408184
C53   C     C_3   0.003193 0.310932 0.813095 0.149595
C54   C     C_3   0.004062 0.192824 0.690399 0.121541
C55   C     C_3   0.958920 0.238687 0.652029 -0.380784
C56   C     C_3   0.225894 0.553654 0.288272 -0.150899
C57   C     C_3   0.101646 0.262957 0.768134 0.031657
C58   C     C_3   0.190666 0.499873 0.189197 0.028086
C59   C     C_3   0.284396 0.528191 0.204373 -0.173353
C60   C     C_3   0.276355 0.445848 0.211100 -0.177450
H1    H     H_    0.203385 0.597647 0.317757 0.115281
H2    H     H_    0.809847 0.704807 0.403504 0.154444
H3    H     H_    0.597731 0.662988 0.375624 0.175256
H4    H     H_    0.701373 0.765371 0.370867 0.187030
H5    H     H_    0.720454 0.798983 0.622610 0.164830
H6    H     H_    0.896319 0.863581 0.642652 0.191185
H7    H     H_    0.822238 0.904795 0.620442 0.129513
H8    H     H_    0.610100 0.747587 0.468970 0.164577
H9    H     H_    0.710701 0.850634 0.461367 0.169661
H10   H     H_    0.635266 0.357485 0.612605 0.178838
H11   H     H_    0.379667 0.649030 0.351420 0.124818
H12   H     H_    0.593653 0.388777 0.684527 0.162178
H13   H     H_    0.698658 0.388322 0.791482 0.185245
H14   H     H_    0.738866 0.354131 0.718535 0.151429
H15   H     H_    0.754463 0.475708 0.611635 0.178582
H16   H     H_    0.858356 0.469919 0.714696 0.150725
H17   H     H_    0.743837 0.635840 0.793532 0.175278
H18   H     H_    0.660188 0.552802 0.794263 0.173987
H19   H     H_    0.768079 0.552716 0.899051 0.158801
H20   H     H_    0.851464 0.633619 0.896327 0.162226
H21   H     H_    0.799893 0.589832 0.686834 0.148042
H22   H     H_    0.309852 0.551322 0.165594 0.138098
H23   H     H_    0.905422 0.585198 0.787862 0.184283
H24   H     H_    0.308483 0.199629 0.405570 0.177939
H25   H     H_    0.229607 0.228678 0.356715 0.175487
H26   H     H_    0.124877 0.122337 0.357242 0.181336
H27   H     H_    0.204896 0.095658 0.408899 0.151676
H28   H     H_    0.398502 0.270553 0.567311 0.132915
H29   H     H_    0.298144 0.174986 0.579747 0.161040
H30   H     H_    0.274333 0.401627 0.570710 0.178258
H31   H     H_    0.210789 0.345955 0.452707 0.154821
H32   H     H_    0.105252 0.241924 0.454036 0.186290
H33   H     H_    0.298447 0.401751 0.180964 0.142330
H34   H     H_    0.170232 0.296239 0.572210 0.147893
H35   H     H_    0.281336 0.257100 0.643735 0.187030
H36   H     H_    0.908963 0.600379 0.211545 0.166134
H37   H     H_    0.853379 0.610542 0.120229 0.155107
H38   H     H_    0.894163 0.701879 0.300181 0.131568
H39   H     H_    0.075257 0.669241 0.291159 0.156546
H40   H     H_    0.056114 0.759915 0.391323 0.171864
H41   H     H_    0.064301 0.791233 0.160657 0.183823
H42   H     H_    0.122933 0.350372 0.148099 0.133493
H43   H     H_    0.946002 0.742156 0.107289 0.153606
H44   H     H_    0.974965 0.866892 0.221295 0.166108
H45   H     H_    0.087161 0.897349 0.285278 0.159068
H46   H     H_    0.140298 0.758088 0.282013 0.179353
H47   H     H_    0.136789 0.850167 0.395776 0.183171
H48   H     H_    0.878284 0.200815 0.775374 0.183813
H49   H     H_    0.975375 0.217039 0.860565 0.166214
H50   H     H_    0.982840 0.116723 0.757018 0.168596
H51   H     H_    0.882612 0.096523 0.673058 0.167028
H52   H     H_    0.894765 0.300877 0.706305 0.150887
H53   H     H_    0.192806 0.448110 0.333997 0.119212
H54   H     H_    0.888291 0.189892 0.600191 0.185437
H55   H     H_    0.140680 0.399340 0.856230 0.193554
H56   H     H_    0.129289 0.330509 0.903975 0.132412
H57   H     H_    0.130040 0.228497 0.796918 0.164886
H58   H     H_    0.003298 0.376311 0.734318 0.173940
H59   H     H_    0.991433 0.266895 0.620023 0.155019
H60   H     H_    0.699004 0.599338 0.397545 0.189080
H61   H     H_    0.774762 0.626950 0.505786 0.151556
H62   H     H_    0.883182 0.740630 0.516058 0.177411
O1    O     O_R   0.592740 0.540340 0.447840 -0.626981
O2    O     O_R   0.053270 0.644880 0.093500 -0.630158
O3    O     O_R   0.041720 0.447740 0.093910 -0.625827
O4    O     O_R   0.146290 0.552270 0.093890 -0.626539
O5    O     O_R   0.949110 0.355140 0.908700 -0.633344
O6    O     O_R   0.053680 0.459670 0.908680 -0.633648
O7    O     O_R   0.856090 0.447760 0.908300 -0.631774
O8    O     O_R   0.960660 0.552280 0.908280 -0.632600
O9    O     O_R   0.052690 0.907450 0.460090 -0.632034
O10   O     O_R   0.947900 0.907390 0.355230 -0.623717
O11   O     O_R   0.959780 0.907430 0.552420 -0.629157
O12   O     O_R   0.592480 0.644870 0.552180 -0.632965
O13   O     O_R   0.854990 0.907370 0.447560 -0.633671
O14   O     O_R   0.052100 0.092610 0.644770 -0.633403
O15   O     O_R   0.947310 0.092550 0.539920 -0.628297
O16   O     O_R   0.145010 0.092640 0.552440 -0.633724
O17   O     O_R   0.040220 0.092570 0.447580 -0.629371
O18   O     O_R   0.407320 0.447740 0.355030 -0.626432
O19   O     O_R   0.407060 0.552270 0.459360 -0.622326
O20   O     O_R   0.407520 0.355130 0.447820 -0.630123
O21   O     O_R   0.407260 0.459660 0.552160 -0.635791
O22   O     O_R   0.592940 0.447730 0.540640 -0.630123
O23   O     O_R   0.592680 0.552260 0.644970 -0.637403
O24   O     O_R   0.948700 0.540360 0.093520 -0.630622
Zn1   Zn    Zn3+2 0.500170 0.430200 0.430330 0.913489
Zn2   Zn    Zn3+2 0.499830 0.569800 0.569670 0.913339
Zn3   Zn    Zn3+2 0.931370 0.430220 0.001110 0.915602
Zn4   Zn    Zn3+2 0.071010 0.569800 0.001080 0.914231
Zn5   Zn    Zn3+2 0.069970 0.000040 0.570020 0.911933
Zn6   Zn    Zn3+2 0.930030 0.999960 0.429990 0.911501
C61   C     C_3   0.805199 0.748766 0.668723 -0.415556
C62   C     C_3   0.848999 0.821919 0.764128 -0.911038
H63   H     H_    0.901475 0.883758 0.777847 0.258866
H64   H     H_    0.798841 0.834322 0.776823 0.258392
H65   H     H_    0.879661 0.801533 0.810166 0.248535
H66   H     H_    0.756019 0.688608 0.660722 0.203830
H67   H     H_    0.855930 0.735359 0.658416 0.208804
C63   C     C_3   0.419234 0.383488 0.673230 -0.395290
C64   C     C_3   0.465264 0.367406 0.746914 -0.941147
H68   H     H_    0.418680 0.335297 0.765750 0.265306
H69   H     H_    0.492949 0.325410 0.725883 0.255937
H70   H     H_    0.520319 0.431352 0.806543 0.253355
H71   H     H_    0.472625 0.430703 0.671075 0.221547
H72   H     H_    0.382344 0.415228 0.691686 0.217761
C65   C     C_3   0.823466 0.729461 0.201257 -0.354214
C66   C     C_3   0.759243 0.715399 0.235743 -0.935516
H73   H     H_    0.732454 0.648672 0.227811 0.251450
H74   H     H_    0.793804 0.765403 0.306434 0.278587
H75   H     H_    0.703282 0.722030 0.198329 0.251678
H76   H     H_    0.843417 0.793562 0.204042 0.225478
H77   H     H_    0.784518 0.680586 0.129431 0.196470
C67   C     C_3   0.162568 0.307462 0.737627 -0.417825
C68   C     C_3   0.260747 0.355871 0.807157 -0.916289
H78   H     H_    0.275982 0.408465 0.869903 0.262084
H79   H     H_    0.279458 0.308986 0.820297 0.258133
H80   H     H_    0.301217 0.386627 0.782300 0.252728
H81   H     H_    0.152542 0.257180 0.676730 0.197751
H82   H     H_    0.146426 0.354600 0.722028 0.210225

loop_
_geom_bond_atom_site_label_1
_geom_bond_atom_site_label_2
_ccdc_geom_bond_type
C50   H50   S    
C59   C60   S    
C8    C13   S    
C56   H1    S    
C45   H11   S    
C16   H15   S    
C14   C18   S    
O9    Zn5   S    
C19   C20   S    
O11   Zn5   S    
C59   H22   S    
C32   C58   S    
C63   H72   S    
O14   Zn5   S    
C29   H29   S    
C64   H68   S    
C68   H79   S    
C55   H59   S    
C52   C53   S    
C15   C19   S    
C34   O22   A    
C26   C27   S    
C50   C54   S    
C10   C37   S    
C57   H57   S    
C28   C29   S    
C19   C21   S    
C31   O2    A    
C36   O10   A    
C5    C6    S    
C34   O23   A    
C2    C60   S    
C2    H42   S    
C13   H6    S    
C48   H44   S    
C5    H61   S    
O17   Zn6   S    
C33   O5    A    
C51   H58   S    
C12   O19   A    
C20   H16   S    
C51   C55   S    
C22   H25   S    
C32   O4    A    
C61   H66   S    
C67   C68   S    
C17   H18   S    
O19   Zn2   S    
C7    H8    S    
C54   C55   S    
C31   O24   A    
C66   H75   S    
C45   C59   S    
C68   H78   S    
C45   C56   S    
C8    C9    S    
O8    Zn4   S    
C41   C46   S    
C12   O18   A    
C23   O20   A    
C36   C46   S    
C38   O14   A    
C68   H80   S    
C43   C48   S    
C35   O7    A    
C62   H64   S    
C65   H77   S    
C60   H33   S    
C66   H74   S    
C39   O16   A    
C8    H5    S    
C25   C29   S    
C14   H10   S    
C23   O21   A    
C42   C44   S    
C40   H36   S    
O22   Zn1   S    
O18   Zn1   S    
C17   H17   S    
C64   H69   S    
C49   H48   S    
C46   C48   S    
C4    C45   S    
C52   H56   S    
C33   C53   S    
O21   Zn2   S    
C39   O17   A    
C31   C44   S    
C5    H60   S    
C1    C9    S    
C62   H65   S    
C30   H32   S    
C11   H4    S    
C3    H53   S    
C36   O9    A    
C65   C66   S    
C29   H35   S    
C28   C39   S    
C26   H31   S    
C25   H28   S    
C17   C21   S    
C47   H40   S    
C51   C53   S    
C22   H24   S    
C32   O3    A    
C61   H67   S    
C7    C11   S    
C43   C44   S    
C43   H41   S    
O7    Zn3   S    
O24   Zn3   S    
C18   C34   S    
C3    C56   S    
C1    O1    A    
C48   H45   S    
C38   C54   S    
C51   H52   S    
C16   C20   S    
C4    C60   S    
C25   C63   S    
C37   O13   A    
C17   C18   S    
O15   Zn6   S    
C63   H71   S    
C8    C61   S    
C42   H46   S    
C35   O8    A    
C7    H3    S    
C62   H63   S    
O3    Zn3   S    
O6    Zn4   S    
C66   H73   S    
C15   H13   S    
O1    Zn1   S    
C26   C30   S    
C23   C27   S    
C22   C27   S    
O10   Zn6   S    
C22   C24   S    
C25   C27   S    
C6    H62   S    
C3    C4    S    
C67   H82   S    
C1    O12   A    
C40   H37   S    
C64   H70   S    
O23   Zn2   S    
C49   H49   S    
C13   H7    S    
C52   H55   S    
C7    C9    S    
O2    Zn4   S    
C46   C47   S    
C40   C41   S    
C41   H38   S    
C14   H12   S    
O20   Zn1   S    
C24   C28   S    
C5    C9    S    
C10   C13   S    
C6    C10   S    
C11   H9    S    
C65   H76   S    
C55   H54   S    
O16   Zn5   S    
C26   H30   S    
O12   Zn2   S    
C47   H47   S    
C10   C11   S    
C63   C64   S    
C6    H2    S    
C28   C30   S    
C2    C3    S    
C58   C59   S    
C30   H34   S    
C19   C35   S    
C42   H39   S    
O5    Zn3   S    
O4    Zn4   S    
C21   H19   S    
C49   C53   S    
C41   C65   S    
C21   H20   S    
C16   H21   S    
C38   O15   A    
C56   C58   S    
C37   O11   A    
C42   C47   S    
C33   O6    A    
C2    C58   S    
C24   H27   S    
C43   H43   S    
C50   H51   S    
C52   C57   S    
C57   C67   S    
C40   C44   S    
C15   H14   S    
C16   C18   S    
C49   C50   S    
C20   H23   S    
C14   C15   S    
C61   C62   S    
C4    C12   S    
C24   H26   S    
C67   H81   S    
O13   Zn6   S    
C54   C57   S    
