data_mof_unit_7140.cif
_audit_creation_date              2012-12-10T19:41:54-0500
_audit_creation_method            fapswitch 2.2
_symmetry_space_group_name_H-M    P1
_symmetry_Int_Tables_number       1
_space_group_crystal_system       triclinic
_cell_length_a                    18.360473
_cell_length_b                    18.256425
_cell_length_c                    18.274684
_cell_angle_alpha                 119.569089
_cell_angle_beta                  90.310536
_cell_angle_gamma                 120.049466
_cell_volume                      4344.56069836

loop_
_atom_site_label
_atom_site_type_symbol
_atom_type_description
_atom_site_fract_x
_atom_site_fract_y
_atom_site_fract_z
_atom_type_partial_charge
C1    C     C_R   0.139884 0.779960 0.142505 0.861498
C2    C     C_R   0.800725 0.108426 0.805224 -0.148947
C3    C     C_R   0.728970 0.055646 0.829130 0.456315
C4    C     C_R   0.860223 0.220014 0.860325 0.806155
C5    C     C_R   0.671629 0.946196 0.774383 -0.137950
C6    C     C_R   0.685169 0.891633 0.693865 -0.183681
C7    C     C_R   0.745650 0.947429 0.665250 -0.131409
C8    C     C_3   0.811595 0.934858 0.621371 0.315570
C9    C     C_3   0.881320 0.052274 0.688710 0.337743
C10   C     C_R   0.753230 0.532107 0.199231 -0.066839
C11   C     C_R   0.810664 0.504877 0.201175 -0.238029
C12   C     C_R   0.811850 0.708043 0.788675 0.421303
C13   C     C_R   0.817081 0.481251 0.263076 0.425789
C14   C     C_R   0.762413 0.481882 0.317390 0.437570
C15   C     C_R   0.699798 0.504025 0.308395 -0.214244
C16   C     C_R   0.139913 0.501915 0.859842 0.909523
C17   C     C_R   0.697970 0.528908 0.247746 -0.124401
C18   C     C_3   0.650605 0.549669 0.199941 0.374574
C19   C     C_3   0.715472 0.552401 0.145487 0.318245
C20   C     C_R   0.285347 0.946597 0.216009 0.040103
C21   C     C_R   0.195991 0.891268 0.208955 -0.239024
C22   C     C_R   0.164188 0.945850 0.268078 -0.183032
C23   C     C_R   0.786109 0.610731 0.769653 -0.103729
C24   C     C_R   0.219409 0.055185 0.321187 0.434623
C25   C     C_R   0.304432 0.108244 0.313872 -0.156938
C26   C     C_R   0.338236 0.052359 0.266790 -0.118326
C27   C     C_3   0.388790 0.057157 0.203111 0.339575
C28   C     C_R   0.860884 0.500407 0.140606 0.851618
C29   C     C_3   0.328302 0.937464 0.145736 0.235326
C30   C     C_R   0.283337 0.579665 0.241665 -0.088237
C31   C     C_R   0.195747 0.493681 0.189674 -0.193454
C32   C     C_R   0.165516 0.402747 0.184437 0.517537
C33   C     C_R   0.220231 0.405257 0.240717 -0.298079
C34   C     C_R   0.841465 0.609741 0.823604 -0.153034
C35   C     C_R   0.305423 0.496085 0.298975 -0.116369
C36   C     C_R   0.338250 0.580858 0.294685 -0.129470
C37   C     C_3   0.378128 0.692641 0.368715 0.918778
C38   C     C_3   0.315958 0.689163 0.308383 0.250279
C39   C     C_R   0.283878 0.545438 0.836917 -0.036453
C40   C     C_R   0.139773 0.498940 0.139248 0.838239
C41   C     C_R   0.195973 0.510327 0.804206 -0.247817
C42   C     C_R   0.166071 0.488035 0.718999 -0.161293
C43   C     C_R   0.221430 0.488134 0.665280 0.478115
C44   C     C_R   0.305301 0.510204 0.696635 -0.200352
C45   C     C_R   0.817037 0.512726 0.803740 0.002141
C46   C     C_R   0.338437 0.549754 0.785895 -0.161355
C47   C     C_3   0.388953 0.529934 0.830517 0.274296
C48   C     C_3   0.326247 0.523407 0.886937 0.391363
C49   C     C_R   0.639982 0.500091 0.359946 0.847154
C50   C     C_R   0.360018 0.500765 0.640110 0.837669
C51   C     C_R   0.638050 0.780037 0.639704 0.902737
C52   C     C_R   0.863245 0.503252 0.860056 0.852830
C53   C     C_R   0.359869 0.219818 0.360732 0.874003
C54   C     C_R   0.360171 0.500188 0.359905 0.872565
C55   C     C_R   0.643954 0.504185 0.640109 0.840484
C56   C     C_R   0.744940 0.420388 0.728653 -0.212836
C57   C     C_R   0.921047 0.705404 0.892986 0.381420
C58   C     C_R   0.934159 0.799180 0.921262 0.328325
C59   C     C_R   0.880179 0.801352 0.868751 -0.275206
C60   C     C_3   0.728014 0.905976 0.497526 -0.116462
C61   C     C_3   0.004935 0.172693 0.822526 -0.234520
C62   C     C_2   0.918929 0.110160 0.645671 0.922351
C63   C     C_3   0.959426 0.535683 0.317861 -0.193367
C64   C     C_3   0.817348 0.543962 0.462422 -0.244418
C65   C     C_3   0.502305 0.440075 0.186492 -0.274002
C66   C     C_2   0.662488 0.651999 0.256133 0.935520
C67   C     C_R   0.692143 0.420934 0.675592 -0.207928
C68   C     C_3   0.763711 0.653017 0.091024 -0.208047
C69   C     C_2   0.075180 0.891878 0.276571 0.996198
C70   C     C_3   0.051886 0.721997 0.891519 -0.255868
C71   C     C_3   0.217088 0.134623 0.462532 -0.181770
C72   C     C_3   0.391512 0.075495 0.084703 -0.280069
C73   C     C_2   0.487357 0.112596 0.249035 0.947402
C74   C     C_3   0.387254 0.852242 0.060992 -0.199192
C75   C     C_3   0.085109 0.243646 0.054240 -0.206546
C76   C     C_3   0.382499 0.800578 0.511554 -0.298362
C77   C     C_3   0.508878 0.734868 0.325843 -0.259821
C78   C     C_R   0.709405 0.513802 0.696355 -0.004253
C79   C     C_3   0.984804 0.900537 0.072901 -0.124098
C80   C     C_3   0.370819 0.843589 0.325904 -0.159897
C81   C     C_2   0.078686 0.465171 0.684490 0.980394
C82   C     C_3   0.224755 0.554983 0.587582 -0.208876
C83   C     C_3   0.509971 0.707953 0.903818 -0.122130
C84   C     C_2   0.261449 0.417134 0.868255 0.760916
C85   C     C_3   0.412089 0.590810 0.027745 -0.131536
C86   C     C_2   0.896278 0.901154 0.895295 1.007242
C87   C     C_3   0.828988 0.732822 0.678009 -0.315818
C88   C     C_3   0.660422 0.134807 0.889090 -0.251572
C89   C     C_R   0.805838 0.052616 0.721845 -0.110609
C90   C     C_2   0.597561 0.891998 0.801414 0.959865
H1    H     H_    0.727249 0.346629 0.712603 0.156437
H2    H     H_    0.660685 0.845017 0.488480 0.203966
H3    H     H_    0.729067 0.892531 0.431538 0.186136
H4    H     H_    0.980532 0.181986 0.879666 0.153906
H5    H     H_    0.013841 0.230403 0.810723 0.161642
H6    H     H_    0.071890 0.190180 0.841910 0.200357
H7    H     H_    0.925736 0.209075 0.620782 0.365040
H8    H     H_    0.983215 0.591167 0.298974 0.118509
H9    H     H_    0.967806 0.575773 0.389953 0.143712
H10   H     H_    0.003203 0.508669 0.307096 0.195229
H11   H     H_    0.775416 0.569874 0.491985 0.144651
H12   H     H_    0.683827 0.486218 0.073434 0.079853
H13   H     H_    0.878402 0.608807 0.466929 0.116394
H14   H     H_    0.838897 0.525067 0.503569 0.192510
H15   H     H_    0.433156 0.389312 0.139672 0.185804
H16   H     H_    0.509637 0.509025 0.244172 0.166749
H17   H     H_    0.509369 0.395473 0.207086 0.168098
H18   H     H_    0.657613 0.760171 0.256752 0.322435
H19   H     H_    0.811154 0.732771 0.109740 0.182070
H20   H     H_    0.694757 0.630469 0.069689 0.182673
H21   H     H_    0.775302 0.601659 0.034582 0.164483
H22   H     H_    0.961171 0.881425 0.284472 0.368821
H23   H     H_    0.278469 0.898068 0.080911 0.070766
H24   H     H_    0.088913 0.799440 0.903618 0.182729
H25   H     H_    0.021213 0.660370 0.818490 0.186298
H26   H     H_    0.100964 0.716286 0.919769 0.165150
H27   H     H_    0.192240 0.178157 0.507057 0.216837
H28   H     H_    0.291277 0.185104 0.491689 0.099466
H29   H     H_    0.189395 0.064006 0.461439 0.145034
H30   H     H_    0.333468 0.999039 0.027778 0.142998
H31   H     H_    0.452377 0.076147 0.086640 0.166903
H32   H     H_    0.403187 0.133399 0.072098 0.204735
H33   H     H_    0.614449 0.231836 0.286657 0.373910
H34   H     H_    0.195087 0.337169 0.240293 0.196306
H35   H     H_    0.425847 0.912786 0.048703 0.109633
H36   H     H_    0.322650 0.786301 0.005387 0.159676
H37   H     H_    0.426836 0.822667 0.062604 0.221294
H38   H     H_    0.119469 0.277519 0.017880 0.126783
H39   H     H_    0.016205 0.176161 0.008399 0.219884
H40   H     H_    0.118953 0.215166 0.071431 0.182756
H41   H     H_    0.353268 0.828226 0.487148 0.126116
H42   H     H_    0.456566 0.854864 0.539445 0.212241
H43   H     H_    0.358696 0.800321 0.567140 0.184370
H44   H     H_    0.468004 0.699944 0.258129 0.197385
H45   H     H_    0.261277 0.693715 0.331552 0.035144
H46   H     H_    0.520162 0.680460 0.325569 0.191342
H47   H     H_    0.574343 0.803963 0.342740 0.170666
H48   H     H_    0.975473 0.838843 0.078865 0.182921
H49   H     H_    0.924263 0.900751 0.073789 0.135006
H50   H     H_    0.041197 0.975600 0.132559 0.210534
H51   H     H_    0.412120 0.889295 0.396700 0.139923
H52   H     H_    0.304901 0.831825 0.321165 0.132268
H53   H     H_    0.406288 0.889201 0.298797 0.244146
H54   H     H_    0.966288 0.375864 0.580238 0.344672
H55   H     H_    0.299079 0.605305 0.611407 0.149782
H56   H     H_    0.379778 0.455770 0.781883 0.119742
H57   H     H_    0.199225 0.598064 0.631913 0.129797
H58   H     H_    0.201000 0.534837 0.520137 0.207746
H59   H     H_    0.468350 0.732671 0.936758 0.153247
H60   H     H_    0.510804 0.708483 0.843390 0.195840
H61   H     H_    0.579402 0.765622 0.951397 0.181284
H62   H     H_    0.219046 0.268502 0.803029 0.356545
H63   H     H_    0.445497 0.554818 0.990470 0.168571
H64   H     H_    0.363920 0.542743 0.047925 0.171107
H65   H     H_    0.464258 0.666818 0.089648 0.187726
H66   H     H_    0.846384 0.974159 0.886123 0.341002
H67   H     H_    0.634778 0.347463 0.619470 0.161174
H68   H     H_    0.849166 0.678863 0.650212 0.124978
H69   H     H_    0.889346 0.813926 0.718947 0.184760
H70   H     H_    0.791909 0.721947 0.621312 0.162738
H71   H     H_    0.690514 0.184356 0.864202 0.114449
H72   H     H_    0.650840 0.178906 0.951974 0.197090
H73   H     H_    0.593421 0.063728 0.840399 0.139387
H74   H     H_    0.554513 0.889043 0.901940 0.311190
H75   H     H_    0.826646 0.887960 0.631586 0.131157
H76   H     H_    0.741028 0.983216 0.541308 0.141685
O1    O     O_3   0.000000 0.500000 0.000000 -0.529360
O2    O     O_R   0.323450 0.268330 0.384170 -0.597677
O3    O     O_R   0.444860 0.560620 0.384150 -0.659333
O4    O     O_R   0.055050 0.731580 0.115780 -0.602848
O5    O     O_R   0.615780 0.439200 0.555040 -0.656155
O6    O     O_R   0.323420 0.439190 0.384160 -0.630678
O7    O     O_R   0.615760 0.560630 0.676470 -0.581753
O8    O     O_R   0.615740 0.731500 0.676460 -0.578667
O9    O     O_R   0.444900 0.268330 0.384170 -0.637520
O10   O     O_R   0.615750 0.560630 0.384150 -0.638614
O11   O     O_R   0.323430 0.439200 0.555040 -0.587573
O12   O     O_R   0.055090 0.439280 0.823480 -0.618052
O13   O     O_R   0.884220 0.268410 0.823490 -0.618083
O14   O     O_R   0.176520 0.560720 0.944920 -0.594220
O15   O     O_R   0.884200 0.439290 0.115800 -0.598799
O16   O     O_R   0.176530 0.560720 0.115800 -0.591057
O17   O     O_R   0.884180 0.560710 0.944910 -0.625244
O18   O     O_R   0.055100 0.439290 0.115810 -0.602340
O19   O     O_R   0.884190 0.439280 0.823480 -0.627794
O20   O     O_3   0.794035 0.900484 0.529922 -0.567872
O21   O     O_3   0.947646 0.069029 0.747660 -0.636498
O22   O     O_2   0.970694 0.100940 0.606400 -0.558950
O23   O     O_R   0.884180 0.560710 0.115790 -0.609445
O24   O     O_R   0.895403 0.174303 0.651450 -0.801459
O25   O     O_3   0.870273 0.448778 0.265953 -0.533928
O26   O     O_3   0.767623 0.454189 0.374357 -0.547136
O27   O     O_3   0.561983 0.464843 0.140795 -0.644184
O28   O     O_2   0.694021 0.704544 0.337468 -0.602094
O29   O     O_R   0.639201 0.687016 0.213713 -0.819250
O30   O     O_3   0.780041 0.651530 0.165545 -0.579466
O31   O     O_2   0.051067 0.820865 0.284052 -0.635183
O32   O     O_R   0.019892 0.924033 0.278306 -0.758090
O33   O     O_3   0.987468 0.709535 0.934569 -0.583480
O34   O     O_R   0.176500 0.731590 0.115790 -0.618304
O35   O     O_3   0.188233 0.109356 0.376624 -0.544809
O36   O     O_3   0.372364 0.101476 0.165269 -0.613561
O37   O     O_2   0.510817 0.082778 0.284965 -0.611048
O38   O     O_R   0.551350 0.200665 0.253261 -0.754987
O39   O     O_3   0.373337 0.892697 0.143600 -0.564310
O40   O     O_3   0.080011 0.314758 0.130898 -0.572971
O41   O     O_3   0.354179 0.699141 0.444381 -0.658820
O42   O     O_3   0.471411 0.767130 0.392046 -0.625137
O43   O     O_3   0.006278 0.890314 0.995912 -0.559718
O44   O     O_3   0.360500 0.748666 0.274783 -0.570956
O45   O     O_R   0.884220 0.268420 0.944930 -0.593919
O46   O     O_2   0.055748 0.519397 0.732684 -0.680143
O47   O     O_R   0.023668 0.383213 0.596003 -0.736661
O48   O     O_3   0.191798 0.462859 0.581045 -0.543210
O49   O     O_3   0.481326 0.609959 0.882598 -0.590597
O50   O     O_2   0.206456 0.404618 0.906511 -0.650126
O51   O     O_R   0.265539 0.334471 0.809169 -0.841106
O52   O     O_3   0.368404 0.606609 0.978912 -0.590946
O53   O     O_2   0.969834 0.982519 0.943833 -0.614148
O54   O     O_R   0.827015 0.902157 0.864543 -0.746606
O55   O     O_3   0.772812 0.713103 0.727957 -0.544139
O56   O     O_3   0.499960 0.499910 0.499960 -0.523745
O57   O     O_3   0.717011 0.110677 0.907612 -0.534016
O58   O     O_2   0.524374 0.816008 0.745267 -0.681622
O59   O     O_R   0.610679 0.929989 0.891602 -0.741613
O60   O     O_R   0.615770 0.439200 0.384160 -0.579031
O61   O     O_R   0.444870 0.560630 0.676470 -0.638433
O62   O     O_R   0.615730 0.731500 0.555020 -0.637272
Zn1   Zn    Zn3+2 0.956630 0.413250 0.869870 1.014153
Zn2   Zn    Zn3+2 0.130130 0.586750 0.043370 1.050316
Zn3   Zn    Zn3+2 0.956630 0.413250 0.043380 1.032407
Zn4   Zn    Zn3+2 0.956610 0.586750 0.043370 1.010575
Zn5   Zn    Zn3+2 0.543330 0.586660 0.630080 1.043253
Zn6   Zn    Zn3+2 0.543320 0.586660 0.456570 0.989359
Zn7   Zn    Zn3+2 0.369830 0.413160 0.456580 1.030312
Zn8   Zn    Zn3+2 0.543350 0.413170 0.456590 1.002324

loop_
_geom_bond_atom_site_label_1
_geom_bond_atom_site_label_2
_ccdc_geom_bond_type
C64   H13   S    
C79   H49   S    
C70   H24   S    
O56   Zn5   S    
C1    C21   S    
C70   O33   S    
C72   H31   S    
C27   C29   S    
C27   O36   S    
C11   C13   A    
C41   C42   A    
C90   O59   S    
C35   C36   A    
C52   O17   A    
C28   O15   A    
C28   O23   A    
C82   H57   S    
C61   H6    S    
O60   Zn8   S    
O1    Zn4   S    
C39   C41   A    
C48   O52   S    
H54   O47   S    
C31   C40   S    
C73   O37   D    
C12   C23   A    
O14   Zn2   S    
C26   C27   S    
C37   C38   S    
C4    O45   A    
O45   Zn3   S    
H33   O38   S    
O9    Zn8   S    
C87   O55   S    
C62   O22   D    
C36   C37   S    
C77   H47   S    
C18   C19   S    
C63   H8    S    
C8    H75   S    
C68   O30   S    
C30   C31   A    
C76   H41   S    
C63   O25   S    
C58   O43   S    
C74   H35   S    
C10   C17   A    
C16   O14   A    
C19   H12   S    
C7    C89   A    
C1    O4    A    
C61   O21   S    
C51   O8    A    
C29   O39   S    
C87   H70   S    
C30   C38   S    
C71   O35   S    
C75   H38   S    
C85   H65   S    
H22   O32   S    
C75   O40   S    
C55   O7    A    
C63   H9    S    
C86   O53   D    
C66   O28   D    
C21   C22   A    
C82   O48   S    
C12   C59   A    
C84   O50   D    
O16   Zn2   S    
C56   H1    S    
O10   Zn6   S    
C47   C48   S    
C45   C56   A    
C44   C46   A    
C8    C9    S    
C47   O49   S    
C34   C57   A    
C3    O57   S    
H74   O59   S    
C77   H46   S    
C6    C51   S    
O13   Zn1   S    
C42   C43   A    
C22   C69   S    
O62   Zn6   S    
C5    C90   S    
C75   H40   S    
C20   C29   S    
C83   H60   S    
C14   O26   S    
C60   H3    S    
C80   H53   S    
C79   H50   S    
C47   H56   S    
C19   O30   S    
H66   O54   S    
C13   C14   A    
C57   O33   S    
C35   C54   S    
C69   O31   D    
C37   O41   S    
C54   O3    A    
C72   H30   S    
C50   O61   A    
C67   C78   A    
O34   Zn2   S    
C42   C81   S    
C65   H15   S    
C64   O26   S    
C16   O12   A    
O1    Zn1   S    
C65   O27   S    
O5    Zn8   S    
C60   H2    S    
C83   H61   S    
C64   H11   S    
O61   Zn5   S    
C73   O38   S    
C81   O47   S    
O56   Zn7   S    
C24   O35   S    
O3    Zn6   S    
C71   H27   S    
C9    C62   S    
C55   O5    A    
C54   O6    A    
C7    C8    S    
C50   O11   A    
C24   C25   A    
O12   Zn1   S    
O11   Zn7   S    
C10   C11   A    
C77   O42   S    
C9    C89   S    
C55   C78   S    
C61   H4    S    
C85   H63   S    
C45   C52   S    
C70   H26   S    
C25   C26   A    
C60   H76   S    
C48   C84   S    
O4    Zn4   S    
C68   H21   S    
C2    C89   A    
C2    C4    S    
C43   C44   A    
C90   O58   D    
C63   H10   S    
C33   H34   S    
C52   O19   A    
C53   O2    A    
C82   H58   S    
C74   H37   S    
C10   C19   S    
C23   C34   A    
O56   Zn8   S    
H62   O51   S    
O23   Zn4   S    
C61   H5    S    
C17   C18   S    
C88   O57   S    
C67   H67   S    
C34   C45   A    
C68   H20   S    
C38   H45   S    
C38   O44   S    
H18   O29   S    
O2    Zn7   S    
H7    O24   S    
C74   H36   S    
C80   H52   S    
C39   C46   A    
C69   O32   S    
C37   O42   S    
C22   C24   A    
C1    O34   A    
C77   H44   S    
C4    O13   A    
C32   O40   S    
C88   H73   S    
O8    Zn5   S    
C65   H16   S    
C82   H55   S    
C53   O9    A    
O1    Zn2   S    
C80   O44   S    
O6    Zn7   S    
C44   C50   S    
C79   O43   S    
C29   H23   S    
C46   C47   S    
O56   Zn6   S    
C60   O20   S    
C68   H19   S    
C71   H28   S    
C72   H32   S    
C85   O52   S    
C31   C32   A    
C64   H14   S    
O18   Zn3   S    
C25   C53   S    
C3    C5    A    
C81   O46   D    
C72   O36   S    
C83   O49   S    
C76   H43   S    
C76   O41   S    
C40   O16   A    
O1    Zn3   S    
C6    C7    A    
C30   C36   A    
C70   H25   S    
C18   C66   S    
C56   C67   A    
O19   Zn1   S    
C13   O25   S    
C87   H68   S    
C71   H29   S    
C8    O20   S    
C32   C33   A    
C2    C3    A    
C58   C59   A    
C59   C86   S    
C27   C73   S    
C76   H42   S    
C57   C58   A    
C5    C6    A    
C20   C26   A    
C11   C28   S    
O15   Zn3   S    
C88   H72   S    
C16   C41   S    
C33   C35   A    
C87   H69   S    
C85   H64   S    
C15   C49   S    
C23   C78   A    
C12   O55   S    
C84   O51   S    
C66   O29   S    
C75   H39   S    
C79   H48   S    
C20   C21   A    
C18   O27   S    
C80   H51   S    
C86   O54   S    
C51   O62   A    
C14   C15   A    
C9    O21   S    
O7    Zn5   S    
C40   O18   A    
C49   O60   A    
C15   C17   A    
C43   O48   S    
O17   Zn4   S    
C65   H17   S    
C49   O10   A    
C88   H71   S    
C39   C48   S    
C83   H59   S    
C74   O39   S    
C62   O24   S    
