data_mof_unit_40248.cif
_audit_creation_date              2012-12-10T19:08:36-0500
_audit_creation_method            fapswitch 2.2
_symmetry_space_group_name_H-M    P1
_symmetry_Int_Tables_number       1
_space_group_crystal_system       triclinic
_cell_length_a                    15.97266
_cell_length_b                    10.833096
_cell_length_c                    9.55678
_cell_angle_alpha                 90.113016
_cell_angle_beta                  89.647697
_cell_angle_gamma                 90.204203
_cell_volume                      1653.5968373

loop_
_atom_site_label
_atom_site_type_symbol
_atom_type_description
_atom_site_fract_x
_atom_site_fract_y
_atom_site_fract_z
_atom_type_partial_charge
C1    C     C_R   0.499036 0.262473 0.499770 0.820129
C2    C     C_R   0.042571 0.467603 0.619150 -0.249731
C3    C     C_1   0.822925 0.498409 0.497300 0.014963
C4    C     C_1   0.176934 0.497708 0.499665 0.074203
C5    C     C_1   0.252075 0.498666 0.500678 -0.117030
C6    C     C_1   0.747825 0.499633 0.498657 -0.177909
C7    C     C_R   0.459857 0.063441 0.609641 0.077556
C8    C     C_R   0.493440 0.129417 0.497039 -0.097620
C9    C     C_R   0.516248 0.064425 0.375120 -0.223463
C10   C     C_R   0.516235 0.935748 0.374944 -0.205783
C11   C     C_R   0.494204 0.870784 0.497101 -0.045377
C12   C     C_R   0.341296 0.499627 0.500293 0.823644
C13   C     C_R   0.460989 0.936628 0.609812 -0.019703
C14   C     C_3   0.475080 0.929523 0.763650 -0.572567
C15   C     C_3   0.472065 0.070547 0.764533 0.940427
C16   C     C_R   0.571813 0.523837 0.072891 0.234909
C17   C     C_R   0.431890 0.461918 0.075364 -0.188860
C18   C     C_R   0.431916 0.461017 0.927093 0.686670
C19   C     C_R   0.571928 0.523353 0.925783 0.181396
C20   C     C_3   0.624897 0.636649 0.919402 -0.477596
C21   C     C_3   0.624137 0.637856 0.078445 -0.467234
C22   C     C_R   0.499534 0.737616 0.499856 0.799417
C23   C     C_R   0.658673 0.500263 0.499653 0.817272
C24   C     C_R   0.955347 0.468000 0.618108 -0.241982
C25   C     C_R   0.912566 0.495904 0.494933 -0.040470
C26   C     C_R   0.957228 0.521956 0.370713 0.375400
C27   C     C_R   0.044876 0.524953 0.373581 0.544036
C28   C     C_R   0.087328 0.496524 0.497278 -0.049228
Cu1   Cu    Cu3+1 0.500000 0.499980 0.640670 1.035330
Cu2   Cu    Cu3+1 0.500000 0.500020 0.359330 0.945987
H1    H     H_    0.075075 0.445911 0.715177 0.192205
H2    H     H_    0.376347 0.432155 0.131007 0.183233
H3    H     H_    0.687830 0.617828 0.874029 0.206403
H4    H     H_    0.591648 0.715814 0.872627 0.206662
H5    H     H_    0.686719 0.620388 0.124469 0.203795
H6    H     H_    0.589949 0.717819 0.123729 0.204734
H7    H     H_    0.921165 0.447465 0.713508 0.181698
H8    H     H_    0.537733 0.112442 0.282195 0.171426
H9    H     H_    0.537635 0.887891 0.281895 0.156009
H10   H     H_    0.421783 0.884295 0.818880 0.187846
H11   H     H_    0.538008 0.893476 0.789249 0.196288
N1    N     N_R   0.500520 0.500930 0.147930 -0.217817
N2    N     N_R   0.500520 0.500890 0.852020 -0.234855
O1    O     O_R   0.500000 0.319640 0.618810 -0.507894
O2    O     O_R   0.500010 0.319680 0.381230 -0.607617
O3    O     O_R   0.380300 0.499950 0.618760 -0.500297
O4    O     O_R   0.380310 0.499990 0.381180 -0.587881
O5    O     O_R   0.499990 0.680320 0.618770 -0.584572
O6    O     O_R   0.500000 0.680360 0.381190 -0.585616
O7    O     O_R   0.619690 0.500010 0.618820 -0.573133
O8    O     O_R   0.619700 0.500050 0.381240 -0.577643
F1    F     F_    0.546948 0.127179 0.801274 -0.691729
F2    F     F_    0.362596 0.419442 0.861238 -0.649725
O9    O     O_3   0.916073 0.555296 0.249476 -0.574558
C29   C     C_3   0.885338 0.448771 0.180250 0.061968
H12   H     H_    0.824965 0.473817 0.130788 0.164517
H13   H     H_    0.871469 0.369710 0.251682 0.121271
C30   C     C_3   0.946664 0.408213 0.065394 -0.309401
H14   H     H_    0.959564 0.486994 0.993974 0.245208
H15   H     H_    0.006582 0.379209 0.113475 0.246259
C31   C     C_3   0.911453 0.300532 0.980742 -0.930496
H16   H     H_    0.899302 0.220019 0.049839 0.269689
H17   H     H_    0.957411 0.273039 0.898879 0.265080
H18   H     H_    0.852237 0.327795 0.929032 0.259524
F3    F     F_    0.088432 0.555779 0.256143 -0.652043
O10   O     O_3   0.400340 0.119824 0.831361 -0.607600
C32   C     C_3   0.410139 0.118829 0.978226 0.114654
H19   H     H_    0.454441 0.193078 0.010046 0.177889
H20   H     H_    0.434012 0.028426 0.016310 0.122907
C33   C     C_3   0.324813 0.142222 0.046512 -0.336256
H21   H     H_    0.300355 0.232875 0.011624 0.267442
H22   H     H_    0.280089 0.069306 0.012822 0.232503
C34   C     C_3   0.330023 0.141764 0.205791 -0.912816
H23   H     H_    0.351354 0.050285 0.243445 0.270996
H24   H     H_    0.267238 0.160690 0.251281 0.267334
H25   H     H_    0.373948 0.214408 0.242031 0.267625

loop_
_geom_bond_atom_site_label_1
_geom_bond_atom_site_label_2
_ccdc_geom_bond_type
C22   O5    A    
C29   H12   S    
C16   C21   S    
C1    C8    S    
C34   H23   S    
Cu2   O2    S    
C19   C20   S    
Cu2   O8    S    
C3    C6    T    
C7    C8    A    
C21   H6    S    
C26   C27   A    
C30   H15   S    
C31   H17   S    
C17   N1    A    
C18   F2    S    
C8    C9    A    
C33   H21   S    
C9    C10   A    
C20   H4    S    
C30   C31   S    
C7    C15   S    
O10   C32   S    
C13   C14   S    
Cu1   N2    S    
C34   H24   S    
C12   O4    A    
C26   O9    S    
C4    C28   S    
C19   N2    A    
C24   H7    S    
Cu1   O7    S    
Cu1   O5    S    
C32   H19   S    
Cu2   O4    S    
C3    C25   S    
C24   C25   A    
C5    C12   S    
C12   O3    A    
C23   O7    A    
C30   H14   S    
C15   O10   S    
C2    H1    S    
C32   H20   S    
C31   H18   S    
Cu1   Cu2   S    
C27   F3    S    
C1    O1    A    
C23   O8    A    
C33   C34   S    
C17   C18   A    
C15   F1    S    
C14   H11   S    
C20   H3    S    
Cu2   O6    S    
C29   H13   S    
Cu1   O1    S    
C2    C24   A    
C34   H25   S    
C16   N1    A    
C22   O6    A    
O9    C29   S    
Cu2   N1    S    
C4    C5    T    
C33   H22   S    
C21   H5    S    
C11   C22   S    
Cu1   O3    S    
C32   C33   S    
C25   C26   A    
C18   N2    A    
C11   C13   A    
C1    O2    A    
C16   C19   A    
C6    C23   S    
C9    H8    S    
C31   H16   S    
C10   C11   A    
C14   H10   S    
C7    C13   A    
C20   C21   S    
C29   C30   S    
C27   C28   A    
C17   H2    S    
C14   C15   S    
C10   H9    S    
C2    C28   A    
