data_mof_unit_32707.cif
_audit_creation_date              2012-12-10T17:37:20-0500
_audit_creation_method            fapswitch 2.2
_symmetry_space_group_name_H-M    P1
_symmetry_Int_Tables_number       1
_space_group_crystal_system       triclinic
_cell_length_a                    12.465671
_cell_length_b                    13.193628
_cell_length_c                    15.820561
_cell_angle_alpha                 74.671407
_cell_angle_beta                  101.105537
_cell_angle_gamma                 117.383126
_cell_volume                      2220.54910999

loop_
_atom_site_label
_atom_site_type_symbol
_atom_type_description
_atom_site_fract_x
_atom_site_fract_y
_atom_site_fract_z
_atom_type_partial_charge
Br1   Br    Br    0.762035 0.860978 0.703176 -0.424649
C1    C     C_R   0.855139 0.285887 0.510985 0.757004
C2    C     C_R   0.229479 0.839369 0.460009 -0.156753
C3    C     C_R   0.803305 0.082360 0.589308 -0.201317
C4    C     C_R   0.999930 0.499288 0.659884 0.780012
C5    C     C_R   0.718190 0.967655 0.613203 0.321730
C6    C     C_R   0.599769 0.931581 0.574125 -0.177932
C7    C     C_R   0.565346 0.008973 0.506920 0.055878
C8    C     C_R   0.656521 0.121162 0.476280 0.016376
C9    C     C_R   0.444269 0.978462 0.468223 0.081652
C10   C     C_R   0.419752 0.054674 0.393230 -0.052483
C11   C     C_R   0.515461 0.159638 0.356901 0.294644
C12   C     C_3   0.002411 0.499557 0.917334 -0.002306
C13   C     C_R   0.631548 0.191077 0.398785 -0.219276
C14   C     C_R   0.346737 0.874213 0.502142 -0.224164
C15   C     C_R   0.205594 0.916442 0.386017 0.393361
C16   C     C_R   0.145040 0.714785 0.485014 0.889537
C17   C     C_R   0.772510 0.160751 0.522707 -0.115502
C18   C     C_R   0.351917 0.341247 0.653157 -0.249311
C19   C     C_R   0.744018 0.613814 0.365498 0.076329
C20   C     C_R   0.630184 0.589988 0.321122 0.376251
C21   C     C_R   0.528772 0.521250 0.368385 -0.158485
C22   C     C_R   0.539554 0.498615 0.460606 -0.052385
C23   C     C_3   0.116503 0.560804 0.032996 -0.270721
C24   C     C_R   0.652786 0.500242 0.499090 0.256691
C25   C     C_R   0.439918 0.458304 0.514329 -0.092451
C26   C     C_R   0.447375 0.390253 0.599121 0.106883
C27   C     C_R   0.550512 0.370544 0.629574 -0.217226
C28   C     C_R   0.999607 0.499918 0.340235 0.876795
C29   C     C_R   0.651757 0.425667 0.581184 -0.135018
C30   C     C_R   0.338591 0.488813 0.491577 0.514596
C31   C     C_R   0.251453 0.364645 0.626570 0.027624
C32   C     C_3   0.957494 0.389236 0.046778 -0.238519
C33   C     C_3   0.887737 0.439141 0.967908 -0.237879
C34   C     C_3   0.001783 0.500369 0.083469 -0.021164
C35   C     C_1   0.000929 0.499145 0.749823 -0.113753
C36   C     C_1   0.999508 0.500419 0.250412 -0.056519
C37   C     C_3   0.071040 0.450518 0.994817 0.409275
C38   C     C_3   0.046790 0.610673 0.954066 -0.222496
C39   C     C_3   0.933295 0.549413 0.005982 0.493530
C40   C     C_1   0.001862 0.499202 0.825594 0.076513
C41   C     C_1   0.000447 0.500605 0.174908 0.102797
C42   C     C_R   0.300421 0.022962 0.354909 -0.202536
Cu1   Cu    Cu3+1 0.098270 0.475420 0.519690 1.031709
Cu2   Cu    Cu3+1 0.901730 0.524580 0.480310 1.012620
H1    H     H_    0.793880 0.390575 0.940240 0.199038
H2    H     H_    0.922352 0.298685 0.085737 0.209838
H3    H     H_    0.442939 0.485717 0.332409 0.234696
H4    H     H_    0.723372 0.400724 0.607653 0.187202
H5    H     H_    0.081936 0.701250 0.915156 0.200047
H6    H     H_    0.210281 0.609370 0.060812 0.210810
H7    H     H_    0.280395 0.079046 0.297678 0.251588
H8    H     H_    0.282798 0.726891 0.311976 0.383586
H9    H     H_    0.731398 0.755226 0.104323 0.404885
H10   H     H_    0.727444 0.686683 0.922769 0.399606
H11   H     H_    0.264161 0.412086 0.113278 0.378156
H12   H     H_    0.359839 0.815824 0.560817 0.156974
H13   H     H_    0.992251 0.776843 0.222337 0.413973
H14   H     H_    0.387143 0.284488 0.332752 0.307719
H15   H     H_    0.892283 0.111056 0.624716 0.180311
H16   H     H_    0.538266 0.841848 0.596082 0.167611
H17   H     H_    0.704158 0.269973 0.368656 0.191005
H18   H     H_    0.178293 0.326460 0.668971 0.168032
H19   H     H_    0.554238 0.313936 0.692653 0.162497
H20   H     H_    0.355752 0.285888 0.716823 0.178685
H21   H     H_    0.822467 0.659200 0.328578 0.227739
N1    N     N_R   0.246280 0.438200 0.549540 -0.244903
N2    N     N_R   0.754330 0.561180 0.450980 -0.239242
O1    O     O_R   0.972510 0.318130 0.524770 -0.581708
O2    O     O_2   0.290449 0.533302 0.314858 -0.324850
O3    O     O_3   0.267570 0.680167 0.372466 -0.500259
O4    O     O_2   0.536650 0.544283 0.161220 -0.168786
O5    O     O_2   0.550143 0.721405 0.193187 -0.226720
O6    O     O_3   0.748933 0.720835 0.166013 -0.488119
O7    O     O_2   0.744936 0.534190 0.075119 -0.192464
O8    O     O_2   0.919443 0.726110 0.048727 -0.273508
O9    O     O_3   0.776515 0.649617 0.913594 -0.482691
O10   O     O_2   0.089829 0.280411 0.945175 -0.224348
O11   O     O_2   0.267179 0.470127 0.932264 -0.247997
O12   O     O_R   0.806530 0.359650 0.491510 -0.605219
O13   O     O_3   0.219759 0.340596 0.088496 -0.400381
O14   O     O_2   0.967044 0.852277 0.381102 -0.262656
O15   O     O_2   0.067053 0.979814 0.249132 -0.232881
O16   O     O_3   0.032913 0.764057 0.281744 -0.556930
O17   O     O_2   0.612336 0.359975 0.237357 -0.226040
O18   O     O_2   0.450804 0.189901 0.184161 -0.180154
O19   O     O_3   0.391253 0.297603 0.268632 -0.475252
O20   O     O_R   0.082970 0.479240 0.637550 -0.575898
O21   O     O_R   0.916990 0.520750 0.604290 -0.592490
O22   O     O_R   0.193470 0.640350 0.508490 -0.525383
O23   O     O_R   0.027490 0.681870 0.475230 -0.513100
O24   O     O_R   0.083010 0.479250 0.395710 -0.508772
O25   O     O_R   0.917030 0.520760 0.362450 -0.569458
O26   O     O_2   0.469971 0.685208 0.377476 -0.275680
S1    S     S_3+6 0.340905 0.596990 0.389792 0.033708
S2    S     S_3+6 0.613010 0.643880 0.207428 0.100268
S3    S     S_3+6 0.841411 0.616675 0.013874 0.051881
S4    S     S_3+6 0.164291 0.384257 0.987275 0.083628
S5    S     S_3+6 0.063729 0.880183 0.323473 0.037044
S6    S     S_3+6 0.495018 0.254397 0.258476 0.066395

loop_
_geom_bond_atom_site_label_1
_geom_bond_atom_site_label_2
_ccdc_geom_bond_type
C21   H3    S    
C1    C17   S    
O14   S5    D    
O11   S4    D    
C16   O23   A    
C37   S4    S    
Cu2   O25   S    
C12   C40   S    
C2    C14   A    
C6    C7    A    
C30   N1    A    
C25   C26   A    
C33   C39   S    
C19   H21   S    
C9    C14   A    
H10   O9    S    
C42   H7    S    
O3    S1    S    
O13   S4    S    
C13   H17   S    
C4    C35   S    
O7    S3    D    
C23   C38   S    
C22   C25   A    
C36   C41   T    
C34   C41   S    
C6    H16   S    
H9    O6    S    
C4    O20   A    
C7    C8    A    
O10   S4    D    
C23   C37   S    
O9    S3    S    
C33   H1    S    
C1    O1    A    
C18   C26   A    
Cu1   O24   S    
C3    C17   A    
C23   H6    S    
C25   C30   A    
O15   S5    D    
C20   C21   A    
C14   H12   S    
C35   C40   T    
C24   N2    A    
C18   C31   A    
C23   C34   S    
C11   S6    S    
C34   C39   S    
Br1   C5    S    
O6    S2    S    
H11   O13   S    
C3    C5    A    
C39   S3    S    
O8    S3    D    
C8    C13   A    
H13   O16   S    
C3    H15   S    
Cu2   N2    S    
C32   C33   S    
Cu1   O1    S    
C10   C42   A    
C15   C42   A    
C12   C37   S    
C31   N1    A    
C27   H19   S    
C29   H4    S    
C11   C13   A    
C32   H2    S    
H8    O3    S    
C38   C39   S    
Cu1   O22   S    
Cu1   Cu2   S    
O19   S6    S    
C24   C29   A    
Cu2   O21   S    
O16   S5    S    
C19   N2    A    
C16   O22   A    
C31   H18   S    
C10   C11   A    
C15   S5    S    
C5    C6    A    
C20   S2    S    
C18   H20   S    
C32   C37   S    
C27   C29   A    
O2    S1    D    
C12   C33   S    
O17   S6    D    
C28   O25   A    
O18   S6    D    
C30   S1    S    
C32   C34   S    
C2    C16   S    
Cu2   O12   S    
C22   C24   A    
O26   S1    D    
Cu2   O23   S    
H14   O19   S    
C12   C38   S    
C1    O12   A    
C9    C10   A    
O4    S2    D    
C8    C17   A    
C38   H5    S    
C19   C20   A    
C7    C9    A    
C28   C36   S    
C26   C27   A    
C21   C22   A    
Cu1   N1    S    
O5    S2    D    
Cu1   O20   S    
C28   O24   A    
C4    O21   A    
C2    C15   A    
