data_mof_unit_68606.cif
_audit_creation_date              2012-12-11T14:17:58-0500
_audit_creation_method            fapswitch 2.2
_symmetry_space_group_name_H-M    P1
_symmetry_Int_Tables_number       1
_space_group_crystal_system       triclinic
_cell_length_a                    11.334026
_cell_length_b                    11.321874
_cell_length_c                    19.017384
_cell_angle_alpha                 90.070675
_cell_angle_beta                  90.031889
_cell_angle_gamma                 120.050727
_cell_volume                      2112.32616667

loop_
_atom_site_label
_atom_site_type_symbol
_atom_type_description
_atom_site_fract_x
_atom_site_fract_y
_atom_site_fract_z
_atom_type_partial_charge
C1    C     C_R   0.521384 0.453356 0.146019 0.530237
C2    C     C_R   0.014300 0.416341 0.536573 0.251628
C3    C     C_R   0.401470 0.007866 0.537062 0.251441
C4    C     C_R   0.602358 0.587149 0.538185 0.235328
C5    C     C_R   0.661771 0.898593 0.549448 -0.034251
C6    C     C_R   0.099688 0.777433 0.552059 -0.031392
C7    C     C_R   0.233313 0.327409 0.550222 -0.057763
C8    C     C_R   0.905100 0.671838 0.449774 -0.058464
C9    C     C_R   0.762752 0.099478 0.450574 -0.034341
C10   C     C_R   0.321911 0.222045 0.447741 -0.031893
C11   C     C_R   0.793204 0.951196 0.526788 -0.077688
C12   C     C_R   0.546713 0.068322 0.145883 0.532852
C13   C     C_R   0.040485 0.850698 0.529262 -0.052570
C14   C     C_R   0.146995 0.199737 0.524628 -0.070943
C15   C     C_R   0.946816 0.799630 0.475223 -0.073591
C16   C     C_R   0.840946 0.046215 0.473325 -0.078041
C17   C     C_R   0.189493 0.148770 0.470557 -0.052902
C18   C     C_R   0.541888 0.426043 0.361047 0.531484
C19   C     C_R   0.551579 0.077902 0.356745 0.515938
C20   C     C_R   0.924145 0.475758 0.356518 0.525943
C21   C     C_R   0.448656 0.523800 0.643667 0.525170
C22   C     C_R   0.115417 0.573739 0.639007 0.530466
C23   C     C_R   0.931602 0.478402 0.145883 0.531739
C24   C     C_R   0.473664 0.922169 0.643305 0.513686
C25   C     C_R   0.497644 0.998958 0.923513 -0.005610
C26   C     C_R   0.001707 0.499100 0.923610 -0.004387
C27   C     C_R   0.500507 0.503209 0.923946 -0.003534
C28   C     C_R   0.975331 0.494489 0.071630 0.004496
C29   C     C_R   0.519037 0.024813 0.071543 0.002792
C30   C     C_R   0.504878 0.481219 0.071926 0.003764
C31   C     C_R   0.385193 0.985359 0.964071 0.032738
C32   C     C_R   0.015441 0.400358 0.964266 0.032355
C33   C     C_R   0.598878 0.615970 0.964869 0.032747
C34   C     C_R   0.457262 0.521018 0.852885 0.539679
C35   C     C_R   0.016603 0.408687 0.038941 0.023895
C36   C     C_R   0.392096 0.983940 0.038735 0.023931
C37   C     C_R   0.590532 0.608581 0.039538 0.023055
C38   C     C_R   0.632953 0.055972 0.029401 -0.134594
C39   C     C_R   0.944418 0.577415 0.029408 -0.134402
C40   C     C_R   0.422134 0.367294 0.029518 -0.134196
C41   C     C_R   0.960025 0.581736 0.957227 -0.146591
C42   C     C_R   0.621852 0.040664 0.957207 -0.147121
C43   C     C_R   0.417988 0.378677 0.957361 -0.146132
C44   C     C_R   0.265489 0.972097 0.933159 -0.084013
C45   C     C_R   0.063492 0.542641 0.852763 0.538766
C46   C     C_R   0.028996 0.293938 0.933458 -0.085139
C47   C     C_R   0.705245 0.736213 0.934373 -0.085923
C48   C     C_R   0.058538 0.330414 0.078458 -0.095575
C49   C     C_R   0.271780 0.942156 0.078090 -0.093904
C50   C     C_R   0.668961 0.728743 0.079389 -0.095351
C51   C     C_R   0.150016 0.936495 0.973395 -0.134593
C52   C     C_R   0.064641 0.214215 0.973829 -0.135117
C53   C     C_R   0.785539 0.851316 0.975068 -0.136028
C54   C     C_R   0.082120 0.234070 0.045946 -0.130829
C55   C     C_R   0.152103 0.918864 0.045480 -0.130995
C56   C     C_R   0.479273 0.936722 0.852705 0.541998
C57   C     C_R   0.765703 0.848727 0.047165 -0.130303
C58   C     C_R   0.487039 0.966230 0.570765 -0.065303
C59   C     C_R   0.067092 0.546227 0.566637 -0.051449
C60   C     C_R   0.476471 0.503018 0.571434 -0.054579
C61   C     C_R   0.972260 0.495927 0.428895 -0.057314
C62   C     C_R   0.521099 0.034066 0.429384 -0.065428
C63   C     C_R   0.521398 0.453060 0.433668 -0.052090
C64   C     C_R   0.587127 0.960846 0.529855 -0.073394
C65   C     C_R   0.054279 0.645063 0.528058 -0.063183
C66   C     C_R   0.371515 0.397423 0.531481 -0.059933
C67   C     C_R   0.394140 0.993062 0.463103 0.251919
C68   C     C_R   0.972882 0.601552 0.468730 -0.060650
C69   C     C_R   0.626093 0.038347 0.470242 -0.073078
C70   C     C_R   0.409331 0.354166 0.472035 -0.061193
C71   C     C_3   0.240723 0.865245 0.370581 0.020881
C72   C     C_3   0.207689 0.923936 0.304756 -0.242339
C73   C     C_3   0.057989 0.859231 0.285188 -0.448585
C74   C     C_3   0.137990 0.381188 0.371994 0.016137
C75   C     C_3   0.080401 0.297994 0.303200 -0.251249
C76   C     C_3   0.169670 0.251028 0.269466 -0.453827
C77   C     C_3   0.538768 0.713122 0.393393 0.014774
C78   C     C_R   0.013614 0.411556 0.462548 0.234778
C79   C     C_3   0.527803 0.692545 0.312652 -0.243432
C80   C     C_3   0.446211 0.746859 0.275174 -0.508443
C81   C     C_3   0.825316 0.284158 0.607397 0.014611
C82   C     C_3   0.835261 0.305711 0.688018 -0.242730
C83   C     C_3   0.699418 0.251738 0.725464 -0.509552
C84   C     C_3   0.372091 0.131958 0.630577 0.022751
C85   C     C_3   0.276271 0.070624 0.694869 -0.242294
C86   C     C_3   0.192677 0.137063 0.714042 -0.452798
C87   C     C_3   0.756682 0.612843 0.628038 0.014125
C88   C     C_3   0.776693 0.686954 0.699474 -0.255440
C89   C     C_R   0.598717 0.582822 0.464031 0.249192
C90   C     C_3   0.906166 0.722162 0.737984 -0.446048
Cr1   Cr    Cr6+3 0.768550 0.541320 0.250660 0.960219
Cr2   Cr    Cr6+3 0.458680 0.227230 0.250660 0.936715
Cr3   Cr    Cr6+3 0.772770 0.231450 0.250660 0.964335
Cr4   Cr    Cr6+3 0.541320 0.768550 0.749340 0.966258
Cr5   Cr    Cr6+3 0.227230 0.458680 0.749340 0.961729
Cr6   Cr    Cr6+3 0.231450 0.772770 0.749340 0.937787
H1    H     H_    0.733272 0.094133 0.052087 0.154850
H2    H     H_    0.076389 0.344657 0.134373 0.119737
H3    H     H_    0.267790 0.924129 0.133945 0.120477
H4    H     H_    0.654943 0.732212 0.135406 0.124671
H5    H     H_    0.058045 0.920705 0.948051 0.095170
H6    H     H_    0.080537 0.138028 0.948547 0.096037
H7    H     H_    0.862135 0.943423 0.950057 0.096604
H8    H     H_    0.112284 0.173419 0.076934 0.110337
H9    H     H_    0.061252 0.888777 0.076393 0.111166
H10   H     H_    0.826722 0.939425 0.078369 0.112336
H11   H     H_    0.621007 0.813249 0.583927 0.215597
H12   H     H_    0.906217 0.639588 0.052026 0.154791
H13   H     H_    0.176611 0.822346 0.590859 0.207833
H14   H     H_    0.189726 0.367741 0.585556 0.205683
H15   H     H_    0.821446 0.631782 0.414245 0.205335
H16   H     H_    0.807649 0.184743 0.416085 0.215230
H17   H     H_    0.353265 0.177083 0.408665 0.207545
H18   H     H_    0.856723 0.919880 0.552461 0.139006
H19   H     H_    0.066296 0.944804 0.555096 0.132746
H20   H     H_    0.048756 0.142578 0.548417 0.133903
H21   H     H_    0.906052 0.856876 0.451225 0.133149
H22   H     H_    0.935679 0.077073 0.447694 0.137208
H23   H     H_    0.360153 0.266714 0.051956 0.155726
H24   H     H_    0.121150 0.054751 0.444622 0.131508
H25   H     H_    0.152951 0.765061 0.382926 0.172718
H26   H     H_    0.322928 0.843233 0.359012 0.091937
H27   H     H_    0.242877 0.032670 0.313120 0.200994
H28   H     H_    0.263282 0.915036 0.258873 0.139711
H29   H     H_    0.026170 0.762841 0.256974 0.213656
H30   H     H_    0.043860 0.927063 0.248218 0.096302
H31   H     H_    0.994031 0.843725 0.332023 0.170774
H32   H     H_    0.232170 0.382110 0.387649 0.176168
H33   H     H_    0.170968 0.490343 0.362083 0.084125
H34   H     H_    0.942854 0.653590 0.927728 0.135886
H35   H     H_    0.979676 0.205466 0.313001 0.202578
H36   H     H_    0.069082 0.363037 0.263290 0.166931
H37   H     H_    0.265257 0.342221 0.252798 0.207116
H38   H     H_    0.118433 0.188147 0.222260 0.110058
H39   H     H_    0.186758 0.187955 0.307558 0.166577
H40   H     H_    0.561692 0.818074 0.403048 0.174800
H41   H     H_    0.437552 0.645783 0.418289 0.088444
H42   H     H_    0.631572 0.741597 0.289280 0.196273
H43   H     H_    0.470985 0.582526 0.300281 0.193400
H44   H     H_    0.338618 0.690946 0.292920 0.117473
H45   H     H_    0.710891 0.057906 0.927760 0.136908
H46   H     H_    0.446763 0.729211 0.217719 0.144065
H47   H     H_    0.492159 0.857581 0.283367 0.190259
H48   H     H_    0.744680 0.178410 0.598189 0.176291
H49   H     H_    0.789479 0.349697 0.582233 0.088324
H50   H     H_    0.890276 0.257188 0.711668 0.195317
H51   H     H_    0.888449 0.415787 0.699944 0.190205
H52   H     H_    0.647420 0.307022 0.707223 0.116888
H53   H     H_    0.717815 0.270450 0.782860 0.141858
H54   H     H_    0.634786 0.140866 0.717765 0.189527
H55   H     H_    0.385992 0.233050 0.618850 0.171713
H56   H     H_    0.346421 0.289468 0.927700 0.135756
H57   H     H_    0.475314 0.152697 0.643680 0.093638
H58   H     H_    0.201897 0.962411 0.684663 0.195873
H59   H     H_    0.337446 0.076117 0.741766 0.142593
H60   H     H_    0.257854 0.233448 0.742284 0.209296
H61   H     H_    0.109767 0.069581 0.750658 0.091837
H62   H     H_    0.145434 0.153558 0.666990 0.170927
H63   H     H_    0.852574 0.617627 0.612465 0.179549
H64   H     H_    0.682615 0.501943 0.634572 0.081357
H65   H     H_    0.774852 0.783514 0.692117 0.199315
H66   H     H_    0.694193 0.618335 0.735865 0.171360
H67   H     H_    0.259990 0.993568 0.878380 0.127395
H68   H     H_    0.908031 0.626775 0.747586 0.197883
H69   H     H_    0.908432 0.769498 0.789513 0.108352
H70   H     H_    0.993795 0.797084 0.706897 0.170213
H71   H     H_    0.007630 0.266777 0.878655 0.129700
H72   H     H_    0.732124 0.742391 0.879601 0.127441
O1    O     O_R   0.910960 0.572410 0.171010 -0.543778
O2    O     O_R   0.528530 0.639750 0.824400 -0.521818
O3    O     O_R   0.111220 0.471470 0.824400 -0.512903
O4    O     O_R   0.360250 0.888780 0.824400 -0.517733
O5    O     O_R   0.909330 0.572400 0.331540 -0.575835
O6    O     O_R   0.427600 0.336930 0.331540 -0.593026
O7    O     O_R   0.663070 0.090670 0.331540 -0.554197
O8    O     O_R   0.572400 0.909330 0.668460 -0.554857
O9    O     O_R   0.336930 0.427600 0.668460 -0.577193
O10   O     O_R   0.090670 0.663070 0.668460 -0.594547
O11   O     O_R   0.638240 0.528520 0.324410 -0.496468
O12   O     O_R   0.427590 0.338550 0.171010 -0.541892
O13   O     O_R   0.471480 0.109720 0.324410 -0.531161
O14   O     O_R   0.890280 0.361760 0.324410 -0.513948
O15   O     O_R   0.528520 0.638240 0.675590 -0.514067
O16   O     O_R   0.109720 0.471480 0.675590 -0.497183
O17   O     O_R   0.361760 0.890280 0.675590 -0.532106
O18   O     O_3   0.666667 0.333333 0.250630 -0.263723
O19   O     O_3   0.333333 0.666667 0.749370 -0.260344
O20   O     O_3   0.270037 0.953553 0.429201 -0.583769
O21   O     O_3   0.041210 0.320316 0.427316 -0.594879
O22   O     O_3   0.648483 0.700768 0.423390 -0.572029
O23   O     O_R   0.661450 0.089040 0.171010 -0.526869
O24   O     O_3   0.948114 0.298563 0.577424 -0.571862
O25   O     O_3   0.315924 0.046380 0.570738 -0.583509
O26   O     O_3   0.720653 0.677262 0.574411 -0.593431
O27   O     O_R   0.572410 0.910960 0.828990 -0.519378
O28   O     O_R   0.338550 0.427590 0.828990 -0.534936
O29   O     O_R   0.089040 0.661450 0.828990 -0.531574
O30   O     O_R   0.639750 0.528530 0.175600 -0.511361
O31   O     O_R   0.471470 0.111220 0.175600 -0.515729
O32   O     O_R   0.888780 0.360250 0.175600 -0.520134

loop_
_geom_bond_atom_site_label_1
_geom_bond_atom_site_label_2
_ccdc_geom_bond_type
C25   C31   A    
C79   H43   S    
C87   C88   S    
C26   C32   A    
Cr5   O28   S    
C47   H72   S    
C12   C29   S    
C71   H26   S    
C1    O30   A    
Cr6   O19   S    
C25   C56   S    
C71   O20   S    
C22   O10   A    
C19   O13   A    
C82   H51   S    
Cr5   O19   S    
C39   C41   A    
C85   C86   S    
C27   C33   A    
C48   C54   A    
C29   C36   A    
C52   H6    S    
C3    O25   S    
C62   C67   A    
C55   H9    S    
C2    C78   A    
C77   O22   S    
C54   H8    S    
C9    C16   A    
C2    O24   S    
C38   C42   A    
Cr2   O13   S    
C85   H59   S    
C41   H34   S    
C1    O12   A    
Cr2   O18   S    
C18   C63   S    
C19   C62   S    
C45   O29   A    
C88   H65   S    
C74   O21   S    
C46   C52   A    
C87   H64   S    
Cr1   O5    S    
C11   C16   A    
C20   C61   S    
C11   H18   S    
C86   H60   S    
C67   O20   S    
C22   O16   A    
Cr2   O12   S    
C26   C45   S    
Cr1   O30   S    
Cr5   O9    S    
C7    C14   A    
C74   H32   S    
C28   C35   A    
C75   H35   S    
Cr1   O11   S    
C29   C38   A    
C89   O22   S    
C44   H67   S    
Cr2   O31   S    
C84   O25   S    
C17   H24   S    
C47   C53   A    
C83   H54   S    
Cr3   O18   S    
C80   H47   S    
C9    H16   S    
C21   O9    A    
C57   H10   S    
C60   C66   A    
C72   H28   S    
C80   H44   S    
C14   C17   A    
C4    C60   A    
C39   H12   S    
C78   O21   S    
C38   H1    S    
C35   C48   A    
C45   O3    A    
C82   H50   S    
C76   H39   S    
C52   C54   A    
C81   C82   S    
Cr3   O23   S    
C27   C34   S    
C58   C64   A    
Cr6   O29   S    
C84   H57   S    
C74   C75   S    
Cr1   O1    S    
Cr4   O27   S    
C32   C35   A    
Cr3   O32   S    
Cr4   O19   S    
C21   C60   S    
C46   H71   S    
C8    H15   S    
C22   C59   S    
C76   H38   S    
C2    C59   A    
C28   C39   A    
Cr2   O6    S    
C49   C55   A    
C23   O32   A    
Cr3   O7    S    
C33   C37   A    
C15   H21   S    
C62   C69   A    
C90   H68   S    
C24   O17   A    
C4    O26   S    
C75   C76   S    
C84   H55   S    
C81   O24   S    
C6    C65   A    
C16   H22   S    
C49   H3    S    
C56   O27   A    
Cr3   O14   S    
C14   H20   S    
C20   O5    A    
C23   O1    A    
C63   C70   A    
C61   C78   A    
C65   C68   A    
C40   C43   A    
C42   H45   S    
C77   C79   S    
C30   C40   A    
C23   C28   S    
C84   C85   S    
C86   H62   S    
C13   H19   S    
C10   H17   S    
C18   O6    A    
C44   C51   A    
C77   H40   S    
Cr1   O18   S    
C88   C90   S    
C18   O11   A    
C8    C68   A    
C8    C15   A    
C80   H46   S    
C13   C15   A    
C90   H69   S    
C33   C47   A    
C6    H13   S    
C31   C44   A    
Cr4   O15   S    
C24   O8    A    
C10   C70   A    
C48   H2    S    
C75   H36   S    
C20   O14   A    
C4    C89   A    
C5    H11   S    
C34   O28   A    
C21   O15   A    
C12   O23   A    
C88   H66   S    
C53   C57   A    
C50   C57   A    
C32   C46   A    
Cr6   O17   S    
C71   H25   S    
C83   H52   S    
C3    C67   A    
C90   H70   S    
C87   O26   S    
C77   H41   S    
C72   C73   S    
C34   O2    A    
C25   C42   A    
C76   H37   S    
C5    C11   A    
C85   H58   S    
C51   H5    S    
C64   C69   A    
C81   H49   S    
C7    H14   S    
C5    C64   A    
Cr6   O10   S    
C9    C69   A    
Cr5   O16   S    
C71   C72   S    
C72   H27   S    
C73   H31   S    
C59   C65   A    
C6    C13   A    
C37   C50   A    
C61   C68   A    
C66   C70   A    
C53   H7    S    
C73   H29   S    
C56   O4    A    
C1    C30   S    
C12   O31   A    
C87   H63   S    
C51   C55   A    
C63   C89   A    
C81   H48   S    
C86   H61   S    
C19   O7    A    
C50   H4    S    
C36   C49   A    
C79   C80   S    
C3    C58   A    
C27   C43   A    
C79   H42   S    
C30   C37   A    
C24   C58   S    
C40   H23   S    
Cr6   O4    S    
C74   H33   S    
C31   C36   A    
C10   C17   A    
C82   C83   S    
Cr5   O3    S    
Cr4   O2    S    
C43   H56   S    
C73   H30   S    
C26   C41   A    
Cr4   O8    S    
C83   H53   S    
C7    C66   A    
