data_mof_unit_47103.cif
_audit_creation_date              2013-03-05T16:02:30-0500
_audit_creation_method            fapswitch 2.2
_symmetry_space_group_name_H-M    P1
_symmetry_Int_Tables_number       1
_space_group_crystal_system       triclinic
_cell_length_a                    16.733072
_cell_length_b                    7.264339
_cell_length_c                    15.150899
_cell_angle_alpha                 90.055307
_cell_angle_beta                  94.175141
_cell_angle_gamma                 89.339588
_cell_volume                      1836.6535885

loop_
_atom_site_label
_atom_site_type_symbol
_atom_site_description
_atom_site_fract_x
_atom_site_fract_y
_atom_site_fract_z
_atom_type_partial_charge
O1    O     O_R   0.663460 0.361760 0.165970 -0.574755
O2    O     O_R   0.336540 0.638240 0.834030 -0.583946
O3    O     O_R   0.836540 0.861760 0.334030 -0.575705
O4    O     O_R   0.163460 0.138240 0.665970 -0.570555
O5    O     O_R   0.827100 0.689870 0.163730 -0.551895
O6    O     O_R   0.172900 0.310130 0.836270 -0.542718
O7    O     O_R   0.672900 0.189870 0.336270 -0.554751
O8    O     O_R   0.327100 0.810130 0.663730 -0.579483
C1    C     C_R   0.852881 0.522223 0.143213 0.958474
C2    C     C_R   0.146877 0.477635 0.856505 0.959343
C3    C     C_R   0.646662 0.023635 0.356339 0.960437
C4    C     C_R   0.352769 0.976416 0.642984 0.977158
O9    O     O_R   0.663490 0.691370 0.155500 -0.580877
O10   O     O_R   0.336510 0.308630 0.844500 -0.563079
O11   O     O_R   0.836510 0.191370 0.344500 -0.585628
O12   O     O_R   0.163490 0.808630 0.655500 -0.589303
O13   O     O_R   0.671770 0.863320 0.325740 -0.544526
O14   O     O_R   0.328230 0.136680 0.674260 -0.529003
O15   O     O_R   0.828230 0.363320 0.174260 -0.546505
O16   O     O_R   0.171770 0.636680 0.825740 -0.558391
C5    C     C_R   0.637160 0.524261 0.132134 0.937924
C6    C     C_R   0.363186 0.477038 0.867629 0.941941
C7    C     C_R   0.863985 0.022592 0.366457 0.944585
C8    C     C_R   0.137314 0.977111 0.632142 0.940264
O17   O     O_3   0.752910 0.528800 0.305860 -0.273641
O18   O     O_3   0.247090 0.471200 0.694140 -0.275546
O19   O     O_3   0.747090 0.028800 0.194140 -0.272534
O20   O     O_3   0.252910 0.971200 0.805860 -0.266576
V1    V     V_3+5 0.749460 0.803010 0.239640 1.291365
V2    V     V_3+5 0.250540 0.196990 0.760360 1.312929
V3    V     V_3+5 0.750540 0.303010 0.260360 1.285789
V4    V     V_3+5 0.249460 0.696990 0.739640 1.275669
C9    C     C_1   0.468397 0.993967 0.529551 0.161083
C10   C     C_1   0.531036 0.006224 0.469791 0.179584
C11   C     C_1   0.031187 0.495447 0.969897 0.184197
C12   C     C_1   0.968462 0.504236 0.029697 0.182317
C13   C     C_R   0.033359 0.017079 0.315592 0.180733
C14   C     C_R   0.969590 0.978524 0.682465 0.178329
C15   C     C_R   0.469570 0.506229 0.184062 0.185567
C16   C     C_R   0.532882 0.433729 0.821472 0.178107
C17   C     C_R   0.113047 0.031245 0.292380 0.263055
C18   C     C_R   0.891218 0.942074 0.705443 0.253970
C19   C     C_R   0.391102 0.478575 0.208374 0.259956
C20   C     C_R   0.611912 0.443066 0.796181 0.275593
C21   C     C_R   0.175668 0.995738 0.356295 -0.179206
C22   C     C_R   0.828397 0.947260 0.639439 -0.146770
C23   C     C_R   0.326980 0.502344 0.144786 -0.175064
C24   C     C_R   0.672425 0.509564 0.855617 -0.168338
C25   C     C_R   0.158179 0.944554 0.441759 -0.148336
C26   C     C_R   0.842761 0.014368 0.555778 -0.155582
C27   C     C_R   0.342250 0.541823 0.057017 -0.135078
C28   C     C_R   0.654352 0.566811 0.940282 -0.146598
C29   C     C_R   0.080627 0.979774 0.471918 0.063827
C30   C     C_R   0.921363 0.004984 0.525905 0.061003
C31   C     C_R   0.420237 0.512553 0.027398 0.060789
C32   C     C_R   0.578473 0.526561 0.972486 0.062364
C33   C     C_R   0.015143 0.005826 0.406624 -0.078108
C34   C     C_R   0.987201 0.988279 0.591242 -0.074119
C35   C     C_R   0.486492 0.510630 0.092686 -0.071037
C36   C     C_R   0.513941 0.480999 0.909412 -0.065673
C37   C     C_R   0.067367 0.983198 0.564269 -0.205243
C38   C     C_R   0.934668 0.013823 0.433714 -0.204400
C39   C     C_R   0.433341 0.487668 0.935702 -0.199141
C40   C     C_R   0.566334 0.523399 0.065063 -0.199693
C41   C     C_1   0.415394 0.984465 0.580647 -0.157932
C42   C     C_1   0.583997 0.015673 0.418640 -0.138070
C43   C     C_1   0.084226 0.487736 0.918745 -0.137941
C44   C     C_1   0.915438 0.511984 0.080869 -0.134651
C45   C     C_1   0.210171 0.803488 0.482590 0.121377
N1    N     N_1   0.251257 0.685960 0.511606 0.009686
C46   C     C_1   0.786388 0.153361 0.521463 0.132611
N2    N     N_1   0.742054 0.269485 0.497851 -0.002450
C47   C     C_1   0.286399 0.667727 0.010723 0.110389
N3    N     N_1   0.242059 0.774203 0.977406 0.008464
C48   C     C_1   0.705866 0.705979 0.981353 0.122731
N4    N     N_1   0.746843 0.821171 0.010891 0.010051
N5    N     N_R   0.129260 0.057219 0.201010 0.252236
O21   O     O_R   0.179396 0.949169 0.163666 -0.411010
O22   O     O_R   0.090014 0.181364 0.153031 -0.364677
N6    N     N_R   0.874559 0.925109 0.797147 0.247309
O23   O     O_R   0.814077 0.012955 0.827428 -0.385579
O24   O     O_R   0.922081 0.830024 0.851970 -0.365197
N7    N     N_R   0.377002 0.453919 0.300252 0.251158
O25   O     O_R   0.326680 0.560076 0.338351 -0.416699
O26   O     O_R   0.417550 0.330482 0.347397 -0.365657
N8    N     N_R   0.629836 0.389598 0.708168 0.247119
O27   O     O_R   0.690318 0.280906 0.696181 -0.412688
O28   O     O_R   0.589618 0.460589 0.639506 -0.345820
C49   C     C_1   0.747637 0.900015 0.658943 0.290643
N9    N     N_1   0.683144 0.861679 0.674298 -0.027526
C50   C     C_1   0.257982 0.993279 0.332063 0.292942
N10   N     N_1   0.323597 0.990451 0.312626 -0.004374
C51   C     C_1   0.753796 0.519341 0.829136 0.284590
N11   N     N_1   0.818688 0.523922 0.807698 -0.018830
C52   C     C_1   0.245466 0.506827 0.171436 0.297781
N12   N     N_1   0.180533 0.512168 0.192948 -0.010745
N13   N     N_R   0.974751 0.979449 0.245012 0.240302
O29   O     O_R   0.940336 0.115243 0.200985 -0.348803
O30   O     O_R   0.976896 0.818689 0.207605 -0.393796
N14   N     N_R   0.025092 0.042365 0.751505 0.244163
O31   O     O_R   0.066468 0.925191 0.801479 -0.339562
O32   O     O_R   0.017262 0.210699 0.778899 -0.400782
N15   N     N_R   0.525456 0.574227 0.251670 0.236615
O33   O     O_R   0.562118 0.461287 0.307818 -0.335023
O34   O     O_R   0.521291 0.747807 0.271749 -0.406888
N16   N     N_R   0.476653 0.341904 0.762103 0.237649
O35   O     O_R   0.438713 0.433292 0.697820 -0.345246
O36   O     O_R   0.479766 0.163139 0.758803 -0.412419

loop_
_geom_bond_atom_site_label_1
_geom_bond_atom_site_label_2
_geom_bond_distance
_ccdc_geom_bond_type
O17   V3    1.778325 S    
O1    C5    1.343994 A    
C8    C37   1.500985 S    
C16   C36   1.432366 A    
C31   C35   1.431005 A    
O19   V1    1.778709 S    
O13   V1    1.953542 S    
C47   N3    1.156096 T    
O3    C7    1.340037 A    
C52   N12   1.157086 T    
C48   N4    1.156923 T    
C28   C48   1.446739 S    
O15   V3    1.960814 S    
C10   C42   1.221552 T    
C13   N13   1.425805 S    
N13   O29   1.296890 A    
C9    C41   1.221535 T    
C33   C38   1.436582 A    
C22   C49   1.449255 S    
C2    C43   1.461410 S    
O7    C3    1.332609 A    
C35   C40   1.432830 A    
C51   N11   1.156673 T    
C36   C39   1.434101 A    
O9    V1    2.027335 S    
C14   C18   1.409179 A    
C30   C34   1.430622 A    
C18   N6    1.442501 S    
O4    C8    1.342440 A    
N8    O28   1.300825 A    
N16   O35   1.301481 A    
O1    V3    2.008460 S    
C19   N7    1.440418 S    
O2    V4    2.008460 S    
C18   C22   1.397330 A    
O3    V1    2.015000 S    
C5    C40   1.503996 S    
C6    C39   1.507775 S    
C14   C34   1.435995 A    
C29   C37   1.432702 A    
C1    O15   1.328218 A    
C7    C38   1.504729 S    
C11   C12   1.436449 S    
C2    O16   1.328916 A    
C31   C39   1.433099 A    
O2    C6    1.336155 A    
C32   C40   1.432061 A    
O14   V2    1.953542 S    
C11   C43   1.220795 T    
C16   C20   1.405749 A    
C3    C42   1.462682 S    
C34   C37   1.430539 A    
O11   C7    1.338199 A    
O12   C8    1.334520 A    
C25   C45   1.446366 S    
O10   V2    2.027335 S    
C20   N8    1.439972 S    
N13   O30   1.298848 A    
O5    V1    1.969054 S    
N5    O22   1.300418 A    
O7    V3    1.982437 S    
C24   C51   1.449739 S    
O8    V4    1.982434 S    
C14   N14   1.428037 S    
C50   N10   1.157213 T    
C29   C33   1.432783 A    
O18   V4    1.778324 S    
C15   C19   1.405935 A    
C30   C38   1.431940 A    
N5    O21   1.301196 A    
C32   C36   1.430436 A    
C26   C46   1.444732 S    
O5    C1    1.331382 A    
N7    O25   1.300718 A    
C21   C25   1.399699 A    
O8    C4    1.332220 A    
C15   C35   1.433596 A    
N14   O32   1.299231 A    
C9    C10   1.437643 S    
O9    C5    1.334868 A    
N15   O34   1.299119 A    
C26   C30   1.422652 A    
O11   V3    2.015017 S    
N6    O24   1.300629 A    
O6    V2    1.969054 S    
C16   N16   1.424559 S    
O16   V4    1.960813 S    
C3    O13   1.328056 A    
C23   C52   1.450409 S    
N7    O26   1.300491 A    
N8    O27   1.299520 A    
C27   C47   1.444974 S    
N6    O23   1.301581 A    
O6    C2    1.330691 A    
C23   C27   1.402773 A    
C12   C44   1.220815 T    
C15   N15   1.427561 S    
O12   V4    2.015016 S    
C4    C41   1.462593 S    
C22   C26   1.396540 A    
O10   C6    1.344494 A    
O20   V2    1.778709 S    
C1    C44   1.461332 S    
C46   N2    1.156465 T    
C17   N5    1.442904 S    
N16   O36   1.300106 A    
C25   C29   1.427122 A    
N14   O31   1.299409 A    
C27   C31   1.424138 A    
C13   C17   1.408475 A    
C45   N1    1.156732 T    
C21   C50   1.450974 S    
O4    V2    2.014999 S    
C28   C32   1.426438 A    
C24   C28   1.400852 A    
C4    O14   1.328447 A    
N15   O33   1.298804 A    
C17   C21   1.395973 A    
C49   N9    1.157536 T    
C19   C23   1.398120 A    
C13   C33   1.436594 A    
C20   C24   1.395434 A    
