data_mof_unit_60070.cif
_audit_creation_date              2012-12-10T17:57:46-0500
_audit_creation_method            fapswitch 2.2
_symmetry_space_group_name_H-M    P1
_symmetry_Int_Tables_number       1
_space_group_crystal_system       triclinic
_cell_length_a                    18.728484
_cell_length_b                    18.843701
_cell_length_c                    18.837635
_cell_angle_alpha                 109.540623
_cell_angle_beta                  109.548665
_cell_angle_gamma                 109.328991
_cell_volume                      5117.37246389

loop_
_atom_site_label
_atom_site_type_symbol
_atom_type_description
_atom_site_fract_x
_atom_site_fract_y
_atom_site_fract_z
_atom_type_partial_charge
C1    C     C_R   0.381269 0.381457 0.499956 0.821267
C2    C     C_3   0.808898 0.501133 0.810813 0.091128
C3    C     C_3   0.826481 0.595977 0.838685 -0.137044
C4    C     C_3   0.715852 0.442055 0.791908 -0.358446
C5    C     C_R   0.317776 0.242787 0.497605 0.163566
C6    C     C_R   0.314123 0.315641 0.499524 -0.072010
C7    C     C_R   0.242502 0.323490 0.501846 -0.198482
C8    C     C_R   0.177044 0.257941 0.500540 -0.172200
C9    C     C_R   0.184840 0.186111 0.501134 -0.092959
C10   C     C_R   0.257400 0.182260 0.500950 0.069656
C11   C     C_3   0.299423 0.127345 0.495769 -0.247725
C12   C     C_R   0.621035 0.501760 0.619507 0.753887
C13   C     C_3   0.369133 0.197203 0.493092 -0.501011
C14   C     C_R   0.252964 0.427706 0.233368 0.038560
C15   C     C_R   0.315468 0.501736 0.313817 -0.074428
C16   C     C_R   0.312582 0.579093 0.328275 -0.180267
C17   C     C_R   0.247944 0.579354 0.262929 -0.201249
C18   C     C_R   0.184004 0.501763 0.183580 -0.051445
C19   C     C_R   0.189389 0.427490 0.171762 0.074307
C20   C     C_3   0.145458 0.332307 0.109824 -0.298813
C21   C     C_3   0.218395 0.332391 0.180769 -0.291779
C22   C     C_R   0.767003 0.693419 0.525013 0.105289
C23   C     C_R   0.618718 0.618429 0.499967 0.785327
C24   C     C_R   0.683705 0.683461 0.497523 -0.032506
C25   C     C_R   0.661803 0.732108 0.460943 -0.204234
C26   C     C_R   0.725930 0.796005 0.460087 -0.141240
C27   C     C_R   0.812914 0.813206 0.498038 -0.086761
C28   C     C_R   0.831269 0.759121 0.527889 0.030449
C29   C     C_3   0.899716 0.778858 0.612817 -0.167221
C30   C     C_3   0.828690 0.705077 0.608259 -0.567134
C31   C     C_R   0.997804 0.381369 0.878898 0.846959
C32   C     C_R   0.877686 0.500246 0.878359 0.753883
C33   C     C_R   0.996508 0.619011 0.115354 0.790324
C34   C     C_R   0.380754 0.500072 0.380531 0.780008
C35   C     C_R   0.116688 0.500302 0.116555 0.826553
C36   C     C_R   0.999226 0.118140 0.617912 0.810185
C37   C     C_R   0.118707 0.118454 0.499947 0.760578
C38   C     C_R   0.000509 0.881274 0.381945 0.777315
C39   C     C_R   0.880847 0.881806 0.500559 0.804191
C40   C     C_R   0.957770 0.229202 0.789131 0.104273
C41   C     C_R   0.998482 0.315841 0.811883 -0.120614
C42   C     C_R   0.042223 0.338350 0.767840 -0.154232
C43   C     C_R   0.044261 0.274455 0.703459 -0.045605
C44   C     C_R   0.001742 0.186892 0.683636 -0.156126
C45   C     C_3   0.743376 0.469075 0.654613 -0.389056
C46   C     C_R   0.959876 0.168003 0.728453 0.129761
C47   C     C_3   0.910046 0.096682 0.740123 -0.216464
C48   C     C_3   0.907012 0.166772 0.809123 -0.510305
C49   C     C_R   0.996127 0.678342 0.253975 0.101691
C50   C     C_R   0.999753 0.686937 0.184269 -0.077298
C51   C     C_R   0.015890 0.766400 0.186650 -0.180313
C52   C     C_R   0.016197 0.830605 0.251608 -0.194546
C53   C     C_R   0.003600 0.816961 0.316317 -0.066965
C54   C     C_R   0.999417 0.742966 0.319738 0.137455
C55   C     C_3   0.934045 0.678797 0.327187 -0.493053
C56   C     C_3   0.811265 0.465281 0.725108 -0.431087
C57   C     C_3   0.930193 0.607780 0.254648 -0.428841
C58   C     C_3   0.753309 0.595377 0.768357 -0.340828
C59   C     C_3   0.644617 0.438904 0.717344 -0.182706
C60   C     C_3   0.688751 0.501627 0.688896 0.041633
Cu1   Cu    Cu3+1 0.500370 0.438220 0.438550 0.990267
Cu2   Cu    Cu3+1 0.499630 0.561780 0.561450 0.995992
Cu3   Cu    Cu3+1 0.935500 0.438280 0.997350 0.960459
Cu4   Cu    Cu3+1 0.059110 0.561800 0.997270 0.983200
Cu5   Cu    Cu3+1 0.062130 0.000020 0.562160 1.033993
Cu6   Cu    Cu3+1 0.937870 0.000080 0.437940 1.000623
H1    H     H_    0.777346 0.513241 0.635208 0.170773
H2    H     H_    0.711754 0.464874 0.852210 0.225061
H3    H     H_    0.718090 0.622562 0.795459 0.239556
H4    H     H_    0.236159 0.378801 0.502641 0.163744
H5    H     H_    0.121199 0.263765 0.499626 0.164834
H6    H     H_    0.258174 0.063693 0.434117 0.141674
H7    H     H_    0.435532 0.235209 0.551387 0.235164
H8    H     H_    0.367596 0.173548 0.429773 0.195366
H9    H     H_    0.360300 0.639084 0.389332 0.160575
H10   H     H_    0.700219 0.403084 0.595935 0.192567
H11   H     H_    0.246900 0.639281 0.274937 0.149270
H12   H     H_    0.079571 0.296421 0.100612 0.136101
H13   H     H_    0.192799 0.296220 0.210787 0.147496
H14   H     H_    0.595921 0.721838 0.434777 0.144833
H15   H     H_    0.708249 0.834234 0.433288 0.186919
H16   H     H_    0.951095 0.764792 0.606345 0.150004
H17   H     H_    0.838600 0.648196 0.597404 0.186614
H18   H     H_    0.797098 0.396942 0.702070 0.171538
H19   H     H_    0.811410 0.725054 0.659881 0.212435
H20   H     H_    0.074880 0.405367 0.783604 0.204718
H21   H     H_    0.950095 0.070415 0.767745 0.175267
H22   H     H_    0.840958 0.159341 0.791047 0.200582
H23   H     H_    0.945375 0.180754 0.876412 0.219160
H24   H     H_    0.024248 0.777248 0.136335 0.150427
H25   H     H_    0.024610 0.889857 0.250472 0.151420
H26   H     H_    0.963162 0.681636 0.390773 0.205520
H27   H     H_    0.877418 0.503622 0.735877 0.185035
H28   H     H_    0.871990 0.680670 0.308243 0.203124
H29   H     H_    0.956902 0.569565 0.276409 0.198515
H30   H     H_    0.865921 0.568549 0.193435 0.220205
H31   H     H_    0.783404 0.639018 0.746442 0.125981
H32   H     H_    0.888628 0.632950 0.841398 0.115919
H33   H     H_    0.607405 0.371780 0.660514 0.124943
H34   H     H_    0.703920 0.374688 0.772157 0.159415
O1    O     O_R   0.410140 0.357660 0.448100 -0.583027
O2    O     O_R   0.049970 0.462000 0.907620 -0.576784
O3    O     O_R   0.854460 0.447890 0.906680 -0.586860
O4    O     O_R   0.958840 0.552200 0.906620 -0.605803
O5    O     O_R   0.944630 0.538080 0.087010 -0.580285
O6    O     O_R   0.049020 0.642390 0.086940 -0.595900
O7    O     O_R   0.035760 0.447880 0.088010 -0.599052
O8    O     O_R   0.140150 0.552190 0.087940 -0.561250
O9    O     O_R   0.051980 0.090160 0.642200 -0.581985
O10   O     O_R   0.947040 0.090210 0.537310 -0.560802
O11   O     O_R   0.142640 0.090190 0.552500 -0.566556
O12   O     O_R   0.409510 0.462000 0.551890 -0.573141
O13   O     O_R   0.037710 0.090250 0.447610 -0.595891
O14   O     O_R   0.052960 0.909890 0.462790 -0.569330
O15   O     O_R   0.948020 0.909940 0.357900 -0.582294
O16   O     O_R   0.962290 0.909850 0.552490 -0.580931
O17   O     O_R   0.857360 0.909910 0.447600 -0.571572
O18   O     O_R   0.590970 0.447830 0.538770 -0.595208
O19   O     O_R   0.590340 0.552170 0.642560 -0.574832
O20   O     O_R   0.590490 0.538000 0.448110 -0.577757
O21   O     O_R   0.589860 0.642340 0.551900 -0.581607
O22   O     O_R   0.409660 0.447830 0.357440 -0.570180
O23   O     O_R   0.409030 0.552170 0.461230 -0.592562
O24   O     O_R   0.945590 0.357690 0.907690 -0.589856
C61   C     C_2   0.840725 0.644947 0.928856 0.347735
H35   H     H_    0.905786 0.696930 0.981184 0.055126
O25   O     O_2   0.780995 0.626481 0.944445 -0.493792
C62   C     C_2   0.333568 0.121332 0.576839 0.937064
O26   O     O_2   0.317163 0.050375 0.570529 -0.593544
O27   O     O_R   0.383316 0.196340 0.658862 -0.724711
H36   H     H_    0.402129 0.183501 0.708003 0.334257
C63   C     C_2   0.144661 0.310206 0.024557 0.912439
O28   O     O_2   0.165836 0.365989 0.004441 -0.578551
O29   O     O_R   0.118348 0.224584 0.968107 -0.763034
H37   H     H_    0.119605 0.216893 0.912707 0.333609
C64   C     C_2   0.282501 0.312373 0.158778 0.971186
O30   O     O_2   0.325899 0.355960 0.137333 -0.560864
O31   O     O_R   0.292672 0.243937 0.164410 -0.752957
H38   H     H_    0.337552 0.236580 0.148779 0.331870
C65   C     C_2   0.935722 0.867256 0.688312 0.908009
O32   O     O_2   0.886435 0.890852 0.703660 -0.623435
O33   O     O_R   0.026163 0.922247 0.740385 -0.749411
H39   H     H_    0.042861 0.980007 0.788447 0.334039
C66   C     C_2   0.092203 0.300047 0.659546 0.401884
H40   H     H_    0.098485 0.252558 0.614151 0.041534
O34   O     O_2   0.125702 0.374644 0.673884 -0.538217
C67   C     C_2   0.821299 0.027567 0.662166 0.425297
H41   H     H_    0.774807 0.982441 0.669771 0.102424
O35   O     O_2   0.801009 0.020673 0.590478 -0.546362
C68   C     C_2   0.578687 0.453546 0.740718 0.869125
O36   O     O_2   0.601745 0.520768 0.803938 -0.530049
O37   O     O_R   0.490757 0.388738 0.689607 -0.765526
H42   H     H_    0.452546 0.405389 0.710886 0.355777

loop_
_geom_bond_atom_site_label_1
_geom_bond_atom_site_label_2
_ccdc_geom_bond_type
C45   C60   S    
C34   O23   A    
Cu6   O13   S    
C16   H9    S    
C59   H33   S    
C41   C42   A    
C2    C4    S    
C19   C20   S    
C21   C64   S    
C62   O26   D    
C7    H4    S    
Cu3   O24   S    
C7    C8    A    
C23   O21   A    
C53   C54   A    
C40   C46   A    
C26   C27   A    
C55   H26   S    
C45   H10   S    
C14   C21   S    
C28   C29   S    
C67   O35   D    
C65   O33   S    
C31   O24   A    
C51   H24   S    
C5    C6    A    
C38   O14   A    
C37   O13   A    
C58   C60   S    
C15   C16   A    
C25   H14   S    
C49   C57   S    
C2    C32   S    
C18   C19   A    
Cu4   O2    S    
C30   H17   S    
C49   C50   A    
Cu5   O11   S    
C35   O8    A    
C54   C55   S    
C67   H41   S    
C45   C56   S    
C27   C39   S    
C8    C9    A    
Cu6   O17   S    
C17   C18   A    
C45   H1    S    
C23   C24   S    
C48   H22   S    
Cu4   O8    S    
C42   H20   S    
Cu3   O5    S    
C22   C30   S    
C18   C35   S    
C15   C34   S    
C5    C13   S    
C59   C60   S    
C34   O22   A    
C22   C28   A    
Cu1   O20   S    
C43   C66   S    
C58   H31   S    
C20   C63   S    
C55   H28   S    
C9    C37   S    
Cu2   O23   S    
C44   C46   A    
C56   H18   S    
C56   H27   S    
C47   C67   S    
Cu6   O15   S    
C51   C52   A    
C31   O2    A    
C33   O5    A    
C65   O32   D    
C66   O34   D    
C10   C11   S    
C23   O20   A    
C4    H2    S    
C11   H6    S    
C63   O28   D    
C33   C50   S    
C39   O17   A    
C57   H30   S    
Cu6   O10   S    
C1    C6    S    
Cu1   O22   S    
C47   H21   S    
Cu1   O1    S    
C43   C44   A    
C29   C30   S    
C12   O19   A    
C17   H11   S    
O27   H36   S    
C47   C48   S    
C14   C15   A    
Cu5   O14   S    
C21   H13   S    
C32   O4    A    
C50   C51   A    
C32   O3    A    
C24   C25   A    
C30   H19   S    
Cu5   O9    S    
Cu2   O19   S    
C6    C7    A    
C63   O29   S    
C12   O18   A    
Cu3   O3    S    
C40   C41   A    
C13   H7    S    
Cu5   Cu6   S    
C26   H15   S    
C48   H23   S    
C4    H34   S    
C36   O10   A    
C61   H35   S    
Cu5   O16   S    
C22   C24   A    
C36   C44   S    
C42   C43   A    
Cu3   O7    S    
C1    O1    A    
C36   O9    A    
C52   C53   A    
C64   O31   S    
C9    C10   A    
C59   C68   S    
C40   C48   S    
C29   C65   S    
C46   C47   S    
C8    H5    S    
C31   C41   S    
Cu1   O18   S    
C68   O36   D    
C14   C19   A    
Cu4   O4    S    
C33   O6    A    
C66   H40   S    
C62   O27   S    
C3    C61   S    
C58   H3    S    
Cu4   O6    S    
O29   H37   S    
C20   H12   S    
C55   C57   S    
C11   C62   S    
C25   C26   A    
C29   H16   S    
C1    O12   A    
C2    C56   S    
C38   O15   A    
C11   C13   S    
C3    H32   S    
C16   C17   A    
C38   C53   S    
C4    C59   S    
C2    C3    S    
C68   O37   S    
Cu1   Cu2   S    
C37   O11   A    
C35   O7    A    
O31   H38   S    
Cu3   Cu4   S    
C12   C60   S    
C3    C58   S    
C5    C10   A    
Cu2   O12   S    
C13   H8    S    
C20   C21   S    
C39   O16   A    
C57   H29   S    
C27   C28   A    
C61   O25   D    
O33   H39   S    
C64   O30   D    
C52   H25   S    
O37   H42   S    
Cu2   O21   S    
C49   C54   A    
