data_mof_unit_26940.cif
_audit_creation_date              2012-12-10T17:34:58-0500
_audit_creation_method            fapswitch 2.2
_symmetry_space_group_name_H-M    P1
_symmetry_Int_Tables_number       1
_space_group_crystal_system       triclinic
_cell_length_a                    11.991408
_cell_length_b                    12.835933
_cell_length_c                    15.733484
_cell_angle_alpha                 90.004869
_cell_angle_beta                  86.405633
_cell_angle_gamma                 94.036939
_cell_volume                      2410.92886134

loop_
_atom_site_label
_atom_site_type_symbol
_atom_type_description
_atom_site_fract_x
_atom_site_fract_y
_atom_site_fract_z
_atom_type_partial_charge
C1    C     C_R   0.522749 0.700387 0.499172 0.866794
C2    C     C_3   0.404473 0.560059 0.052447 -0.379254
C3    C     C_3   0.502492 0.500179 0.082446 0.236516
C4    C     C_3   0.491258 0.386409 0.049553 -0.378227
C5    C     C_3   0.487896 0.386114 0.951689 -0.332509
C6    C     C_1   0.500266 0.500089 0.173984 -0.063079
C7    C     C_1   0.503465 0.499453 0.825678 -0.012111
C8    C     C_1   0.501401 0.499744 0.750478 -0.060330
C9    C     C_R   0.461728 0.187512 0.511661 -0.182393
C10   C     C_R   0.537503 0.811764 0.498262 -0.048086
C11   C     C_R   0.630519 0.970924 0.441511 -0.152978
C12   C     C_R   0.500339 0.500094 0.661689 0.926841
C13   C     C_R   0.627342 0.863375 0.450803 -0.168719
C14   C     C_R   0.454277 0.866457 0.539949 -0.214358
C15   C     C_R   0.456663 0.973205 0.530985 0.109721
C16   C     C_R   0.544339 0.025646 0.480411 0.175668
C17   C     C_R   0.544726 0.131953 0.469767 -0.297301
C18   C     C_R   0.374186 0.135570 0.563850 0.406108
C19   C     C_R   0.372035 0.027604 0.571501 -0.264409
C20   C     C_R   0.951516 0.396627 0.424200 0.390631
C21   C     C_R   0.835788 0.408179 0.431738 -0.057259
C22   C     C_R   0.858990 0.544671 0.531717 0.047971
C23   C     C_R   0.477001 0.299421 0.504285 0.935597
C24   C     C_R   0.976539 0.537950 0.527234 -0.122040
C25   C     C_R   0.023496 0.462382 0.472521 -0.125767
C26   C     C_R   0.141016 0.455593 0.468089 0.091336
C27   C     C_R   0.164248 0.591974 0.568136 -0.050187
C28   C     C_R   0.048578 0.603910 0.575358 0.382061
C29   C     C_R   0.499712 0.499922 0.338272 0.897941
C30   C     C_3   0.407682 0.561343 0.954297 -0.471855
C31   C     C_3   0.617973 0.553585 0.946533 0.324873
C32   C     C_3   0.614544 0.554135 0.045297 -0.421188
C33   C     C_1   0.499324 0.500014 0.249366 -0.139331
C34   C     C_3   0.505895 0.499394 0.917009 0.152398
H1    H     H_    0.410343 0.641690 0.076571 0.185833
H2    H     H_    0.326416 0.526612 0.932974 0.220784
H3    H     H_    0.323068 0.521987 0.078272 0.209514
H4    H     H_    0.563285 0.343296 0.068380 0.208819
H5    H     H_    0.611497 0.172049 0.429835 0.185706
H6    H     H_    0.698724 0.010876 0.403160 0.167616
H7    H     H_    0.305944 0.985687 0.610522 0.191050
H8    H     H_    0.691840 0.820365 0.418376 0.171270
H9    H     H_    0.386140 0.825409 0.577879 0.167768
H10   H     H_    0.180922 0.399876 0.427171 0.205866
H11   H     H_    0.417569 0.643599 0.931006 0.188068
H12   H     H_    0.220715 0.641172 0.604277 0.186273
H13   H     H_    0.779337 0.358998 0.395571 0.190655
H14   H     H_    0.819058 0.600280 0.572733 0.208775
H15   H     H_    0.623919 0.636198 0.924122 0.101222
H16   H     H_    0.623446 0.636285 0.068038 0.158154
H17   H     H_    0.685616 0.513970 0.069446 0.231976
H18   H     H_    0.405111 0.350738 0.934000 0.195328
H19   H     H_    0.551920 0.336065 0.922931 0.233768
H20   H     H_    0.413416 0.344755 0.078401 0.192639
N1    N     N_R   0.207800 0.519340 0.515510 -0.143779
N2    N     N_R   0.792190 0.480660 0.484490 -0.151043
O1    O     O_R   0.421690 0.658830 0.504140 -0.633456
O2    O     O_R   0.609320 0.646410 0.494190 -0.620227
O3    O     O_R   0.406150 0.506210 0.627840 -0.592456
O4    O     O_R   0.593770 0.493790 0.617880 -0.592273
O5    O     O_R   0.390680 0.353590 0.505810 -0.555557
O6    O     O_R   0.578310 0.341170 0.495860 -0.628407
O7    O     O_R   0.406230 0.506210 0.382120 -0.614823
O8    O     O_R   0.593850 0.493790 0.372160 -0.619013
Zn1   Zn    Zn3+2 0.374720 0.508290 0.506640 1.025739
Zn2   Zn    Zn3+2 0.625280 0.491710 0.493360 0.992257
S1    S     S_3+6 0.271687 0.200983 0.625462 0.066010
O9    O     O_2   0.327984 0.286370 0.676165 -0.274661
O10   O     O_2   0.193505 0.248175 0.567706 -0.263424
O11   O     O_3   0.196847 0.117908 0.693494 -0.515528
H21   H     H_    0.138354 0.082939 0.659531 0.373966
S2    S     S_3+6 0.001624 0.299665 0.354390 0.014967
O12   O     O_2   0.081786 0.350563 0.286980 -0.306550
O13   O     O_2   0.061547 0.223233 0.404062 -0.264936
O14   O     O_3   0.894947 0.235426 0.307483 -0.572433
H22   H     H_    0.929911 0.180540 0.272898 0.395667
S3    S     S_3+6 0.998715 0.702195 0.643949 0.017961
O15   O     O_2   0.936781 0.776483 0.593674 -0.305586
O16   O     O_2   0.920405 0.652342 0.712989 -0.243015
O17   O     O_3   0.105778 0.768892 0.688511 -0.575190
H23   H     H_    0.070707 0.823724 0.723090 0.400852
S4    S     S_3+6 0.744007 0.498395 0.903143 0.040488
O18   O     O_2   0.753856 0.391376 0.939492 -0.297090
O19   O     O_2   0.744880 0.491923 0.807740 -0.253127
O20   O     O_3   0.854581 0.576832 0.929675 -0.515749
H24   H     H_    0.920745 0.545289 0.902296 0.406258

loop_
_geom_bond_atom_site_label_1
_geom_bond_atom_site_label_2
_ccdc_geom_bond_type
C2    H1    S    
C22   H14   S    
O7    Zn1   S    
C30   H11   S    
C3    C6    S    
C26   N1    A    
C29   O7    A    
C26   H10   S    
C7    C8    T    
S3    O15   D    
C15   C19   A    
C31   S4    S    
C5    H19   S    
O17   H23   S    
C27   N1    A    
C20   C25   A    
C15   C16   A    
C29   C33   S    
C18   C19   A    
C17   H5    S    
C12   O3    A    
O2    Zn2   S    
C23   O6    A    
C16   C17   A    
C5    H18   S    
O11   H21   S    
C29   O8    A    
O4    Zn2   S    
C3    C32   S    
C31   H15   S    
S2    O14   S    
C13   H8    S    
N1    Zn1   S    
S3    O16   D    
O6    Zn2   S    
S1    O9    D    
C24   C25   A    
S2    O13   D    
C10   C14   A    
C30   C34   S    
S2    O12   D    
C22   N2    A    
C25   C26   A    
O20   H24   S    
S1    O10   D    
O8    Zn2   S    
O14   H22   S    
C32   H17   S    
C1    O1    A    
C11   C16   A    
C31   C32   S    
C8    C12   S    
C5    C34   S    
C31   C34   S    
C28   S3    S    
C32   H16   S    
C27   H12   S    
C9    C17   A    
C4    H4    S    
S4    O19   D    
C7    C34   S    
C22   C24   A    
C3    C4    S    
S3    O17   S    
C4    H20   S    
C9    C23   S    
C1    C10   S    
C24   C28   A    
O1    Zn1   S    
C4    C5    S    
C10   C13   A    
C21   N2    A    
S4    O20   S    
C6    C33   T    
C30   H2    S    
C2    C30   S    
S1    O11   S    
C2    C3    S    
C18   S1    S    
C1    O2    A    
O3    Zn1   S    
C11   C13   A    
C2    H3    S    
N2    Zn2   S    
C11   H6    S    
C12   O4    A    
O5    Zn1   S    
C9    C18   A    
C23   O5    A    
C20   C21   A    
S4    O18   D    
C27   C28   A    
C14   C15   A    
C20   S2    S    
C19   H7    S    
C14   H9    S    
C21   H13   S    
