data_mof_unit_56077.cif
_audit_creation_date              2012-10-26T19:05:06-0400
_audit_creation_method            fapswitch 2.2
_symmetry_space_group_name_H-M    P1
_symmetry_Int_Tables_number       1
_space_group_crystal_system       triclinic
_cell_length_a                    15.851874
_cell_length_b                    10.789262
_cell_length_c                    9.649747
_cell_angle_alpha                 87.869133
_cell_angle_beta                  89.151108
_cell_angle_gamma                 94.48802
_cell_volume                      1643.93786652

loop_
_atom_site_label
_atom_site_type_symbol
_atom_type_description
_atom_site_fract_x
_atom_site_fract_y
_atom_site_fract_z
_atom_type_partial_charge
C1    C     C_R   0.502177 0.262927 0.503498 0.550794
C2    C     C_R   0.723770 0.084332 0.593230 -0.072554
C3    C     C_R   0.729545 0.969218 0.535056 -0.028522
C4    C     C_R   0.340309 0.495739 0.501028 0.631659
C5    C     C_R   0.655919 0.893934 0.510423 -0.054784
C6    C     C_R   0.576415 0.942871 0.519849 -0.048465
C7    C     C_R   0.573085 0.067864 0.554676 0.021819
C8    C     C_R   0.501126 0.128686 0.514174 -0.017687
C9    C     C_R   0.428589 0.060690 0.470193 -0.111124
C10   C     C_R   0.425745 0.931638 0.466617 0.196635
C11   C     C_R   0.500545 0.872129 0.491026 0.001728
C12   C     C_3   0.943457 0.446778 0.641863 -0.305356
C13   C     C_R   0.621308 0.653986 0.134628 -0.089839
C14   C     C_R   0.690528 0.714724 0.062447 0.242308
C15   C     C_R   0.694867 0.706676 0.917693 0.245343
C16   C     C_R   0.498772 0.737261 0.497320 0.565042
C17   C     C_R   0.625781 0.649191 0.849827 -0.088577
C18   C     C_R   0.561432 0.573497 0.921518 0.092465
C19   C     C_R   0.560499 0.574443 0.070045 0.089976
C20   C     C_R   0.442286 0.429797 0.080957 0.071060
C21   C     C_R   0.439605 0.430459 0.934127 0.347316
C22   C     C_R   0.659467 0.498462 0.499015 0.551324
C23   C     C_3   0.916097 0.481821 0.492284 -0.004105
C24   C     C_3   0.041064 0.439431 0.647987 0.120963
C25   C     C_3   0.045360 0.385175 0.392996 -0.176429
C26   C     C_3   0.946839 0.381041 0.393756 0.153536
C27   C     C_1   0.748734 0.491854 0.496516 0.120070
C28   C     C_3   0.081851 0.475853 0.502045 -0.077630
C29   C     C_3   0.960341 0.611973 0.452829 0.278761
C30   C     C_3   0.057476 0.608256 0.458908 -0.203948
C31   C     C_1   0.824031 0.486563 0.493708 0.069413
C32   C     C_1   0.174369 0.479625 0.503577 0.039282
C33   C     C_1   0.250254 0.486690 0.503014 0.143111
C34   C     C_R   0.644324 0.127026 0.619924 0.200010
Cu1   Cu    Cu3+1 0.499990 0.499990 0.640660 1.128005
Cu2   Cu    Cu3+1 0.500010 0.500010 0.359340 1.022936
F1    F     F_    0.937807 0.652518 0.321946 -0.526725
H1    H     H_    0.908802 0.357456 0.677989 0.175847
H2    H     H_    0.624379 0.667546 0.741001 0.197923
H3    H     H_    0.072463 0.415791 0.289240 0.196909
H4    H     H_    0.065837 0.290199 0.413588 0.187628
H5    H     H_    0.921967 0.288443 0.438223 0.134112
H6    H     H_    0.083050 0.676557 0.534425 0.141554
H7    H     H_    0.086533 0.637717 0.355929 0.227893
H8    H     H_    0.940075 0.680869 0.527139 0.158386
H9    H     H_    0.739903 0.325842 0.774901 0.332845
H10   H     H_    0.364109 0.813855 0.220840 0.353227
H11   H     H_    0.052947 0.196732 0.921022 0.405634
H12   H     H_    0.066587 0.508632 0.722512 0.167593
H13   H     H_    0.817461 0.786407 0.363157 0.387606
H14   H     H_    0.860758 0.933304 0.780666 0.375917
H15   H     H_    0.370491 0.185144 0.766085 0.373655
H16   H     H_    0.943150 0.488238 0.025240 0.392778
H17   H     H_    0.924465 0.517641 0.714657 0.160853
H18   H     H_    0.373360 0.108893 0.442829 0.177322
H19   H     H_    0.780249 0.131352 0.634707 0.136683
H20   H     H_    0.791059 0.934298 0.521803 0.169549
H21   H     H_    0.661318 0.799992 0.478380 0.160372
H22   H     H_    0.394936 0.375404 0.143835 0.168727
H23   H     H_    0.616911 0.671467 0.242126 0.201921
N1    N     N_R   0.500800 0.501210 0.147910 -0.269649
N2    N     N_R   0.500820 0.501290 0.852040 -0.229810
O1    O     O_R   0.499990 0.319640 0.618810 -0.415254
O2    O     O_2   0.678249 0.108121 0.889295 -0.183185
O3    O     O_3   0.678732 0.333380 0.791470 -0.484359
O4    O     O_2   0.300919 0.767979 0.557686 -0.255641
O5    O     O_2   0.260827 0.935234 0.400327 -0.235989
O6    O     O_3   0.339281 0.757063 0.296282 -0.484011
O7    O     O_2   0.015331 0.186337 0.647104 -0.302944
O8    O     O_2   0.158178 0.271642 0.702020 -0.183686
O9    O     O_3   0.039368 0.280745 0.887965 -0.452891
O10   O     O_2   0.850105 0.828456 0.094454 -0.100236
O11   O     O_2   0.728578 0.930628 0.181187 -0.244264
O12   O     O_R   0.500000 0.319660 0.381240 -0.505472
O13   O     O_3   0.773179 0.734795 0.315864 -0.532416
O14   O     O_2   0.860534 0.693829 0.872061 -0.237471
O15   O     O_2   0.774939 0.726947 0.668813 -0.391812
O16   O     O_3   0.805681 0.913057 0.829380 -0.438006
O17   O     O_2   0.305752 0.263344 0.983946 -0.282527
O18   O     O_2   0.282836 0.447072 0.842180 -0.213605
O19   O     O_3   0.356970 0.268560 0.730794 -0.473310
O20   O     O_2   0.920188 0.263639 0.155674 -0.225584
O21   O     O_2   0.816042 0.409080 0.215046 -0.218008
O22   O     O_3   0.963508 0.499210 0.120938 -0.404029
O23   O     O_R   0.379430 0.499990 0.618840 -0.412535
O24   O     O_R   0.379440 0.500020 0.381260 -0.493733
O25   O     O_R   0.500000 0.680340 0.618760 -0.522385
O26   O     O_R   0.500010 0.680360 0.381190 -0.510982
O27   O     O_R   0.620560 0.499980 0.618740 -0.492382
O28   O     O_R   0.620570 0.500010 0.381160 -0.502082
O29   O     O_2   0.542385 0.184551 0.832718 -0.245565
S1    S     S_3+6 0.633565 0.187655 0.787223 0.058836
S2    S     S_3+6 0.328137 0.848117 0.431907 0.037837
S3    S     S_3+6 0.065482 0.288811 0.718209 0.040602
S4    S     S_3+6 0.763681 0.807099 0.160639 0.117896
S5    S     S_3+6 0.786392 0.758370 0.817877 0.036122
S6    S     S_3+6 0.344907 0.351600 0.872256 0.094565
S7    S     S_3+6 0.908423 0.386917 0.217841 0.095222

loop_
_geom_bond_atom_site_label_1
_geom_bond_atom_site_label_2
_ccdc_geom_bond_type
O3    S1    S    
O18   S6    D    
C1    C8    S    
H10   O6    S    
Cu1   Cu2   S    
O13   S4    S    
C7    C8    A    
O9    S3    S    
Cu2   O26   S    
C25   C28   S    
C12   C23   S    
C5    H21   S    
H16   O22   S    
C1    O12   A    
C23   C29   S    
O8    S3    D    
C25   H3    S    
C5    C6    A    
C4    O24   A    
C18   C19   A    
C17   H2    S    
C23   C26   S    
C20   N1    A    
O10   S4    D    
Cu1   O25   S    
O16   S5    S    
C8    C9    A    
O21   S7    D    
C16   O25   A    
C9    H18   S    
C9    C10   A    
C2    C34   A    
C13   C14   A    
O20   S7    D    
C30   H7    S    
C1    O1    A    
C15   S5    S    
C13   C19   A    
C27   C31   T    
C28   C32   S    
H9    O3    S    
O7    S3    D    
C25   H4    S    
O29   S1    D    
C13   H23   S    
C18   N2    A    
C4    O23   A    
C10   S2    S    
Cu2   O24   S    
C25   C26   S    
C29   H8    S    
C23   C31   S    
C29   C30   S    
C24   S3    S    
C21   S6    S    
C11   C16   S    
C17   C18   A    
C22   O28   A    
C20   H22   S    
C21   N2    A    
Cu2   O12   S    
C26   S7    S    
O4    S2    D    
C3    H20   S    
C22   C27   S    
C7    C34   A    
C30   H6    S    
O11   S4    D    
H11   O9    S    
Cu2   N1    S    
Cu1   O27   S    
C14   S4    S    
C6    C11   A    
C26   H5    S    
O5    S2    D    
Cu2   O28   S    
C24   H12   S    
C15   C17   A    
C4    C33   S    
O17   S6    D    
C24   C28   S    
C3    C5    A    
C6    C7    A    
C12   C24   S    
O15   S5    D    
O6    S2    S    
O22   S7    S    
C32   C33   T    
C28   C30   S    
C2    C3    A    
H14   O16   S    
C2    H19   S    
H13   O13   S    
O14   S5    D    
Cu1   O23   S    
O19   S6    S    
C19   N1    A    
C22   O27   A    
Cu1   N2    S    
C12   H1    S    
H15   O19   S    
C34   S1    S    
C10   C11   A    
C20   C21   A    
C29   F1    S    
C16   O26   A    
O2    S1    D    
C14   C15   A    
Cu1   O1    S    
C12   H17   S    
