data_mof_unit_41722.cif
_audit_creation_date              2012-12-11T16:27:24-0500
_audit_creation_method            fapswitch 2.2
_symmetry_space_group_name_H-M    P1
_symmetry_Int_Tables_number       1
_space_group_crystal_system       triclinic
_cell_length_a                    21.715338
_cell_length_b                    6.949767
_cell_length_c                    14.696052
_cell_angle_alpha                 90.343348
_cell_angle_beta                  104.472045
_cell_angle_gamma                 89.544684
_cell_volume                      2147.41717667

loop_
_atom_site_label
_atom_site_type_symbol
_atom_type_description
_atom_site_fract_x
_atom_site_fract_y
_atom_site_fract_z
_atom_type_partial_charge
O1    O     O_R   0.835850 0.638310 0.002120 -0.532942
O2    O     O_R   0.164150 0.361690 0.997880 -0.532942
O3    O     O_R   0.664150 0.138310 0.997880 -0.533275
O4    O     O_R   0.335850 0.861690 0.002120 -0.533275
O5    O     O_R   0.717530 0.306070 0.861970 -0.543701
O6    O     O_R   0.282470 0.693930 0.138030 -0.543702
O7    O     O_R   0.782470 0.806070 0.138030 -0.541363
O8    O     O_R   0.217530 0.193930 0.861970 -0.541362
C1    C     C_R   0.705258 0.476187 0.824735 0.761380
C2    C     C_R   0.294742 0.523813 0.175265 0.761380
C3    C     C_R   0.794960 0.977392 0.175313 0.760799
C4    C     C_R   0.205040 0.022608 0.824686 0.760799
O9    O     O_R   0.838690 0.308440 0.993250 -0.530699
O10   O     O_R   0.161310 0.691560 0.006750 -0.530699
O11   O     O_R   0.661310 0.808440 0.006750 -0.529119
O12   O     O_R   0.338690 0.191560 0.993250 -0.529119
O13   O     O_R   0.786170 0.140510 0.130090 -0.534999
O14   O     O_R   0.213830 0.859490 0.869910 -0.534999
O15   O     O_R   0.713830 0.640510 0.869910 -0.533843
O16   O     O_R   0.286170 0.359490 0.130090 -0.533843
C5    C     C_R   0.865271 0.476369 0.997912 0.695663
C6    C     C_R   0.134729 0.523631 0.002088 0.695663
C7    C     C_R   0.634848 0.978274 0.002331 0.696902
C8    C     C_R   0.365152 0.021725 0.997668 0.696902
O17   O     O_3   0.732630 0.472520 0.044740 -0.368072
O18   O     O_3   0.267370 0.527480 0.955260 -0.368072
O19   O     O_3   0.767370 0.972520 0.955260 -0.369020
O20   O     O_3   0.232630 0.027480 0.044740 -0.369020
V1    V     V_3+5 0.753220 0.196740 0.991700 1.486732
V2    V     V_3+5 0.246780 0.803260 0.008300 1.486731
V3    V     V_3+5 0.746780 0.696740 0.008300 1.490170
V4    V     V_3+5 0.253220 0.303260 0.991700 1.490170
H1    H     H_    0.608345 0.041254 0.323688 0.099631
H2    H     H_    0.391655 0.958746 0.676312 0.099631
H3    H     H_    0.895208 0.366467 0.680925 0.099503
H4    H     H_    0.104792 0.633533 0.319075 0.099503
C9    C     C_R   0.536669 0.989975 0.828381 -0.069549
C10   C     C_R   0.463331 0.010025 0.171619 -0.069549
C11   C     C_R   0.962517 0.532738 0.170553 -0.072534
C12   C     C_R   0.037483 0.467262 0.829447 -0.072534
C13   C     C_R   0.490801 0.977191 0.743382 -0.091684
C14   C     C_R   0.509199 0.022808 0.256618 -0.091684
C15   C     C_R   0.007450 0.571348 0.254336 -0.090862
C16   C     C_R   0.992550 0.428652 0.745664 -0.090862
C17   C     C_R   0.426711 0.973440 0.742328 -0.107906
C18   C     C_R   0.573289 0.026560 0.257671 -0.107906
C19   C     C_R   0.070784 0.596950 0.254402 -0.102033
C20   C     C_R   0.929215 0.403050 0.745598 -0.102033
C21   C     C_R   0.407738 0.987226 0.825983 -0.114768
C22   C     C_R   0.592262 0.012774 0.174017 -0.114768
C23   C     C_R   0.090279 0.577555 0.171389 -0.118442
C24   C     C_R   0.909721 0.422445 0.828611 -0.118442
C25   C     C_R   0.453196 0.997741 0.913420 0.074703
C26   C     C_R   0.546804 0.002258 0.086580 0.074703
C27   C     C_R   0.045894 0.537351 0.085299 0.074904
C28   C     C_R   0.954106 0.462649 0.914701 0.074904
C29   C     C_R   0.519120 0.993462 0.914747 0.091200
C30   C     C_R   0.480880 0.006538 0.085253 0.091200
C31   C     C_R   0.980364 0.518544 0.084557 0.091995
C32   C     C_R   0.019636 0.481456 0.915443 0.091996
C33   C     C_R   0.433971 0.008605 0.998659 -0.158324
C34   C     C_R   0.566029 0.991395 0.001341 -0.158324
C35   C     C_R   0.065795 0.516016 0.000923 -0.159361
C36   C     C_R   0.934205 0.483984 0.999077 -0.159361
H5    H     H_    0.586005 0.991267 0.825607 0.119448
H6    H     H_    0.413995 0.008733 0.174393 0.119448
H7    H     H_    0.913640 0.516028 0.173977 0.119733
H8    H     H_    0.086360 0.483972 0.826023 0.119733
H9    H     H_    0.505159 0.967767 0.678026 0.124821
H10   H     H_    0.494841 0.032233 0.321974 0.124821
H11   H     H_    0.992747 0.585803 0.319252 0.125019
H12   H     H_    0.007253 0.414197 0.680748 0.125019
H13   H     H_    0.357267 0.985641 0.821576 0.075086
H14   H     H_    0.642733 0.014359 0.178424 0.075085
H15   H     H_    0.140265 0.596408 0.175287 0.081175
H16   H     H_    0.859735 0.403592 0.824713 0.081175
C37   C     C_R   0.174830 0.014540 0.723402 -0.122148
C38   C     C_R   0.825169 0.985460 0.276598 -0.122148
C39   C     C_R   0.325312 0.519870 0.276215 -0.118751
C40   C     C_R   0.674688 0.480130 0.723785 -0.118752
C41   C     C_R   0.185492 0.071245 0.564688 0.474765
C42   C     C_R   0.814508 0.928754 0.435312 0.474765
C43   C     C_R   0.312425 0.510589 0.436063 0.481286
C44   C     C_R   0.687575 0.489411 0.563937 0.481286
C45   C     C_R   0.212645 0.049548 0.661489 -0.299676
C46   C     C_R   0.787355 0.950452 0.338510 -0.299676
C47   C     C_R   0.286393 0.522589 0.338437 -0.305303
C48   C     C_R   0.713607 0.477411 0.661563 -0.305303
C49   C     C_R   0.108598 0.987005 0.689831 0.058639
C50   C     C_R   0.891402 0.012995 0.310169 0.058640
C51   C     C_R   0.392180 0.519699 0.309072 0.056276
C52   C     C_R   0.607820 0.480300 0.690928 0.056276
C53   C     C_R   0.079882 0.001418 0.590664 -0.026464
C54   C     C_R   0.920118 0.998582 0.409336 -0.026464
C55   C     C_R   0.420437 0.516253 0.408640 -0.022266
C56   C     C_R   0.579563 0.483747 0.591360 -0.022266
C57   C     C_R   0.118791 0.065421 0.532003 0.002940
C58   C     C_R   0.881209 0.934579 0.467997 0.002939
C59   C     C_R   0.379014 0.492103 0.469272 0.004407
C60   C     C_R   0.620986 0.507897 0.530728 0.004406
C61   C     C_R   0.013891 0.967018 0.546764 0.090324
C62   C     C_R   0.986109 0.032982 0.453236 0.090324
C63   C     C_R   0.487657 0.526042 0.451770 0.093197
C64   C     C_R   0.512343 0.473957 0.548230 0.093198
C65   C     C_R   0.024721 0.138265 0.408995 -0.180149
C66   C     C_R   0.975279 0.861735 0.591005 -0.180149
C67   C     C_R   0.469039 0.407177 0.596489 -0.186026
C68   C     C_R   0.530961 0.592823 0.403511 -0.186026
C69   C     C_R   0.090106 0.136523 0.442411 -0.159766
C70   C     C_R   0.909894 0.863477 0.557589 -0.159766
C71   C     C_R   0.404483 0.436388 0.562444 -0.167499
C72   C     C_R   0.595517 0.563612 0.437556 -0.167498
H17   H     H_    0.117751 0.202948 0.399480 0.166602
H18   H     H_    0.882249 0.797052 0.600520 0.166602
H19   H     H_    0.374354 0.402523 0.608586 0.172471
H20   H     H_    0.625646 0.597476 0.391414 0.172471
H21   H     H_    0.736897 0.930004 0.309632 0.113978
H22   H     H_    0.263103 0.069996 0.690368 0.113978
H23   H     H_    0.764481 0.473591 0.691012 0.107952
H24   H     H_    0.235519 0.526409 0.308988 0.107952
H25   H     H_    0.005048 0.226687 0.349158 0.164378
H26   H     H_    0.994952 0.773313 0.650842 0.164377
H27   H     H_    0.483845 0.326341 0.659844 0.169769
H28   H     H_    0.516155 0.673659 0.340155 0.169768
I1    I     I_    0.942610 0.024232 0.201358 -0.459300
I2    I     I_    0.057389 0.975768 0.798642 -0.459300
I3    I     I_    0.558119 0.511631 0.801051 -0.457955
I4    I     I_    0.441880 0.488369 0.198949 -0.457955
O21   O     O_3   0.220896 0.114419 0.500194 -0.550701
C73   C     C_3   0.283175 0.038149 0.525041 -0.215699
H29   H     H_    0.285325 0.890352 0.554224 0.143875
H30   H     H_    0.314423 0.135340 0.575639 0.150361
H31   H     H_    0.301573 0.030972 0.461138 0.162907
O22   O     O_3   0.779104 0.885580 0.499806 -0.550701
C74   C     C_3   0.716825 0.961850 0.474959 -0.215700
H32   H     H_    0.685577 0.864659 0.424361 0.150361
H33   H     H_    0.714674 0.109647 0.445776 0.143875
H34   H     H_    0.698427 0.969027 0.538862 0.162907
O23   O     O_3   0.276001 0.504628 0.502317 -0.551332
C75   C     C_3   0.213142 0.572759 0.468994 -0.211574
H35   H     H_    0.184019 0.463541 0.422827 0.156585
H36   H     H_    0.211096 0.713116 0.432378 0.134821
H37   H     H_    0.192279 0.595042 0.529917 0.162710
O24   O     O_3   0.723999 0.495371 0.497683 -0.551332
C76   C     C_3   0.786858 0.427240 0.531006 -0.211574
H38   H     H_    0.788904 0.286884 0.567622 0.134821
H39   H     H_    0.815981 0.536459 0.577173 0.156585
H40   H     H_    0.807721 0.404957 0.470083 0.162710

loop_
_geom_bond_atom_site_label_1
_geom_bond_atom_site_label_2
_ccdc_geom_bond_type
O17   V3    S    
C74   H34   S    
C43   C47   A    
O1    C5    A    
C8    C33   S    
C12   C32   A    
C27   C31   A    
O19   V1    S    
O13   V1    S    
O3    C7    A    
C75   H37   S    
C67   H27   S    
O15   V3    S    
C43   O23   S    
C76   H38   S    
C29   C34   A    
C38   C50   A    
C2    C39   S    
O7    C3    A    
C37   C49   A    
C31   C36   A    
C61   C62   A    
C62   C65   A    
C32   C35   A    
C58   C70   A    
O9    V1    S    
C23   H15   S    
C10   C14   A    
C22   H14   S    
C26   C30   A    
O4    C8    A    
C55   C59   A    
C54   C58   A    
O1    V3    S    
H4    C19   S    
O2    V4    S    
C14   C18   A    
O3    V1    S    
C5    C36   S    
C6    C35   S    
C10   C30   A    
C25   C33   A    
C1    O15   A    
C7    C34   S    
C10   H6    S    
C2    O16   A    
C27   C35   A    
O2    C6    A    
C28   C36   A    
C63   C68   A    
O14   V2    S    
C68   H28   S    
C74   H32   S    
C70   H18   S    
C12   C16   A    
C39   C51   A    
C69   H17   S    
C38   C46   A    
C30   C33   A    
O11   C7    A    
C59   C71   A    
O12   C8    A    
C43   C59   A    
C9    C13   A    
H1    C18   S    
C42   C58   A    
C11   H7    S    
O10   V2    S    
H3    C20   S    
C39   C47   A    
C76   H39   S    
C55   C63   A    
C50   C54   A    
O5    V1    S    
C49   I2    S    
C52   C56   A    
O17   V1    S    
O7    V3    S    
C51   I4    S    
O19   V3    S    
O8    V4    S    
C44   O24   S    
O20   V4    S    
C75   H35   S    
C53   C61   A    
C25   C29   A    
O18   V4    S    
C19   C23   A    
C26   C34   A    
C42   C46   A    
C51   C55   A    
O4    V2    S    
C68   C72   A    
C9    H5    S    
C1    C40   S    
C44   C60   A    
C42   O22   S    
C73   H30   S    
C14   H10   S    
O5    C1    A    
C3    C38   S    
C57   C69   A    
C41   O21   S    
C17   C21   A    
O8    C4    A    
C11   C31   A    
C4    C37   S    
C66   H26   S    
C65   H25   S    
H2    C17   S    
C22   C26   A    
C48   H23   S    
C40   C52   A    
O6    V2    S    
C60   C72   A    
C56   C64   A    
C21   H13   S    
C73   H31   S    
C52   I3    S    
C53   C57   A    
C72   H20   S    
C76   H40   S    
C13   H9    S    
O21   C73   S    
O16   V4    S    
C61   C66   A    
C74   H33   S    
C65   C69   A    
C3    O13   A    
C15   H11   S    
C67   C71   A    
C44   C48   A    
C75   H36   S    
O24   C76   S    
C24   H16   S    
O6    C2    A    
C11   C15   A    
O23   C75   S    
O11   V3    S    
O22   C74   S    
O12   V4    S    
C18   C22   A    
O10   C6    A    
O20   V2    S    
C73   H29   S    
C47   H24   S    
C40   C48   A    
C16   C20   A    
O9    C5    A    
C41   C57   A    
C21   C25   A    
C56   C60   A    
C50   I1    S    
C16   H12   S    
C46   H21   S    
C23   C27   A    
C49   C53   A    
C45   H22   S    
C9    C29   A    
C37   C45   A    
C28   C32   A    
C20   C24   A    
C54   C62   A    
C66   C70   A    
C12   H8    S    
C4    O14   A    
C63   C64   A    
C13   C17   A    
C71   H19   S    
C15   C19   A    
C64   C67   A    
C41   C45   A    
C24   C28   A    
O18   V2    S    
