data_mof_unit_30366.cif
_audit_creation_date              2012-12-10T17:02:13-0500
_audit_creation_method            fapswitch 2.2
_symmetry_space_group_name_H-M    P1
_symmetry_Int_Tables_number       1
_space_group_crystal_system       triclinic
_cell_length_a                    10.619965
_cell_length_b                    10.061528
_cell_length_c                    10.024678
_cell_angle_alpha                 89.310262
_cell_angle_beta                  91.794934
_cell_angle_gamma                 90.724068
_cell_volume                      1070.48395916

loop_
_atom_site_label
_atom_site_type_symbol
_atom_type_description
_atom_site_fract_x
_atom_site_fract_y
_atom_site_fract_z
_atom_type_partial_charge
C1    C     C_R   0.476893 0.260504 0.500378 0.883040
C2    C     C_R   0.060180 0.538760 0.612131 0.056429
C3    C     C_R   0.124041 0.511404 0.494813 -0.188647
C4    C     C_R   0.061518 0.451408 0.385972 -0.239872
C5    C     C_R   0.934665 0.420863 0.390983 0.407356
C6    C     C_R   0.871904 0.447572 0.509668 -0.306446
C7    C     C_2   0.464682 0.966258 0.390696 0.073048
C8    C     C_2   0.481727 0.887850 0.500517 -0.363713
C9    C     C_2   0.367240 0.069097 0.398898 0.465468
C10   C     C_2   0.378535 0.155027 0.500752 -0.193791
C11   C     C_2   0.515928 0.606074 0.924029 -0.158808
C12   C     C_R   0.259430 0.510188 0.497965 0.917346
C13   C     C_2   0.537732 0.599166 0.072226 0.035250
C14   C     C_R   0.502426 0.743902 0.499262 0.955423
C15   C     C_R   0.738498 0.478743 0.502534 0.934442
C16   C     C_R   0.113241 0.615801 0.717149 -0.103329
C17   C     C_R   0.060396 0.612238 0.842480 -0.205425
C18   C     C_R   0.958858 0.527285 0.865640 -0.118478
C19   C     C_R   0.901249 0.456392 0.760145 0.223514
C20   C     C_R   0.942255 0.479322 0.627784 0.038806
H1    H     H_    0.112212 0.425101 0.298159 0.210454
H2    H     H_    0.517273 0.702913 0.875505 0.165331
H3    H     H_    0.524549 0.411797 0.895381 0.189858
H4    H     H_    0.586666 0.682409 0.118834 0.121597
H5    H     H_    0.196349 0.677274 0.703313 0.167973
H6    H     H_    0.103284 0.668506 0.923687 0.171986
H7    H     H_    0.927290 0.514228 0.966389 0.209210
H8    H     H_    0.451458 0.923992 0.596052 0.139837
N1    N     N_2   0.501340 0.501330 0.852150 -0.196142
N2    N     N_2   0.501380 0.501360 0.147810 -0.032379
O1    O     O_R   0.499980 0.319060 0.613040 -0.606917
O2    O     O_R   0.500020 0.319100 0.386900 -0.567256
O3    O     O_R   0.316750 0.499980 0.613090 -0.613581
O4    O     O_R   0.316790 0.500020 0.386950 -0.626170
O5    O     O_R   0.499980 0.680900 0.613100 -0.617412
O6    O     O_R   0.500020 0.680940 0.386960 -0.596158
O7    O     O_R   0.683210 0.499980 0.613050 -0.611497
O8    O     O_R   0.683250 0.500020 0.386910 -0.527234
Zn1   Zn    Zn3+2 0.499970 0.499970 0.650990 0.930061
Zn2   Zn    Zn3+2 0.500030 0.500030 0.349010 1.017092
C21   C     C_3   0.277602 0.162946 0.603833 -0.734817
H9    H     H_    0.214729 0.247748 0.580962 0.250605
H10   H     H_    0.220089 0.070183 0.608254 0.272979
H11   H     H_    0.321645 0.176073 0.704777 0.229927
C22   C     C_3   0.404172 0.407597 0.101624 -0.535404
H12   H     H_    0.344403 0.378355 0.185444 0.239478
H13   H     H_    0.338805 0.450819 0.024455 0.180185
H14   H     H_    0.447564 0.314141 0.068994 0.187369
C23   C     C_3   0.814159 0.342879 0.795576 -0.761152
H15   H     H_    0.731425 0.381259 0.846378 0.248600
H16   H     H_    0.782608 0.284940 0.706862 0.220282
H17   H     H_    0.864333 0.273455 0.865217 0.256612
S1    S     S_3+6 0.861508 0.337827 0.252851 0.040320
O9    O     O_2   0.797590 0.437797 0.162207 -0.311872
O10   O     O_2   0.957412 0.266071 0.174420 -0.261558
O11   O     O_3   0.753303 0.227780 0.306488 -0.531667
H18   H     H_    0.800084 0.168449 0.369515 0.347521
C24   C     C_3   0.508917 0.929567 0.254969 -0.735870
H19   H     H_    0.512019 0.019422 0.189628 0.238515
H20   H     H_    0.605596 0.888837 0.263074 0.225109
H21   H     H_    0.443276 0.855864 0.208087 0.262304
S2    S     S_3+6 0.216536 0.020357 0.333597 0.016562
O12   O     O_2   0.120966 0.125521 0.357639 -0.281369
O13   O     O_2   0.224156 0.998473 0.186056 -0.300030
O14   O     O_3   0.172341 0.877360 0.408280 -0.587217
H22   H     H_    0.092679 0.850655 0.361374 0.384327

loop_
_geom_bond_atom_site_label_1
_geom_bond_atom_site_label_2
_ccdc_geom_bond_type
O5    Zn1   S    
C15   O8    A    
S2    O12   D    
C6    C20   A    
C21   H9    S    
C19   C23   S    
N2    C22   S    
S2    O13   D    
C19   C20   A    
O6    Zn2   S    
C23   H17   S    
N1    Zn1   S    
C24   H21   S    
S1    O10   D    
C17   C18   A    
C24   H19   S    
N2    Zn2   S    
C7    C8    D    
O7    Zn1   S    
C22   H12   S    
C10   C21   S    
O8    Zn2   S    
C4    H1    S    
C11   C13   S    
O3    Zn1   S    
C12   O3    A    
O4    Zn2   S    
C17   H6    S    
H3    N1    S    
C5    S1    S    
O1    Zn1   S    
C2    C3    A    
C24   H20   S    
C22   H13   S    
C14   O6    A    
C5    C6    A    
C8    H8    S    
C21   H11   S    
S1    O11   S    
O14   H22   S    
C18   H7    S    
C12   O4    A    
C3    C4    A    
C7    C24   S    
C13   N2    D    
C1    O1    A    
O2    Zn2   S    
C2    C16   A    
O11   H18   S    
C11   N1    D    
C21   H10   S    
C23   H15   S    
C9    C10   D    
C22   H14   S    
C16   H5    S    
C7    C9    S    
C18   C19   A    
C8    C14   S    
C3    C12   S    
C11   H2    S    
S2    O14   S    
C6    C15   S    
S1    O9    D    
C4    C5    A    
C2    C20   A    
C14   O5    A    
C1    O2    A    
C15   O7    A    
C1    C10   S    
C9    S2    S    
C13   H4    S    
C16   C17   A    
C23   H16   S    
