data_mof_unit_16153.cif
_audit_creation_date              2012-12-10T17:53:21-0500
_audit_creation_method            fapswitch 2.2
_symmetry_space_group_name_H-M    P1
_symmetry_Int_Tables_number       1
_space_group_crystal_system       triclinic
_cell_length_a                    23.452872
_cell_length_b                    10.645452
_cell_length_c                    9.946221
_cell_angle_alpha                 89.487701
_cell_angle_beta                  89.888658
_cell_angle_gamma                 92.361857
_cell_volume                      2481.02205636

loop_
_atom_site_label
_atom_site_type_symbol
_atom_type_description
_atom_site_fract_x
_atom_site_fract_y
_atom_site_fract_z
_atom_type_partial_charge
C1    C     C_R   0.503197 0.260972 0.500673 0.978987
C2    C     C_R   0.121964 0.615919 0.529165 0.566436
C3    C     C_R   0.237205 0.500037 0.378619 -0.140990
C4    C     C_R   0.389290 0.500066 0.500114 0.975358
C5    C     C_R   0.296326 0.498610 0.377814 0.590555
C6    C     C_R   0.326705 0.500785 0.500278 -0.357467
C7    C     C_R   0.296310 0.504416 0.622798 0.621458
C8    C     C_R   0.237165 0.505773 0.622059 -0.151788
C9    C     C_R   0.207789 0.503722 0.500330 0.088413
C10   C     C_R   0.761613 0.495016 0.621955 0.189609
C11   C     C_R   0.702375 0.493141 0.621423 -0.173998
C12   C     C_R   0.965035 0.289233 0.436918 -0.220916
C13   C     C_R   0.672742 0.505343 0.499820 -0.076589
C14   C     C_R   0.702972 0.520502 0.378533 -0.185627
C15   C     C_R   0.762143 0.523110 0.378978 -0.120376
C16   C     C_R   0.500947 0.739277 0.499345 0.827113
C17   C     C_R   0.791394 0.510294 0.500180 0.249716
C18   C     C_R   0.600956 0.132120 0.622974 0.590807
C19   C     C_R   0.645632 0.066086 0.677899 -0.169174
C20   C     C_R   0.644767 0.935815 0.672669 -0.167945
C21   C     C_R   0.599010 0.870660 0.613064 -0.096765
C22   C     C_R   0.552646 0.935516 0.558994 0.020237
C23   C     C_R   0.024199 0.287795 0.436870 0.691998
C24   C     C_R   0.553474 0.067571 0.562515 -0.043567
C25   C     C_R   0.507255 0.128560 0.501590 -0.089840
C26   C     C_R   0.463097 0.062364 0.436477 -0.153478
C27   C     C_R   0.462344 0.934026 0.434776 -0.135662
C28   C     C_R   0.610534 0.502402 0.499803 0.936588
C29   C     C_R   0.505851 0.871718 0.497850 -0.043921
C30   C     C_R   0.425509 0.335727 0.147042 -0.225401
C31   C     C_R   0.387893 0.252627 0.083881 0.490669
C32   C     C_R   0.386468 0.249080 0.945939 0.539389
C33   C     C_R   0.422627 0.328598 0.869546 0.568167
C34   C     C_R   0.057047 0.397504 0.468199 -0.175439
C35   C     C_R   0.462455 0.416960 0.930152 -0.173652
C36   C     C_R   0.463001 0.418361 0.074761 -0.104650
C37   C     C_R   0.535506 0.577891 0.070332 0.586523
C38   C     C_R   0.535521 0.577846 0.927481 0.578032
C39   C     C_R   0.882262 0.619511 0.526321 0.562271
C40   C     C_R   0.877967 0.401982 0.468454 0.580708
C41   C     C_R   0.937442 0.399555 0.467314 -0.108819
C42   C     C_R   0.969712 0.510341 0.497733 -0.011292
C43   C     C_R   0.941883 0.621306 0.527333 -0.037495
C44   C     C_R   0.029738 0.509933 0.498614 -0.114180
C45   C     C_R   0.062140 0.621457 0.529877 -0.075994
C46   C     C_R   0.033236 0.732754 0.559929 0.221655
C47   C     C_R   0.973825 0.731040 0.557839 -0.180548
C48   C     C_R   0.116584 0.398248 0.470285 0.598549
F1    F     F_    0.605901 0.258548 0.627928 -0.695291
F2    F     F_    0.571971 0.657856 0.136171 -0.616465
F3    F     F_    0.048793 0.178551 0.405560 -0.584284
F4    F     F_    0.352478 0.175009 0.157662 -0.575267
F5    F     F_    0.349361 0.167142 0.884249 -0.536418
F6    F     F_    0.415629 0.312549 0.737899 -0.589658
F7    F     F_    0.572061 0.657567 0.859748 -0.632478
F8    F     F_    0.323251 0.495714 0.257031 -0.608203
F9    F     F_    0.323256 0.507479 0.743466 -0.595974
H1    H     H_    0.940943 0.203367 0.412890 0.222787
H2    H     H_    0.423525 0.332174 0.253249 0.252744
H3    H     H_    0.952562 0.816673 0.581006 0.209616
H4    H     H_    0.214032 0.498779 0.284515 0.199089
H5    H     H_    0.213949 0.508606 0.716157 0.198775
H6    H     H_    0.679711 0.480962 0.715917 0.213429
H7    H     H_    0.681024 0.530566 0.283573 0.206751
H8    H     H_    0.785430 0.534597 0.285234 0.169751
H9    H     H_    0.428379 0.110440 0.389240 0.190369
H10   H     H_    0.681578 0.116601 0.723349 0.190238
H11   H     H_    0.679916 0.885104 0.713769 0.199524
H12   H     H_    0.600908 0.769535 0.607977 0.174853
H13   H     H_    0.427081 0.882849 0.386862 0.177982
I1    I     I_    0.071726 0.910977 0.611815 -0.027746
I2    I     I_    0.804268 0.471724 0.807575 -0.267820
N1    N     N_R   0.851978 0.510680 0.498307 -0.353131
N2    N     N_R   0.147166 0.505961 0.500189 -0.344652
N3    N     N_R   0.499460 0.498800 0.142780 -0.153256
N4    N     N_R   0.499440 0.498720 0.857170 -0.149474
O1    O     O_R   0.500000 0.316780 0.614690 -0.511211
O2    O     O_R   0.583850 0.500050 0.614640 -0.560560
O3    O     O_R   0.583840 0.500030 0.385310 -0.597069
O4    O     O_2   0.854589 0.725105 0.553477 -0.528756
O5    O     O_2   0.846184 0.296804 0.440730 -0.525076
O6    O     O_2   0.144154 0.292435 0.443546 -0.415816
O7    O     O_2   0.155348 0.718524 0.555866 -0.480314
O8    O     O_R   0.500000 0.316750 0.385360 -0.674070
O9    O     O_R   0.416160 0.499970 0.614690 -0.497520
O10   O     O_R   0.416150 0.499950 0.385360 -0.598089
O11   O     O_R   0.500000 0.683250 0.614640 -0.587217
O12   O     O_R   0.500000 0.683220 0.385310 -0.574268
Zn1   Zn    Zn3+2 0.500000 0.500020 0.653130 1.115035
Zn2   Zn    Zn3+2 0.500000 0.499980 0.346870 1.041475

loop_
_geom_bond_atom_site_label_1
_geom_bond_atom_site_label_2
_ccdc_geom_bond_type
C1    C25   S    
C22   C29   A    
C27   C29   A    
C1    O1    A    
C41   C42   A    
C5    F8    S    
C35   C36   A    
C31   F4    S    
C7    C8    A    
C38   N4    A    
C45   C46   A    
C1    O8    A    
C12   C23   A    
O1    Zn1   S    
C26   C27   A    
C37   C38   A    
O8    Zn2   S    
C18   C24   A    
C11   H6    S    
C5    C6    A    
C4    O10   A    
C10   C17   A    
C15   H8    S    
C40   N1    A    
C18   C19   A    
C28   O3    A    
O3    Zn2   S    
N3    Zn2   S    
C47   H3    S    
C38   F7    S    
C19   C20   A    
C8    C9    A    
C16   O11   A    
C13   C28   S    
C19   H10   S    
C28   O2    A    
C2    N2    A    
N4    Zn1   S    
C12   H1    S    
C37   N3    A    
C2    C45   A    
C13   C14   A    
C17   N1    S    
C2    O7    S    
C42   C44   A    
C3    H4    S    
O2    Zn1   S    
C35   N4    A    
C26   H9    S    
C48   N2    A    
C34   C44   A    
C24   C25   A    
C4    C6    S    
O10   Zn2   S    
O9    Zn1   S    
C39   C43   A    
C4    O9    A    
C16   C29   S    
C21   H12   S    
C12   C41   A    
C3    C9    A    
C36   N3    A    
C23   F3    S    
C31   C32   A    
C23   C34   A    
C14   H7    S    
C30   H2    S    
C46   I1    S    
C27   H13   S    
C40   C41   A    
O12   Zn2   S    
O11   Zn1   S    
C22   C24   A    
C34   C48   A    
C9    N2    S    
C32   F5    S    
C44   C45   A    
C33   F6    S    
C15   C17   A    
C46   C47   A    
C40   O5    S    
C20   H11   S    
C3    C5    A    
C6    C7    A    
C30   C36   A    
C39   O4    S    
C25   C26   A    
C32   C33   A    
C37   F2    S    
C11   C13   A    
C30   C31   A    
C33   C35   A    
C48   O6    S    
C39   N1    A    
C10   C11   A    
C20   C21   A    
C42   C43   A    
C16   O12   A    
C14   C15   A    
C21   C22   A    
C43   C47   A    
C7    F9    S    
C18   F1    S    
C8    H5    S    
C10   I2    S    
