data_mof_unit_21114.cif
_audit_creation_date              2013-03-05T15:48:55-0500
_audit_creation_method            fapswitch 2.2
_symmetry_space_group_name_H-M    P1
_symmetry_Int_Tables_number       1
_space_group_crystal_system       triclinic
_cell_length_a                    8.528899
_cell_length_b                    18.784551
_cell_length_c                    18.891886
_cell_angle_alpha                 97.713287
_cell_angle_beta                  94.377019
_cell_angle_gamma                 91.224061
_cell_volume                      2989.03483984

loop_
_atom_site_label
_atom_site_type_symbol
_atom_site_description
_atom_site_fract_x
_atom_site_fract_y
_atom_site_fract_z
_atom_type_partial_charge
P1    P     P_3+3 0.947550 0.663200 0.567530 0.484402
O1    O     O_2   0.118870 0.674530 0.547560 -0.322893
O2    O     O_3   0.870460 0.585330 0.542110 -0.362147
O3    O     O_3   0.354280 0.631750 0.418430 -0.320105
O4    O     O_2   0.277074 0.752968 0.482704 -0.354539
O5    O     O_3   0.956384 0.670666 0.661227 -0.624757
O6    O     O_3   0.289349 0.760601 0.349957 -0.547633
C1    C     C_3   0.256307 0.785397 0.229021 -0.763833
H1    H     H_    0.132841 0.764690 0.220055 0.219150
H2    H     H_    0.251906 0.842187 0.253255 0.298753
P2    P     P_3+3 0.354660 0.445020 0.336980 0.526849
P3    P     P_3+3 0.898259 0.594632 0.288698 0.542390
O7    O     O_2   0.180880 0.466650 0.327890 -0.345682
O8    O     O_3   0.939000 0.596010 0.380670 -0.392504
O9    O     O_2   0.019104 0.546266 0.250279 -0.303519
O10   O     O_3   0.360339 0.350732 0.320427 -0.579404
O11   O     O_3   0.938870 0.682060 0.270608 -0.512543
C2    C     C_3   0.916364 0.730298 0.332994 0.530894
H3    H     H_    0.010991 0.725520 0.375675 0.145915
H4    H     H_    0.802033 0.718964 0.354447 0.029719
C3    C     C_3   0.917422 0.807819 0.316760 -0.903238
H5    H     H_    0.037741 0.832159 0.325744 0.286765
H6    H     H_    0.870795 0.810616 0.260744 0.301405
C4    C     C_3   0.718759 0.342846 0.303171 0.856203
H7    H     H_    0.649978 0.380249 0.337861 0.071321
C5    C     C_3   0.625433 0.273968 0.272159 -0.853012
H8    H     H_    0.567475 0.251422 0.315005 0.219747
H9    H     H_    0.533074 0.284918 0.230641 0.279894
H10   H     H_    0.704429 0.233376 0.246965 0.247633
Ba1   Ba    Ba6+2 0.152460 0.535140 0.468980 1.648462
C6    C     C_3   0.056706 0.620471 0.686755 0.243369
H11   H     H_    0.167742 0.620105 0.660379 0.114977
H12   H     H_    0.999018 0.566172 0.676014 0.137340
C7    C     C_3   0.095148 0.642520 0.767420 -0.060373
H13   H     H_    0.211712 0.623418 0.784481 0.134077
H14   H     H_    0.099854 0.702006 0.780550 0.208903
C8    C     C_3   0.211079 0.316591 0.312675 0.416493
H15   H     H_    0.135929 0.343491 0.352451 0.120378
C9    C     C_3   0.230243 0.239318 0.328210 -1.082666
H16   H     H_    0.292581 0.207470 0.285707 0.278610
H17   H     H_    0.113318 0.212999 0.330781 0.247148
H18   H     H_    0.300529 0.238746 0.379996 0.271713
P4    P     P_3+3 0.862750 0.336790 0.432410 0.466511
O12   O     O_2   0.691430 0.325420 0.452420 -0.376226
O13   O     O_3   0.939830 0.414660 0.457830 -0.328487
O14   O     O_3   0.456020 0.368240 0.581510 -0.273454
O15   O     O_3   0.859384 0.324866 0.338338 -0.654432
P5    P     P_3+3 0.905314 0.403485 0.711804 0.630017
O16   O     O_3   0.374170 0.535780 0.585810 -0.321481
O17   O     O_3   0.871300 0.403980 0.619270 -0.345340
O18   O     O_2   0.778410 0.449311 0.748500 -0.276517
O19   O     O_3   0.873570 0.314656 0.728879 -0.411395
Ba2   Ba    Ba6+2 0.657710 0.464850 0.530960 1.674075
P6    P     P_3+3 0.385889 0.725757 0.423935 0.452938
C10   C     C_3   0.350624 0.742522 0.281753 0.312014
O20   O     O_3   0.436130 0.464210 0.414140 -0.365273
C11   C     C_3   0.521630 0.688989 0.665656 0.202257
H19   H     H_    0.623345 0.663369 0.639956 0.074387
H20   H     H_    0.432742 0.698528 0.622141 0.167693
C12   C     C_3   0.578850 0.761349 0.711873 -0.507637
P7    P     P_3+3 0.452178 0.553660 0.675555 0.508545
O21   O     O_2   0.629420 0.533310 0.672080 -0.317831
O22   O     O_3   0.451905 0.644988 0.709871 -0.590743
H21   H     H_    0.843550 0.840825 0.353146 0.205127
C13   C     C_3   0.869442 0.267043 0.663694 0.472969
H22   H     H_    0.747694 0.263275 0.639366 0.144847
H23   H     H_    0.943606 0.285449 0.623554 0.005299
C14   C     C_3   0.928928 0.192524 0.676158 -0.709519
H24   H     H_    0.046151 0.185148 0.655322 0.123701
H25   H     H_    0.943300 0.187508 0.734164 0.312558
P8    P     P_3+3 0.428785 0.273262 0.572104 0.455584
C15   C     C_3   0.421824 0.270487 0.716866 0.629334
O23   O     O_2   0.562623 0.245337 0.526358 -0.435414
O24   O     O_3   0.471176 0.233421 0.651784 -0.582688
C16   C     C_3   0.453823 0.222301 0.779013 -0.047335
C17   C     C_R   0.991873 0.955342 0.536618 0.085168
C18   C     C_R   0.059477 0.915789 0.588332 -0.069670
C19   C     C_R   0.179002 0.950901 0.638711 -0.207915
C20   C     C_R   0.270539 0.007152 0.618505 0.487792
C21   C     C_R   0.206417 0.046150 0.564584 -0.115196
C22   C     C_R   0.057794 0.023808 0.529950 0.000084
C23   C     C_R   0.280425 0.108648 0.545966 -0.034814
C24   C     C_R   0.185006 0.162772 0.521568 -0.170472
C25   C     C_R   0.032074 0.141713 0.489913 0.008941
C26   C     C_R   0.976140 0.069682 0.488450 0.021171
C27   C     C_R   0.238234 0.235884 0.524444 0.135342
C28   C     C_R   0.136156 0.285298 0.498081 -0.394066
C29   C     C_R   0.984069 0.265535 0.467837 0.209829
C30   C     C_R   0.935978 0.191626 0.458527 -0.055241
C31   C     C_R   0.851761 0.929436 0.496009 0.062196
C32   C     C_R   0.791165 0.858789 0.499051 0.063241
C33   C     C_R   0.878516 0.811855 0.539736 -0.102077
C34   C     C_R   0.005042 0.843660 0.589069 -0.074187
H26   H     H_    0.178675 0.339744 0.498217 0.215525
C35   C     C_R   0.798136 0.165112 0.416675 -0.155281
C36   C     C_R   0.749671 0.092393 0.410514 0.058915
C37   C     C_R   0.833471 0.045291 0.449906 0.062773
C38   C     C_R   0.772146 0.974703 0.452362 0.013183
C39   C     C_R   0.616795 0.066189 0.366216 -0.313272
C40   C     C_R   0.556107 0.996599 0.367360 0.532003
C41   C     C_R   0.624905 0.952146 0.415868 -0.042487
C42   C     C_R   0.639703 0.836988 0.464410 -0.110367
C43   C     C_R   0.547796 0.889966 0.434532 -0.153390
C44   C     C_R   0.585437 0.763841 0.462777 0.166512
C45   C     C_R   0.685579 0.715361 0.492590 -0.439107
C46   C     C_R   0.830339 0.736765 0.530841 0.158287
H27   H     H_    0.727874 0.200357 0.388220 0.157356
H28   H     H_    0.558280 0.100308 0.331146 0.178848
H29   H     H_    0.646634 0.659613 0.488183 0.159489
C47   C     C_R   0.605640 0.530804 0.303295 -0.446803
C48   C     C_R   0.463875 0.494336 0.277579 0.334463
C49   C     C_R   0.410113 0.491995 0.205480 -0.179459
C50   C     C_R   0.502208 0.521304 0.156852 0.011198
C51   C     C_R   0.651419 0.552030 0.182669 -0.157901
C52   C     C_R   0.700398 0.558797 0.255927 0.302360
C53   C     C_R   0.463808 0.570922 0.035965 -0.093540
C54   C     C_R   0.407173 0.559249 0.963189 -0.134427
C55   C     C_R   0.327862 0.494893 0.932059 0.000397
C56   C     C_R   0.300464 0.441965 0.976561 0.477558
C57   C     C_R   0.361907 0.451762 0.047917 -0.154289
C58   C     C_R   0.443773 0.515451 0.079245 -0.009562
C59   C     C_R   0.135659 0.453926 0.823928 -0.060858
C60   C     C_R   0.099483 0.441858 0.749544 0.169390
C61   C     C_R   0.347467 0.499600 0.732216 0.231816
C62   C     C_R   0.387512 0.508034 0.806081 -0.239113
C63   C     C_R   0.283460 0.483928 0.853068 0.054600
C64   C     C_R   0.209081 0.461420 0.703925 0.036983
H30   H     H_    0.497781 0.535522 0.826700 0.193801
H31   H     H_    0.421732 0.601748 0.930497 0.194995
H32   H     H_    0.295306 0.467851 0.187696 0.185638
H33   H     H_    0.345945 0.408183 0.079092 0.202988
H34   H     H_    0.046541 0.441578 0.858537 0.209747
H35   H     H_    0.730862 0.569717 0.146067 0.142842
H36   H     H_    0.647462 0.533258 0.359135 0.155411
C65   C     C_2   0.324060 0.664091 0.252991 0.640408
H37   H     H_    0.353199 0.644300 0.199346 -0.109635
O25   O     O_2   0.266230 0.622492 0.288067 -0.499836
Cl1   Cl    Cl    0.954462 0.605984 0.818869 -0.616307
C66   C     C_2   0.136773 0.314034 0.237317 0.640283
H38   H     H_    0.021027 0.288827 0.223301 0.065137
O26   O     O_2   0.206727 0.337428 0.190909 -0.575039
C67   C     C_2   0.521889 0.764576 0.283060 0.329307
H39   H     H_    0.563344 0.816755 0.309523 0.113147
O27   O     O_2   0.612306 0.726617 0.249251 -0.644242
C68   C     C_2   0.318983 0.782297 0.156307 0.745071
H40   H     H_    0.304036 0.733350 0.118623 -0.025271
O28   O     O_2   0.383625 0.835084 0.138764 -0.459487
C69   C     C_2   0.723408 0.748996 0.759280 0.571149
H41   H     H_    0.758263 0.694812 0.763546 0.148429
O29   O     O_2   0.797791 0.799129 0.795563 -0.549559
C70   C     C_2   0.618403 0.816376 0.663819 0.462006
H42   H     H_    0.733599 0.843001 0.669505 0.063215
O30   O     O_2   0.519575 0.833866 0.619748 -0.547048
C71   C     C_2   0.455447 0.791377 0.760375 0.839700
H43   H     H_    0.404193 0.842449 0.753870 0.062437
O31   O     O_2   0.413946 0.759529 0.808436 -0.557550
C72   C     C_2   0.824371 0.132681 0.636998 0.763713
H44   H     H_    0.758228 0.139776 0.587314 0.030982
O32   O     O_2   0.818982 0.074579 0.659018 -0.486423
C73   C     C_2   0.251788 0.289697 0.711223 0.199734
H45   H     H_    0.197617 0.304441 0.662188 0.085777
O33   O     O_2   0.175209 0.292850 0.763478 -0.583759
Cl2   Cl    Cl    0.528906 0.352610 0.738106 -0.514510
C74   C     C_2   0.341092 0.157745 0.768856 0.660801
H46   H     H_    0.263668 0.145603 0.720334 -0.012051
O34   O     O_2   0.338128 0.117301 0.814332 -0.464670
C75   C     C_2   0.440557 0.262485 0.853465 0.765607
H47   H     H_    0.344850 0.249081 0.884384 0.077240
O35   O     O_2   0.537992 0.308769 0.880511 -0.468025
Cl3   Cl    Cl    0.646394 0.187949 0.779168 -0.432595
C76   C     C_2   0.176841 0.942835 0.716316 0.672149
H48   H     H_    0.073025 0.919921 0.735533 -0.002450
O36   O     O_2   0.285389 0.964112 0.760370 -0.470625
Cl4   Cl    Cl    0.455137 0.031036 0.666006 -0.456092
C77   C     C_2   0.435440 0.100968 0.516345 0.665400
H49   H     H_    0.463335 0.132151 0.474700 0.014684
O37   O     O_2   0.527222 0.055985 0.532263 -0.591776
C78   C     C_2   0.076259 0.805039 0.645005 0.539732
H50   H     H_    0.009359 0.795308 0.689338 0.023442
O38   O     O_2   0.213156 0.788280 0.644269 -0.577907
Cl5   Cl    Cl    0.409435 0.965674 0.299278 -0.584093
C79   C     C_2   0.382610 0.896323 0.454343 0.714534
H51   H     H_    0.351844 0.878027 0.503557 0.082210
O39   O     O_2   0.281525 0.924475 0.419473 -0.575402
C80   C     C_2   0.536654 0.642420 0.065041 0.546009
H52   H     H_    0.551644 0.659704 0.121991 0.045414
O40   O     O_2   0.579430 0.683857 0.025215 -0.497040
Cl6   Cl    Cl    0.191339 0.361565 0.947174 -0.577592
Cl7   Cl    Cl    0.170664 0.438098 0.611340 -0.607040
Cl8   Cl    Cl    0.769549 0.386628 0.229779 -0.676786

loop_
_geom_bond_atom_site_label_1
_geom_bond_atom_site_label_2
_geom_bond_distance
_ccdc_geom_bond_type
C28   C29   1.398644 A    
C36   C39   1.395636 A    
C59   C63   1.410727 A    
C72   H44   1.083051 S    
C43   C79   1.488245 S    
O2    Ba2   2.845523 S    
C33   C34   1.435106 A    
Ba1   O13   2.844895 S    
C48   C49   1.398273 A    
O6    C10   1.428839 S    
C76   H48   1.084337 S    
P5    C60   1.844244 S    
C78   H50   1.081671 S    
C31   C32   1.423796 A    
C65   H37   1.080902 S    
C77   O37   1.215626 D    
C18   C19   1.426435 A    
P1    Ba1   3.432392 S    
C2    C3    1.527881 S    
C39   H28   1.084420 S    
C76   O36   1.219339 D    
C5    H8    1.105925 S    
C64   Cl7   1.749093 S    
P7    C61   1.836735 S    
P4    C29   1.871919 S    
P6    C44   1.887659 S    
C74   H46   1.083228 S    
C69   O29   1.222286 D    
C7    H13   1.103801 S    
C68   H40   1.083457 S    
C1    H2    1.105556 S    
C10   C65   1.506409 S    
C11   H20   1.110350 S    
C57   H33   1.082789 S    
C28   H26   1.077427 S    
C37   C38   1.422828 A    
C53   C54   1.408852 A    
P1    O1    1.554046 D    
Ba2   O21   2.830333 S    
P7    O22   1.750793 S    
C79   H51   1.081927 S    
C49   C50   1.411201 A    
C3    H21   1.105570 S    
C7    H14   1.110837 S    
C56   Cl6   1.758227 S    
O12   Ba2   2.863263 S    
P4    Ba2   3.433021 S    
P5    O18   1.545076 D    
C35   C36   1.405782 A    
P2    Ba1   3.421474 S    
C19   C76   1.495468 S    
C1    H1    1.107447 S    
C13   H23   1.108575 S    
P3    O11   1.754533 S    
C62   H30   1.082672 S    
C70   H42   1.084186 S    
C6    H12   1.109671 S    
C54   H31   1.083516 S    
C71   O31   1.222053 D    
O10   C8    1.401704 S    
P3    C52   1.834206 S    
C66   O26   1.220575 D    
P5    O17   1.751367 S    
O5    C6    1.395453 S    
O13   Ba2   2.973542 S    
C72   O32   1.220250 D    
C10   C67   1.507235 S    
C3    H5    1.106101 S    
C55   C56   1.412228 A    
C20   Cl4   1.769600 S    
C42   C43   1.428285 A    
O8    Ba1   2.746392 S    
C15   C16   1.587185 S    
C1    C10   1.552067 S    
C59   H34   1.080757 S    
C44   C45   1.404828 A    
C68   O28   1.220574 D    
C11   O22   1.405236 S    
C9    H18   1.109133 S    
C11   H19   1.113257 S    
C17   C18   1.402187 A    
Ba1   Ba2   4.674526 S    
O17   Ba2   2.747083 S    
O16   P7    1.759387 S    
C53   C58   1.423348 A    
P2    C48   1.840354 S    
P1    O5    1.752478 S    
C15   Cl2   1.758564 S    
O7    Ba1   2.830204 S    
C26   C37   1.404333 A    
C4    H7    1.104522 S    
C75   O35   1.221733 D    
C32   C33   1.430266 A    
P8    O23   1.542574 D    
C19   C20   1.410768 A    
C2    H3    1.110289 S    
C11   C12   1.560792 S    
Ba1   O20   2.975208 S    
C7    Cl1   1.782525 S    
O3    Ba1   2.784054 S    
C47   C48   1.397442 A    
C16   C74   1.513718 S    
P1    O2    1.588936 S    
C12   C70   1.513326 S    
C73   O33   1.220261 D    
C30   C35   1.408095 A    
O2    Ba1   2.972669 S    
P4    O12   1.554410 D    
C8    H15   1.102834 S    
P8    C27   1.871655 S    
C16   C75   1.517856 S    
P2    O10   1.759094 S    
O4    P6    1.542870 D    
C60   C64   1.394569 A    
C24   C25   1.418034 A    
P3    O9    1.546511 D    
C21   C23   1.418969 A    
C56   C57   1.395419 A    
C13   C14   1.540438 S    
C36   C37   1.403596 A    
C12   C71   1.516348 S    
C1    C68   1.506033 S    
O11   C2    1.415020 S    
C71   H43   1.080726 S    
C6    C7    1.532917 S    
C25   C26   1.421104 A    
C42   C44   1.436106 A    
C40   Cl5   1.754831 S    
P4    O13   1.588905 S    
O14   P8    1.777503 S    
C16   Cl3   1.777355 S    
C35   H27   1.072256 S    
C61   C64   1.399193 A    
C15   O24   1.426686 S    
Ba1   O16   2.793227 S    
P3    O8    1.742349 S    
C13   H22   1.099881 S    
C3    H6    1.110113 S    
C62   C63   1.411223 A    
C67   O27   1.219622 D    
C47   H36   1.082140 S    
C25   C30   1.417854 A    
C32   C42   1.428687 A    
C14   C72   1.496475 S    
C75   H47   1.083683 S    
C57   C58   1.407217 A    
C66   H38   1.084135 S    
C50   C51   1.410270 A    
C45   C46   1.404563 A    
Ba2   O20   2.792407 S    
C33   C46   1.444912 A    
C65   O25   1.210528 D    
C45   H29   1.082309 S    
O3    P6    1.768591 S    
C27   C28   1.400011 A    
C4    O15   1.396377 S    
C14   H24   1.106822 S    
C6    H11   1.102975 S    
C4    C5    1.527139 S    
C21   C22   1.409961 A    
C17   C22   1.417551 A    
P8    O24   1.785397 S    
C78   O38   1.216379 D    
C34   C78   1.462381 S    
C51   C52   1.402970 A    
C38   C41   1.413728 A    
C55   C63   1.496879 S    
C53   C80   1.485184 S    
P1    C46   1.897303 S    
C5    H9    1.110832 S    
C15   C73   1.501263 S    
C39   C40   1.399135 A    
O1    Ba1   2.862752 S    
C73   H45   1.075779 S    
C74   O34   1.222130 D    
C8    C9    1.528726 S    
C77   H49   1.079372 S    
C54   C55   1.406546 A    
P2    O7    1.548213 D    
C80   H52   1.078313 S    
O16   Ba2   2.974332 S    
O14   Ba2   2.783354 S    
C18   C34   1.425038 A    
C40   C41   1.423248 A    
C51   H35   1.082214 S    
C2    H4    1.111331 S    
C69   H41   1.078014 S    
C70   O30   1.220554 D    
P7    O21   1.571217 D    
C79   O39   1.217874 D    
C80   O40   1.221493 D    
P2    O20   1.559257 S    
C20   C21   1.416256 A    
C9    H16   1.111375 S    
P5    O19   1.760739 S    
C24   C27   1.429954 A    
C50   C58   1.500955 S    
C29   C30   1.423293 A    
C9    H17   1.110879 S    
C5    H10   1.111484 S    
C41   C43   1.426264 A    
C23   C24   1.418568 A    
C8    C66   1.507759 S    
C14   H25   1.110164 S    
C67   H39   1.078116 S    
C4    Cl8   1.780178 S    
C23   C77   1.476930 S    
C12   C69   1.508484 S    
O6    P6    1.775534 S    
C49   H32   1.080402 S    
C59   C60   1.402388 A    
P4    O15   1.759129 S    
C47   C52   1.396068 A    
C31   C38   1.411208 A    
C22   C26   1.402094 A    
O19   C13   1.419179 S    
C17   C31   1.410105 A    
C61   C62   1.398083 A    
