data_mof_unit_61322.cif
_audit_creation_date              2012-10-26T18:09:02-0400
_audit_creation_method            fapswitch 2.2
_symmetry_space_group_name_H-M    P1
_symmetry_Int_Tables_number       1
_space_group_crystal_system       triclinic
_cell_length_a                    21.757291
_cell_length_b                    21.746908
_cell_length_c                    22.142499
_cell_angle_alpha                 60.039112
_cell_angle_beta                  118.689189
_cell_angle_gamma                 90.022126
_cell_volume                      7557.25982702

loop_
_atom_site_label
_atom_site_type_symbol
_atom_type_description
_atom_site_fract_x
_atom_site_fract_y
_atom_site_fract_z
_atom_type_partial_charge
C1    C     C_R   0.620420 0.498357 0.503433 0.536147
C2    C     C_R   0.802717 0.531428 0.672995 -0.117036
C3    C     C_R   0.861169 0.543344 0.663441 -0.123190
C4    C     C_R   0.419858 0.580471 0.339685 0.540592
C5    C     C_R   0.865308 0.535761 0.606491 -0.100312
C6    C     C_R   0.810504 0.515917 0.557732 0.028758
C7    C     C_R   0.748189 0.509254 0.563041 0.026087
C8    C     C_R   0.689819 0.496434 0.508553 0.003904
C9    C     C_R   0.695696 0.485829 0.454059 -0.148124
C10   C     C_R   0.757898 0.489315 0.451312 -0.151953
C11   C     C_R   0.815425 0.503817 0.502723 0.001584
C12   C     C_3   0.289451 0.710278 0.082434 0.049855
C13   C     C_3   0.710576 0.249307 0.029660 -0.132786
C14   C     C_3   0.723837 0.318191 0.972563 0.087932
C15   C     C_1   0.625742 0.373984 0.750004 0.010571
C16   C     C_R   0.381882 0.499593 0.500730 0.536662
C17   C     C_1   0.876435 0.124426 0.250040 0.010916
C18   C     C_3   0.696729 0.221110 0.973391 -0.132804
C19   C     C_3   0.710250 0.290281 0.917193 0.016161
C20   C     C_3   0.780140 0.178908 0.027589 0.090185
C21   C     C_3   0.793673 0.206878 0.082888 0.017573
C22   C     C_3   0.793363 0.247837 0.970399 -0.136661
C23   C     C_3   0.193246 0.723628 0.973939 -0.098855
C24   C     C_3   0.807222 0.276012 0.026716 -0.136298
C25   C     C_1   0.663960 0.335996 0.825425 0.008990
C26   C     C_1   0.839268 0.161664 0.174628 0.011000
C27   C     C_R   0.247090 0.617057 0.352291 -0.095610
C28   C     C_R   0.580260 0.419562 0.660242 0.540982
C29   C     C_R   0.183491 0.676491 0.282257 -0.118793
C30   C     C_R   0.119845 0.682536 0.281774 -0.129691
C31   C     C_R   0.119047 0.628592 0.350704 -0.106980
C32   C     C_R   0.182570 0.566196 0.422835 0.029301
C33   C     C_R   0.248020 0.562116 0.423583 0.029187
C34   C     C_3   0.206646 0.792397 0.917636 0.049743
C35   C     C_R   0.312976 0.502732 0.495257 0.013584
C36   C     C_R   0.313548 0.447095 0.564254 -0.148725
C37   C     C_R   0.250028 0.449875 0.564059 -0.147271
C38   C     C_R   0.184168 0.508183 0.494565 -0.004621
C39   C     C_R   0.998658 0.882613 0.497369 0.538926
C40   C     C_3   0.289488 0.750105 0.970957 -0.097342
C41   C     C_R   0.079710 0.919888 0.660307 0.543948
C42   C     C_R   0.001564 0.117003 0.503245 0.537431
C43   C     C_R   0.920334 0.079968 0.339786 0.547431
C44   C     C_R   0.001851 0.619346 0.499487 0.536285
C45   C     C_3   0.206606 0.752556 0.029165 -0.100750
C46   C     C_R   0.881305 0.502018 0.500638 0.537549
C47   C     C_R   0.997953 0.380734 0.500523 0.546317
C48   C     C_R   0.118634 0.503897 0.498612 0.543292
C49   C     C_R   0.010458 0.879033 0.372786 -0.085866
C50   C     C_R   0.025612 0.873734 0.320832 -0.116377
C51   C     C_R   0.037865 0.805891 0.330235 -0.121062
C52   C     C_3   0.302833 0.779054 0.026128 -0.097805
C53   C     C_R   0.032267 0.743847 0.389507 -0.096046
C54   C     C_R   0.013946 0.748515 0.440499 0.029750
C55   C     C_R   0.007181 0.815920 0.435376 0.026406
C56   C     C_3   0.219284 0.822049 0.971426 -0.100283
C57   C     C_R   0.996519 0.818421 0.492399 0.007372
C58   C     C_R   0.987891 0.756986 0.549267 -0.146832
C59   C     C_R   0.991261 0.692127 0.551748 -0.149061
C60   C     C_R   0.003745 0.687295 0.497729 0.006162
C61   C     C_R   0.985436 0.122642 0.624964 -0.099143
C62   C     C_R   0.968828 0.128771 0.675580 -0.120322
C63   C     C_R   0.957156 0.196639 0.666310 -0.118593
C64   C     C_1   0.374237 0.626118 0.249783 -0.029185
C65   C     C_R   0.964554 0.258094 0.608398 -0.100281
C66   C     C_R   0.984043 0.252521 0.558435 0.025682
C67   C     C_1   0.335898 0.664230 0.174281 -0.056912
C68   C     C_R   0.990659 0.184940 0.563655 0.028162
C69   C     C_R   0.003383 0.181387 0.508224 0.004890
C70   C     C_R   0.013576 0.242192 0.452559 -0.146066
C71   C     C_R   0.009965 0.307206 0.449737 -0.146305
C72   C     C_R   0.995864 0.312871 0.502343 0.001568
C73   C     C_1   0.123688 0.875365 0.750240 -0.027352
C74   C     C_3   0.276782 0.680658 0.028619 -0.098062
C75   C     C_2   0.693080 0.396228 0.943747 0.577089
C76   C     C_2   0.811135 0.100762 0.056800 0.577927
C77   C     C_1   0.160916 0.837985 0.825765 -0.056496
C78   C     C_R   0.746665 0.514504 0.623514 -0.097669
Cu1   Cu    Cu3+1 0.500040 0.438210 0.499990 0.954095
Cu2   Cu    Cu3+1 0.499960 0.561790 0.500010 0.957035
Cu3   Cu    Cu3+1 0.061810 0.999860 0.500010 0.948792
Cu4   Cu    Cu3+1 0.938190 0.999990 0.499990 0.949266
Cu5   Cu    Cu3+1 0.958570 0.541460 0.417120 0.935027
Cu6   Cu    Cu3+1 0.041430 0.458560 0.582880 0.926408
H1    H     H_    0.348384 0.801390 0.048529 0.114366
H2    H     H_    0.183709 0.718150 0.228307 0.112268
H3    H     H_    0.070530 0.729324 0.227474 0.110406
H4    H     H_    0.067635 0.638551 0.344674 0.137780
H5    H     H_    0.252378 0.405194 0.618604 0.144239
H6    H     H_    0.979597 0.758878 0.592901 0.129090
H7    H     H_    0.000565 0.933110 0.362565 0.149942
H8    H     H_    0.028547 0.922273 0.273664 0.129875
H9    H     H_    0.051353 0.801399 0.291185 0.114917
H10   H     H_    0.043696 0.692045 0.396131 0.122971
H11   H     H_    0.195137 0.880688 0.946934 0.109643
H12   H     H_    0.903821 0.557989 0.700766 0.112040
H13   H     H_    0.983343 0.645634 0.595599 0.119342
H14   H     H_    0.023266 0.239733 0.410034 0.134634
H15   H     H_    0.964456 0.080769 0.721776 0.116336
H16   H     H_    0.942798 0.201585 0.704568 0.119927
H17   H     H_    0.953804 0.309872 0.602669 0.139760
H18   H     H_    0.019122 0.353177 0.406823 0.136281
H19   H     H_    0.173038 0.753065 0.054127 0.105889
H20   H     H_    0.147696 0.701293 0.951536 0.110905
H21   H     H_    0.300910 0.622028 0.053073 0.113860
H22   H     H_    0.651266 0.475942 0.412344 0.134773
H23   H     H_    0.761496 0.479854 0.409301 0.134911
H24   H     H_    0.703038 0.504637 0.634191 0.140641
H25   H     H_    0.800483 0.535855 0.718523 0.123340
H26   H     H_    0.911244 0.546640 0.600558 0.134142
H27   H     H_    0.629722 0.502682 0.846941 0.342667
H28   H     H_    0.874722 0.994447 0.153982 0.338045
H29   H     H_    0.651413 0.198498 0.951074 0.131388
H30   H     H_    0.995036 0.068463 0.635366 0.136489
H31   H     H_    0.676886 0.250085 0.054405 0.132775
H32   H     H_    0.852544 0.298614 0.049048 0.128848
H33   H     H_    0.827030 0.247085 0.945622 0.127864
H34   H     H_    0.363845 0.401633 0.619090 0.124142
H35   H     H_    0.323131 0.749543 0.946099 0.115876
H36   H     H_    0.295267 0.614480 0.349643 0.129130
O1    O     O_R   0.590210 0.447820 0.500000 -0.507933
O2    O     O_R   0.034940 0.555150 0.570020 -0.514944
O3    O     O_R   0.874830 0.535020 0.430000 -0.501356
O4    O     O_R   0.590150 0.552170 0.500020 -0.513028
O5    O     O_R   0.944810 0.465010 0.569970 -0.524980
O6    O     O_R   0.965060 0.444870 0.429980 -0.502698
O7    O     O_R   0.035040 0.374860 0.569950 -0.511032
O8    O     O_R   0.055190 0.535000 0.430030 -0.527738
O9    O     O_R   0.125170 0.465000 0.570000 -0.504268
O10   O     O_R   0.439580 0.508290 0.379070 -0.501700
O11   O     O_R   0.439510 0.612640 0.379090 -0.507724
O12   O     O_R   0.947780 0.909820 0.499990 -0.505330
O13   O     O_R   0.409850 0.447830 0.499980 -0.506715
O14   O     O_R   0.409790 0.552180 0.500000 -0.507277
O15   O     O_R   0.560490 0.387360 0.620910 -0.505675
O16   O     O_R   0.560420 0.491710 0.620930 -0.497597
O17   O     O_R   0.052170 0.909710 0.500000 -0.513892
O18   O     O_2   0.708798 0.410196 0.995490 -0.514418
O19   O     O_R   0.646796 0.452527 0.858286 -0.697259
O20   O     O_2   0.795504 0.086485 0.005309 -0.516107
O21   O     O_R   0.857567 0.044723 0.142351 -0.710596
O22   O     O_R   0.112650 0.939420 0.620930 -0.497177
O23   O     O_R   0.008260 0.939530 0.620910 -0.515035
O24   O     O_R   0.052220 0.090030 0.500010 -0.507663
O25   O     O_R   0.947830 0.090140 0.500000 -0.512093
O26   O     O_R   0.991740 0.060320 0.379090 -0.512212
O27   O     O_R   0.887350 0.060430 0.379070 -0.496646
O28   O     O_R   0.964960 0.625150 0.430050 -0.515412

loop_
_geom_bond_atom_site_label_1
_geom_bond_atom_site_label_2
_ccdc_geom_bond_type
C56   H11   S    
C66   C68   A    
C21   C26   S    
C39   O17   A    
C2    H25   S    
C34   C56   S    
C23   C45   S    
C12   C74   S    
C22   H33   S    
C28   O15   A    
C46   O5    A    
C35   C36   A    
C65   H17   S    
Cu5   O8    S    
C16   O14   A    
C63   C65   A    
Cu4   O27   S    
C15   C28   S    
H27   O19   S    
C7    C8    A    
C54   C60   A    
C53   C54   A    
C27   C33   A    
Cu3   O17   S    
Cu1   O1    S    
C63   H16   S    
C13   C18   S    
C34   C40   S    
C17   C26   T    
C40   C52   S    
C36   C37   A    
C37   C38   A    
C41   O23   A    
C34   C77   S    
C30   C31   A    
C15   C25   T    
C27   C29   A    
C5    H26   S    
Cu6   O2    S    
C1    C8    S    
Cu6   O9    S    
Cu2   O14   S    
C20   C76   S    
C78   H24   S    
C18   C19   S    
C14   C24   S    
C45   H19   S    
C44   O28   A    
Cu3   O24   S    
C66   C72   A    
Cu5   Cu6   S    
C45   C56   S    
C8    C9    A    
C3    H12   S    
C32   C38   A    
C36   H34   S    
C9    C10   A    
C38   C48   S    
C76   O21   S    
Cu6   O7    S    
C59   C60   A    
Cu2   O11   S    
C13   C14   S    
C10   H23   S    
C69   C70   A    
C49   H7    S    
C19   C25   S    
C16   O13   A    
C18   H29   S    
C12   C52   S    
Cu3   Cu4   S    
C4    O11   A    
C76   O20   D    
Cu1   O13   S    
C12   C67   S    
C64   C67   T    
C19   C22   S    
C6    C11   A    
C68   C69   A    
C4    O10   A    
C58   C59   A    
C27   H36   S    
Cu1   O10   S    
C42   C69   S    
Cu5   O28   S    
C51   C53   A    
H28   O21   S    
C17   C43   S    
C29   C30   A    
C2    C78   A    
C48   O8    A    
C23   H20   S    
C23   C34   S    
C62   C63   A    
C50   C51   A    
C13   C21   S    
Cu3   O26   S    
C13   H31   S    
C58   H6    S    
C29   H2    S    
C70   C71   A    
C51   H9    S    
C7    C78   A    
C50   H8    S    
Cu3   O22   S    
C71   H18   S    
C20   C22   S    
C24   H32   S    
C55   C57   A    
C42   O24   A    
C59   H13   S    
C22   C24   S    
C46   O3    A    
Cu5   O6    S    
Cu4   O12   S    
Cu4   O25   S    
C47   O6    A    
Cu2   O4    S    
Cu6   O5    S    
C54   C55   A    
C52   H1    S    
C31   H4    S    
C53   H10   S    
C28   O16   A    
C14   C19   S    
C31   C32   A    
Cu4   O23   S    
C3    C5    A    
C75   O18   D    
C47   O7    A    
C6    C7    A    
C12   C45   S    
Cu1   O15   S    
C4    C64   S    
Cu2   O16   S    
C37   H5    S    
C32   C33   A    
C2    C3    A    
C9    H22   S    
C1    O4    A    
C41   O22   A    
C16   C35   S    
C43   O26   A    
C49   C55   A    
C14   C75   S    
C74   H21   S    
C62   H15   S    
C61   C68   A    
C57   C58   A    
C5    C6    A    
C44   C60   S    
C44   O2    A    
C33   C35   A    
C40   C74   S    
C18   C20   S    
C65   C66   A    
C61   C62   A    
C48   O9    A    
C1    O1    A    
C47   C72   S    
C43   O27   A    
C10   C11   A    
C41   C73   S    
Cu1   Cu2   S    
C52   C56   S    
C71   C72   A    
C40   H35   S    
C20   C21   S    
C49   C50   A    
C39   O12   A    
C21   C24   S    
C61   H30   S    
C73   C77   T    
C11   C46   S    
C75   O19   S    
C23   C74   S    
Cu5   O3    S    
C30   H3    S    
C42   O25   A    
C70   H14   S    
C39   C57   S    
