data_mof_unit_34341.cif
_audit_creation_date              2012-12-10T17:58:20-0500
_audit_creation_method            fapswitch 2.2
_symmetry_space_group_name_H-M    P1
_symmetry_Int_Tables_number       1
_space_group_crystal_system       triclinic
_cell_length_a                    9.531659
_cell_length_b                    10.832699
_cell_length_c                    15.419399
_cell_angle_alpha                 89.433963
_cell_angle_beta                  74.766301
_cell_angle_gamma                 89.66181
_cell_volume                      1536.0810483

loop_
_atom_site_label
_atom_site_type_symbol
_atom_type_description
_atom_site_fract_x
_atom_site_fract_y
_atom_site_fract_z
_atom_type_partial_charge
C1    C     C_R   0.000242 0.262146 0.500521 0.846621
C2    C     C_R   0.000076 0.737863 0.498872 0.856724
C3    C     C_R   0.585035 0.473163 0.095206 0.698164
C4    C     C_R   0.412684 0.500589 0.904680 0.711693
C5    C     C_R   0.727387 0.444035 0.050176 -0.236020
C6    C     C_R   0.271280 0.532935 0.949042 -0.250142
C7    C     C_R   0.890318 0.065983 0.474605 -0.309954
C8    C     C_R   0.111831 0.934114 0.522449 -0.314251
C9    C     C_R   0.889699 0.938349 0.473005 0.625165
C10   C     C_R   0.112935 0.061716 0.523543 0.651118
C11   C     C_R   0.000093 0.871741 0.497863 -0.272714
C12   C     C_R   0.001389 0.128306 0.499945 -0.261885
C13   C     C_R   0.550563 0.423951 0.556775 0.537306
C14   C     C_R   0.449402 0.576207 0.443333 0.542661
C15   C     C_R   0.401954 0.424094 0.556774 0.590083
C16   C     C_R   0.598038 0.575987 0.443282 0.575557
C17   C     C_R   0.918531 0.498998 0.672409 0.864630
C18   C     C_R   0.081340 0.499934 0.327695 0.862174
C19   C     C_R   0.873406 0.488723 0.771144 -0.312954
C20   C     C_R   0.125990 0.504788 0.228972 -0.303296
C21   C     C_R   0.917209 0.423053 0.912311 -0.275717
C22   C     C_R   0.083430 0.564349 0.086396 -0.277239
C23   C     C_R   0.966520 0.438671 0.819543 0.586504
C24   C     C_R   0.034780 0.555440 0.179568 0.588497
C25   C     C_R   0.730459 0.522154 0.817063 0.436229
C26   C     C_R   0.265770 0.462994 0.183788 0.450451
C27   C     C_R   0.672387 0.484541 0.907530 -0.006209
C28   C     C_R   0.325321 0.495004 0.092328 -0.014137
C29   C     C_R   0.771799 0.447535 0.956725 -0.103571
C30   C     C_R   0.227260 0.533517 0.042460 -0.104729
C31   C     C_R   0.521158 0.490867 0.952136 -0.136334
C32   C     C_R   0.476377 0.484377 0.047866 -0.140757
Cu1   Cu    Cu3+1 0.140660 0.500020 0.500000 1.120868
Cu2   Cu    Cu3+1 0.859340 0.499980 0.500000 1.112680
H1    H     H_    0.805778 0.427611 0.088793 0.187803
H2    H     H_    0.193624 0.550238 0.910098 0.189149
H3    H     H_    0.992304 0.390280 0.949434 0.181366
H4    H     H_    0.009407 0.597507 0.048630 0.181374
H5    H     H_    0.804604 0.115951 0.454956 0.224683
H6    H     H_    0.197714 0.884229 0.541990 0.218346
N1    N     N_R   0.352080 0.500030 0.499980 -0.368618
N2    N     N_R   0.647920 0.499970 0.500020 -0.375691
O1    O     O_R   0.118740 0.319660 0.500000 -0.503893
O2    O     O_R   0.881260 0.680340 0.500000 -0.511640
O3    O     O_R   0.881170 0.319630 0.500010 -0.565029
O4    O     O_R   0.118830 0.680370 0.499990 -0.569304
O5    O     O_R   0.055570 0.500030 0.629830 -0.514756
O6    O     O_R   0.944430 0.499970 0.370170 -0.512141
O7    O     O_R   0.818000 0.500000 0.629840 -0.502476
O8    O     O_R   0.182000 0.500000 0.370160 -0.497155
O9    O     O_3   0.336997 0.382352 0.228289 -0.528592
C33   C     C_3   0.325589 0.259509 0.200153 0.046247
H7    H     H_    0.436574 0.218665 0.181947 0.183738
H8    H     H_    0.282396 0.251023 0.139710 0.116429
C34   C     C_3   0.229892 0.184912 0.277952 -0.368168
H9    H     H_    0.274639 0.191026 0.337459 0.258866
H10   H     H_    0.118155 0.224280 0.295996 0.190790
C35   C     C_3   0.222612 0.049474 0.253245 -0.802719
H11   H     H_    0.175507 0.040902 0.194911 0.256222
H12   H     H_    0.152709 0.998100 0.311095 0.263201
H13   H     H_    0.332972 0.007512 0.236359 0.273854
O10   O     O_3   0.652269 0.598501 0.774274 -0.510862
C36   C     C_3   0.666162 0.721877 0.799520 0.033841
H14   H     H_    0.779354 0.755002 0.770380 0.121597
H15   H     H_    0.638814 0.731492 0.874041 0.111528
C37   C     C_3   0.560361 0.803797 0.765509 -0.356508
H16   H     H_    0.447547 0.769787 0.793594 0.231081
H17   H     H_    0.566362 0.899555 0.789496 0.192640
C38   C     C_3   0.595489 0.805647 0.663068 -0.588620
H18   H     H_    0.707632 0.840034 0.634494 0.229951
H19   H     H_    0.518506 0.868128 0.641022 0.244814
H20   H     H_    0.585523 0.711713 0.637111 0.264569
F1    F     F_    0.898128 0.594243 0.220753 -0.560329
F2    F     F_    0.105510 0.406637 0.777858 -0.563319
F3    F     F_    0.559418 0.500933 0.183592 -0.566233
F4    F     F_    0.438212 0.469535 0.816843 -0.560241
F5    F     F_    0.782169 0.880899 0.446275 -0.584885
F6    F     F_    0.221560 0.119072 0.549204 -0.583270
F7    F     F_    0.596260 0.346911 0.613632 -0.541924
F8    F     F_    0.403678 0.653366 0.386555 -0.548058
F9    F     F_    0.308544 0.347635 0.613735 -0.477714
F10   F     F_    0.691505 0.652324 0.386243 -0.477161

loop_
_geom_bond_atom_site_label_1
_geom_bond_atom_site_label_2
_ccdc_geom_bond_type
C37   H17   S    
C34   H9    S    
C13   F7    S    
C27   C29   A    
Cu2   N2    S    
C36   H15   S    
C10   F6    S    
C15   F9    S    
C2    O4    A    
C24   F1    S    
C37   C38   S    
C35   H12   S    
C22   H4    S    
C38   H19   S    
C1    O1    A    
C20   C24   A    
C2    O2    A    
C14   C16   A    
C14   F8    S    
C3    F3    S    
C33   C34   S    
C35   H13   S    
C37   H16   S    
C36   C37   S    
Cu1   O4    S    
C3    C32   A    
C1    C12   S    
C2    C11   S    
C13   N2    A    
C33   H8    S    
C5    C29   A    
C7    C12   A    
C27   C31   A    
O9    C33   S    
Cu1   O1    S    
C28   C32   A    
Cu2   O2    S    
C15   N1    A    
C4    C6    A    
C17   O7    A    
C35   H11   S    
C21   C29   A    
C38   H20   S    
C19   C23   A    
O10   C36   S    
C31   C32   A    
C13   C15   A    
C16   F10   S    
Cu1   Cu2   S    
Cu2   O3    S    
C9    F5    S    
C9    C11   A    
C10   C12   A    
C14   N1    A    
C6    C30   A    
C34   H10   S    
Cu1   O5    S    
C22   C24   A    
Cu2   O6    S    
C23   F2    S    
C16   N2    A    
C33   H7    S    
C18   O8    A    
C7    C9    A    
Cu2   O7    S    
C22   C30   A    
C17   O5    A    
C3    C5    A    
C18   O6    A    
C25   C27   A    
C26   C28   A    
Cu1   N1    S    
C21   C23   A    
Cu1   O8    S    
C26   O9    S    
C1    O3    A    
C20   C26   A    
C8    C11   A    
C5    H1    S    
C28   C30   A    
C17   C19   S    
C6    H2    S    
C18   C20   S    
C25   O10   S    
C38   H18   S    
C19   C25   A    
C4    F4    S    
C4    C31   A    
C36   H14   S    
C21   H3    S    
C8    C10   A    
C34   C35   S    
C7    H5    S    
C8    H6    S    
