data_mof_unit_39602.cif
_audit_creation_date              2012-12-11T14:08:41-0500
_audit_creation_method            fapswitch 2.2
_symmetry_space_group_name_H-M    P1
_symmetry_Int_Tables_number       1
_space_group_crystal_system       triclinic
_cell_length_a                    28.122579
_cell_length_b                    7.166202
_cell_length_c                    17.324184
_cell_angle_alpha                 90.000715
_cell_angle_beta                  102.008042
_cell_angle_gamma                 89.999835
_cell_volume                      3414.98194272

loop_
_atom_site_label
_atom_site_type_symbol
_atom_type_description
_atom_site_fract_x
_atom_site_fract_y
_atom_site_fract_z
_atom_type_partial_charge
O1    O     O_R   0.000700 0.436510 0.857920 -0.523568
O2    O     O_R   0.999300 0.563490 0.142080 -0.523956
O3    O     O_R   0.999300 0.936510 0.642080 -0.523567
O4    O     O_R   0.000700 0.063490 0.357920 -0.523957
O5    O     O_R   0.930080 0.766380 0.721890 -0.540405
O6    O     O_R   0.069920 0.233620 0.278110 -0.540127
O7    O     O_R   0.069920 0.266380 0.778110 -0.540406
O8    O     O_R   0.930080 0.733620 0.221890 -0.540124
C1    C     C_R   0.910605 0.597823 0.706910 0.745935
C2    C     C_R   0.089613 0.402469 0.289529 0.745289
C3    C     C_R   0.089395 0.097823 0.793090 0.745941
C4    C     C_R   0.910387 0.902469 0.210469 0.745283
O9    O     O_R   0.996180 0.766230 0.862310 -0.506821
O10   O     O_R   0.003820 0.233770 0.137690 -0.506607
O11   O     O_R   0.003820 0.266230 0.637690 -0.506824
O12   O     O_R   0.996180 0.733770 0.362310 -0.506610
O13   O     O_R   0.065870 0.936460 0.783500 -0.548626
O14   O     O_R   0.934130 0.063540 0.216500 -0.547288
O15   O     O_R   0.934130 0.436460 0.716500 -0.548628
O16   O     O_R   0.065870 0.563540 0.283500 -0.547289
C5    C     C_R   0.998351 0.595731 0.894260 0.745187
C6    C     C_R   0.001692 0.404285 0.105752 0.744778
C7    C     C_R   0.001649 0.095730 0.605740 0.745192
C8    C     C_R   0.998308 0.904287 0.394248 0.744787
O17   O     O_3   0.022790 0.603020 0.723980 -0.369123
O18   O     O_3   0.977210 0.396980 0.276020 -0.369625
O19   O     O_3   0.977210 0.103020 0.776020 -0.369122
O20   O     O_3   0.022790 0.896980 0.223980 -0.369625
V1    V     V_3+5 0.995770 0.877900 0.754830 1.585883
V2    V     V_3+5 0.004230 0.122100 0.245170 1.586768
V3    V     V_3+5 0.004230 0.377900 0.745170 1.585875
V4    V     V_3+5 0.995770 0.622100 0.254830 1.586765
C9    C     C_2   0.006701 0.078917 0.522526 0.122910
C10   C     C_2   0.993189 0.921173 0.477433 0.122996
C11   C     C_2   0.993300 0.578920 0.977476 0.122908
C12   C     C_2   0.006809 0.421170 0.022566 0.122994
C13   C     C_R   0.677708 0.844914 0.066527 0.737661
C14   C     C_R   0.316727 0.150017 0.989987 0.765848
C15   C     C_R   0.322291 0.344996 0.433487 0.737665
C16   C     C_R   0.683276 0.650010 0.510007 0.765823
O21   O     O_2   0.704067 0.733381 0.028665 -0.453291
O22   O     O_2   0.289492 0.270968 0.021865 -0.447128
O23   O     O_2   0.295929 0.233551 0.471377 -0.453263
O24   O     O_2   0.710513 0.770943 0.478125 -0.447141
N1    N     N_R   0.700945 0.943478 0.130963 -0.567163
N2    N     N_R   0.295133 0.047746 0.925328 -0.566335
N3    N     N_R   0.299057 0.443484 0.369027 -0.567168
N4    N     N_R   0.704868 0.547752 0.574669 -0.566336
C17   C     C_R   0.675870 0.061974 0.169989 0.714008
C18   C     C_R   0.320960 0.917482 0.893327 0.708516
C19   C     C_R   0.324135 0.561912 0.329977 0.713984
C20   C     C_R   0.679039 0.417505 0.606674 0.708514
C21   C     C_R   0.776550 0.765416 0.183698 0.448983
C22   C     C_R   0.223557 0.233250 0.857399 0.447590
C23   C     C_R   0.223451 0.265359 0.316364 0.448995
C24   C     C_R   0.776444 0.733252 0.642603 0.447579
C25   C     C_R   0.827865 0.755979 0.201189 -0.279250
C26   C     C_R   0.173146 0.243281 0.824429 -0.283244
C27   C     C_R   0.172137 0.255920 0.298882 -0.279180
C28   C     C_R   0.826854 0.743281 0.675573 -0.283248
C29   C     C_R   0.832462 0.078832 0.162276 -0.177170
C30   C     C_R   0.163338 0.922454 0.861841 -0.173232
C31   C     C_R   0.167540 0.578893 0.337639 -0.177200
C32   C     C_R   0.836662 0.422454 0.638158 -0.173235
C33   C     C_R   0.781712 0.088412 0.143990 -0.166766
C34   C     C_R   0.212855 0.912496 0.895465 -0.161906
C35   C     C_R   0.218290 0.588467 0.355926 -0.166759
C36   C     C_R   0.787145 0.412497 0.604533 -0.161921
C37   C     C_R   0.753396 0.932683 0.154197 0.327871
C38   C     C_R   0.243462 0.066186 0.893302 0.321366
C39   C     C_R   0.246606 0.432684 0.345790 0.327892
C40   C     C_R   0.756539 0.566189 0.606697 0.321375
C41   C     C_R   0.600044 0.975648 0.080979 -0.165804
C42   C     C_R   0.394395 0.001669 0.988108 -0.158728
C43   C     C_R   0.399957 0.475662 0.419011 -0.165812
C44   C     C_R   0.605607 0.501684 0.511888 -0.158742
C45   C     C_R   0.626799 0.859464 0.039575 -0.071461
C46   C     C_R   0.367038 0.129255 0.023170 -0.063508
C47   C     C_R   0.373201 0.359537 0.460433 -0.071493
C48   C     C_R   0.632965 0.629253 0.476823 -0.063517
C49   C     C_R   0.602858 0.776213 0.968168 0.317194
C50   C     C_R   0.389586 0.218395 0.094242 0.347940
C51   C     C_R   0.397142 0.276331 0.531849 0.317219
C52   C     C_R   0.610419 0.718380 0.405749 0.347927
C53   C     C_R   0.625020 0.088530 0.143465 -0.169003
C54   C     C_R   0.370422 0.882923 0.927045 -0.148010
C55   C     C_R   0.374984 0.588486 0.356504 -0.169003
C56   C     C_R   0.629577 0.382947 0.572955 -0.148015
C57   C     C_R   0.856272 0.912161 0.190512 -0.073385
C58   C     C_R   0.142706 0.087733 0.825850 -0.067530
C59   C     C_R   0.143729 0.412162 0.309484 -0.073367
C60   C     C_R   0.857294 0.587732 0.674151 -0.067528
H1    H     H_    0.853021 0.201877 0.153360 0.147161
H2    H     H_    0.141107 0.800455 0.865065 0.145303
H3    H     H_    0.146981 0.701988 0.346490 0.147128
H4    H     H_    0.858893 0.300455 0.634931 0.145303
H5    H     H_    0.764218 0.217162 0.120771 0.168303
H6    H     H_    0.227690 0.783626 0.923108 0.170038
H7    H     H_    0.235784 0.717256 0.379089 0.168242
H8    H     H_    0.772309 0.283627 0.576888 0.170030
C61   C     C_R   0.472248 0.856860 0.980816 -0.005333
C62   C     C_R   0.521871 0.113041 0.094713 -0.012269
C63   C     C_R   0.527752 0.356896 0.519182 -0.005338
C64   C     C_R   0.478131 0.613035 0.405269 -0.012272
C65   C     C_R   0.469706 0.106988 0.076695 0.092749
C66   C     C_R   0.523922 0.868087 0.996151 0.095633
C67   C     C_R   0.530296 0.606991 0.423293 0.092736
C68   C     C_R   0.476079 0.368134 0.503849 0.095624
C69   C     C_R   0.445620 0.989906 0.014850 -0.023485
C70   C     C_R   0.548443 0.983511 0.058172 -0.020713
C71   C     C_R   0.554381 0.489925 0.485144 -0.023491
C72   C     C_R   0.451558 0.483529 0.441818 -0.020715
C73   C     C_R   0.445886 0.707966 0.937768 0.405226
C74   C     C_R   0.548937 0.256203 0.140992 0.408347
C75   C     C_R   0.554111 0.208005 0.562233 0.405215
C76   C     C_R   0.451065 0.756164 0.358973 0.408361
C77   C     C_R   0.395969 0.726885 0.906115 0.374225
C78   C     C_R   0.598983 0.233861 0.171812 0.364118
C79   C     C_R   0.604028 0.226920 0.593887 0.374222
C80   C     C_R   0.401022 0.733787 0.328140 0.364113
O25   O     O_2   0.298836 0.825528 0.827772 -0.460272
O26   O     O_2   0.700305 0.151268 0.234615 -0.449049
O27   O     O_2   0.701160 0.325568 0.672234 -0.460274
O28   O     O_2   0.299704 0.651122 0.265325 -0.449021
C81   C     C_R   0.551495 0.783523 0.945699 0.327165
C82   C     C_R   0.440681 0.200838 0.122670 0.362457
C83   C     C_R   0.448506 0.283610 0.554310 0.327128
C84   C     C_R   0.559324 0.700830 0.377319 0.362401
H9    H     H_    0.157898 0.371919 0.797112 0.135309
H10   H     H_    0.845482 0.626968 0.223830 0.134573
H11   H     H_    0.842102 0.871919 0.702893 0.135307
H12   H     H_    0.154521 0.126857 0.276308 0.134540
Cl1   Cl    Cl    0.037121 0.270038 0.489043 -0.593477
Cl2   Cl    Cl    0.962655 0.730295 0.510864 -0.600068
Cl3   Cl    Cl    0.962886 0.770053 0.010963 -0.593479
Cl4   Cl    Cl    0.037337 0.230279 0.989130 -0.600043
O29   O     O_3   0.630264 0.698881 0.918782 -0.581816
H13   H     H_    0.616100 0.737758 0.863942 0.336037
O30   O     O_3   0.360832 0.313256 0.136864 -0.576199
H14   H     H_    0.372701 0.287408 0.193713 0.343316
O31   O     O_3   0.369736 0.199062 0.581249 -0.581797
H15   H     H_    0.383912 0.237918 0.636088 0.336060
O32   O     O_3   0.639175 0.813223 0.363125 -0.576208
H16   H     H_    0.627301 0.787407 0.306275 0.343338
O33   O     O_3   0.254009 0.382795 0.854222 -0.581567
H17   H     H_    0.234551 0.488317 0.827246 0.320594
O34   O     O_3   0.748330 0.614245 0.195009 -0.590757
H18   H     H_    0.769935 0.508748 0.216267 0.311927
O35   O     O_3   0.745991 0.882797 0.645780 -0.581580
H19   H     H_    0.765449 0.988320 0.672758 0.320586
O36   O     O_3   0.251673 0.114133 0.305122 -0.590810
H20   H     H_    0.230067 0.008586 0.283927 0.311820
Cl5   Cl    Cl    0.365987 0.540122 0.848556 -0.443593
Cl6   Cl    Cl    0.628296 0.406663 0.238261 -0.492326
Cl7   Cl    Cl    0.634008 0.040162 0.651450 -0.443601
Cl8   Cl    Cl    0.371712 0.906513 0.261652 -0.492342
Cl9   Cl    Cl    0.471631 0.481090 0.939564 -0.547058
Cl10  Cl    Cl    0.525386 0.486435 0.140635 -0.537030
Cl11  Cl    Cl    0.528362 0.981136 0.560436 -0.547048
Cl12  Cl    Cl    0.474607 0.986411 0.359331 -0.537036
O37   O     O_3   0.527998 0.727118 0.871199 -0.600414
H21   H     H_    0.545578 0.619188 0.854852 0.349778
O38   O     O_3   0.462006 0.256308 0.198334 -0.581521
H22   H     H_    0.445787 0.371234 0.211405 0.337224
O39   O     O_3   0.472004 0.227213 0.628809 -0.600418
H23   H     H_    0.454425 0.119283 0.645156 0.349772
O40   O     O_3   0.538001 0.756292 0.301654 -0.581518
H24   H     H_    0.554216 0.871235 0.288591 0.337225

loop_
_geom_bond_atom_site_label_1
_geom_bond_atom_site_label_2
_ccdc_geom_bond_type
O17   V3    S    
O1    C5    A    
O39   H23   S    
C23   C27   A    
O19   V1    S    
O13   V1    S    
O3    C7    A    
O34   H18   S    
O1    V3    S    
C48   C52   A    
C21   C37   A    
C42   C69   A    
O37   H21   S    
C41   C70   A    
O7    C3    A    
C66   C81   A    
C43   C72   A    
C50   O30   S    
C25   C57   A    
C65   C82   A    
C32   C36   A    
C63   C71   A    
O10   V2    S    
C67   C84   A    
C76   Cl12  S    
C22   C26   A    
O4    C8    A    
C20   O27   S    
C29   H1    S    
C10   Cl2   S    
C26   H9    S    
C61   C69   A    
O32   H16   S    
C31   H3    S    
C21   O34   S    
C61   C73   A    
C1    C60   S    
C62   C65   A    
O2    V4    S    
O3    V1    S    
C46   C50   A    
C50   C82   A    
C64   C76   A    
C1    O15   A    
C74   Cl10  S    
O38   H22   S    
C2    O16   A    
C24   C40   A    
O2    C6    A    
C84   O40   S    
O36   H20   S    
C16   C48   A    
C63   C68   A    
O14   V2    S    
N1    C17   A    
C44   C56   A    
C16   O24   S    
C83   O39   S    
C68   C72   A    
O11   C7    A    
O15   V3    S    
O12   C8    A    
C19   O28   S    
C31   C59   A    
C18   O25   S    
C52   C84   A    
N4    C40   S    
C12   Cl4   S    
C28   H11   S    
C29   C57   A    
O33   H17   S    
O5    V1    S    
C28   C60   A    
C31   C35   A    
C27   H12   S    
O7    V3    S    
C30   C34   A    
N1    C37   S    
O8    V4    S    
C17   C53   A    
C4    C57   S    
C20   C56   A    
C32   H4    S    
C19   C55   A    
O40   H24   S    
C51   O31   S    
C21   C25   A    
O18   V4    S    
N3    C19   A    
C14   C46   A    
C52   O32   S    
C7    C9    S    
C15   N3    A    
C13   C45   A    
C8    C10   S    
C76   C80   A    
C75   Cl11  S    
C36   C40   A    
C11   C12   D    
C15   C47   A    
C49   O29   S    
C36   H8    S    
O5    C1    A    
C63   C75   A    
C62   C74   A    
C9    Cl1   S    
C25   H10   S    
C22   C38   A    
C80   Cl8   S    
C45   C49   A    
O8    C4    A    
N3    C39   S    
C9    C10   D    
O9    C5    A    
C27   C59   A    
C42   C54   A    
C56   C79   A    
O11   V3    S    
C26   C58   A    
C41   C53   A    
C74   C78   A    
C22   O33   S    
C73   C77   A    
C43   C55   A    
O6    V2    S    
C2    C59   S    
C75   C79   A    
C30   H2    S    
C77   Cl5   S    
C62   C70   A    
C32   C60   A    
C13   N1    A    
C82   O38   S    
N2    C38   S    
C64   C72   A    
O16   V4    S    
O9    V1    S    
C61   C66   A    
C16   N4    A    
C65   C69   A    
C3    O13   A    
C79   Cl7   S    
C49   C81   A    
C67   C71   A    
C11   Cl3   S    
C44   C48   A    
C51   C83   A    
O6    C2    A    
C15   O23   S    
O30   H14   S    
C23   O36   S    
C5    C11   S    
C35   H7    S    
O12   V4    S    
C6    C12   S    
O29   H13   S    
N2    C18   A    
O10   C6    A    
O20   V2    S    
C33   H5    S    
C55   C80   A    
O35   H19   S    
C47   C51   A    
C3    C58   S    
C34   H6    S    
C34   C38   A    
C44   C71   A    
C33   C37   A    
C17   O26   S    
C30   C58   A    
C78   Cl6   S    
C54   C77   A    
C35   C39   A    
C68   C83   A    
C13   O21   S    
C53   C78   A    
O4    V2    S    
C14   N2    A    
C18   C54   A    
C14   O22   S    
C29   C33   A    
N4    C20   A    
C24   C28   A    
C66   C70   A    
C42   C46   A    
C4    O14   A    
C81   O37   S    
C41   C45   A    
C73   Cl9   S    
C24   O35   S    
O31   H15   S    
C43   C47   A    
C64   C67   A    
C23   C39   A    
