data_mof_unit_54699.cif
_audit_creation_date              2012-12-11T15:08:39-0500
_audit_creation_method            fapswitch 2.2
_symmetry_space_group_name_H-M    P1
_symmetry_Int_Tables_number       1
_space_group_crystal_system       triclinic
_cell_length_a                    19.551564
_cell_length_b                    11.237398
_cell_length_c                    18.703916
_cell_angle_alpha                 89.99989
_cell_angle_beta                  90.447159
_cell_angle_gamma                 90.000205
_cell_volume                      4109.28803633

loop_
_atom_site_label
_atom_site_type_symbol
_atom_type_description
_atom_site_fract_x
_atom_site_fract_y
_atom_site_fract_z
_atom_type_partial_charge
C1    C     C_R   0.272721 0.043629 0.854079 0.531927
C2    C     C_R   0.727280 0.043632 0.145922 0.531924
C3    C     C_R   0.772721 0.543629 0.854079 0.531927
C4    C     C_R   0.227280 0.543632 0.145922 0.531924
C5    C     C_3   0.519572 0.721646 0.964608 -0.111900
C6    C     C_3   0.480434 0.721658 0.035392 -0.111896
C7    C     C_3   0.019572 0.221646 0.964608 -0.111900
C8    C     C_3   0.980434 0.221659 0.035392 -0.111896
C9    C     C_3   0.311383 0.528704 0.044381 -0.233997
C10   C     C_3   0.688619 0.528695 0.955620 -0.233995
C11   C     C_3   0.811383 0.028704 0.044381 -0.233997
C12   C     C_3   0.188619 0.028695 0.955620 -0.233995
C13   C     C_3   0.320767 0.552396 0.963920 -0.235512
C14   C     C_3   0.679236 0.552377 0.036083 -0.235511
C15   C     C_3   0.820767 0.052395 0.963920 -0.235512
C16   C     C_3   0.179236 0.052377 0.036083 -0.235511
C17   C     C_3   0.179837 0.524149 0.025505 -0.209911
C18   C     C_3   0.820165 0.524148 0.974496 -0.209915
C19   C     C_3   0.679837 0.024149 0.025505 -0.209911
C20   C     C_3   0.320165 0.024148 0.974496 -0.209915
C21   C     C_3   0.240921 0.708607 0.056599 -0.257400
C22   C     C_3   0.759079 0.708602 0.943400 -0.257398
C23   C     C_3   0.740921 0.208607 0.056599 -0.257400
C24   C     C_3   0.259079 0.208602 0.943400 -0.257399
C25   C     C_3   0.240813 0.575074 0.070310 0.064036
C26   C     C_3   0.759188 0.575069 0.929691 0.064034
C27   C     C_3   0.740813 0.075074 0.070310 0.064036
C28   C     C_3   0.259188 0.075069 0.929691 0.064034
C29   C     C_3   0.255201 0.609971 0.932258 0.054200
C30   C     C_3   0.744799 0.609967 0.067743 0.054199
C31   C     C_3   0.755201 0.109971 0.932258 0.054200
C32   C     C_3   0.244799 0.109967 0.067743 0.054199
C33   C     C_3   0.195137 0.524955 0.944817 -0.252751
C34   C     C_3   0.804868 0.524962 0.055184 -0.252749
C35   C     C_3   0.695137 0.024955 0.944817 -0.252751
C36   C     C_3   0.304868 0.024962 0.055184 -0.252749
C37   C     C_3   0.239114 0.726315 0.974588 -0.222835
C38   C     C_3   0.760878 0.726313 0.025411 -0.222834
C39   C     C_3   0.739114 0.226315 0.974588 -0.222835
C40   C     C_3   0.260878 0.226313 0.025411 -0.222834
C41   C     C_3   0.510760 0.692015 0.461808 -0.016309
C42   C     C_3   0.489240 0.692015 0.538192 -0.016308
C43   C     C_3   0.010760 0.192015 0.461808 -0.016309
C44   C     C_3   0.989240 0.192015 0.538192 -0.016308
C45   C     C_R   0.444012 0.816992 0.862474 0.534716
C46   C     C_R   0.556002 0.816990 0.137526 0.534715
C47   C     C_R   0.944012 0.316992 0.862474 0.534716
C48   C     C_R   0.056002 0.316990 0.137526 0.534715
C49   C     C_3   0.563243 0.899242 0.473422 -0.256087
C50   C     C_3   0.436757 0.899243 0.526578 -0.256087
C51   C     C_3   0.063243 0.399242 0.473422 -0.256087
C52   C     C_3   0.936757 0.399243 0.526578 -0.256087
C53   C     C_3   0.439933 0.875319 0.445008 -0.278026
C54   C     C_3   0.560068 0.875319 0.554992 -0.278027
C55   C     C_3   0.939932 0.375319 0.445008 -0.278026
C56   C     C_3   0.060068 0.375318 0.554992 -0.278027
C57   C     C_3   0.510191 0.822051 0.430530 0.039294
C58   C     C_3   0.489809 0.822051 0.569469 0.039295
C59   C     C_3   0.010191 0.322051 0.430530 0.039294
C60   C     C_3   0.989809 0.322051 0.569469 0.039295
C61   C     C_3   0.175233 0.642320 0.460347 -0.222868
C62   C     C_3   0.824767 0.642320 0.539653 -0.222869
C63   C     C_3   0.675234 0.142320 0.460347 -0.222868
C64   C     C_3   0.324767 0.142320 0.539653 -0.222869
C65   C     C_3   0.181147 0.657646 0.539833 -0.218787
C66   C     C_3   0.818853 0.657647 0.460166 -0.218787
C67   C     C_3   0.681147 0.157646 0.539833 -0.218787
C68   C     C_3   0.318853 0.157647 0.460166 -0.218787
C69   C     C_3   0.250272 0.453152 0.473317 -0.221383
C70   C     C_3   0.749727 0.453152 0.526683 -0.221382
C71   C     C_3   0.750272 0.953152 0.473317 -0.221383
C72   C     C_3   0.249727 0.953152 0.526683 -0.221382
C73   C     C_3   0.298028 0.651806 0.444705 -0.269090
C74   C     C_3   0.701972 0.651806 0.555295 -0.269091
C75   C     C_3   0.798028 0.151806 0.444705 -0.269091
C76   C     C_3   0.201972 0.151806 0.555295 -0.269090
C77   C     C_3   0.237212 0.571472 0.430945 0.056418
C78   C     C_3   0.762788 0.571473 0.569055 0.056418
C79   C     C_3   0.737212 0.071472 0.430945 0.056418
C80   C     C_3   0.262788 0.071473 0.569055 0.056418
C81   C     C_3   0.249422 0.603396 0.568873 0.057208
C82   C     C_3   0.750577 0.603396 0.431127 0.057208
C83   C     C_3   0.749422 0.103396 0.568873 0.057208
C84   C     C_3   0.250578 0.103396 0.431127 0.057208
C85   C     C_3   0.243894 0.469966 0.555258 -0.270885
C86   C     C_3   0.756106 0.469966 0.444742 -0.270885
C87   C     C_3   0.743894 0.969966 0.555258 -0.270885
C88   C     C_3   0.256106 0.969966 0.444742 -0.270885
C89   C     C_R   0.262319 0.641860 0.854999 0.529860
C90   C     C_R   0.737682 0.641857 0.145001 0.529856
C91   C     C_R   0.762319 0.141860 0.854999 0.529860
C92   C     C_R   0.237682 0.141857 0.145001 0.529856
C93   C     C_3   0.312341 0.646760 0.525735 -0.221815
C94   C     C_3   0.687659 0.646760 0.474265 -0.221814
C95   C     C_3   0.812341 0.146760 0.525735 -0.221815
C96   C     C_3   0.187659 0.146760 0.474265 -0.221814
C97   C     C_R   0.273961 0.042724 0.645370 0.540802
C98   C     C_R   0.726038 0.042723 0.354629 0.540802
C99   C     C_R   0.773961 0.542724 0.645370 0.540802
C100  C     C_R   0.226038 0.542724 0.354629 0.540802
C101  C     C_R   0.469364 0.822022 0.645792 0.559092
C102  C     C_R   0.530636 0.822022 0.354208 0.559095
C103  C     C_R   0.969364 0.322022 0.645792 0.559092
C104  C     C_R   0.030635 0.322022 0.354208 0.559094
C105  C     C_R   0.259951 0.638026 0.644588 0.535177
C106  C     C_R   0.740049 0.638026 0.355412 0.535179
C107  C     C_R   0.759951 0.138026 0.644588 0.535177
C108  C     C_R   0.240049 0.138026 0.355412 0.535179
C109  C     C_3   0.479954 0.916312 0.035624 -0.108270
C110  C     C_3   0.520077 0.916300 0.964367 -0.108273
C111  C     C_3   0.979954 0.416312 0.035624 -0.108269
C112  C     C_3   0.020077 0.416300 0.964367 -0.108273
C113  C     C_3   0.431986 0.817926 0.006408 -0.159858
C114  C     C_3   0.568033 0.817898 0.993588 -0.159858
C115  C     C_3   0.931985 0.317926 0.006408 -0.159858
C116  C     C_3   0.068033 0.317898 0.993588 -0.159858
C117  C     C_3   0.472051 0.819597 0.936001 0.057133
C118  C     C_3   0.527967 0.819594 0.063994 0.057122
C119  C     C_3   0.972051 0.319597 0.936001 0.057133
C120  C     C_3   0.027967 0.319595 0.063994 0.057122
Cr1   Cr    Cr6+3 0.229620 0.836040 0.749110 1.019330
Cr2   Cr    Cr6+3 0.770380 0.836040 0.250890 1.019330
Cr3   Cr    Cr6+3 0.729620 0.336040 0.749110 1.019330
Cr4   Cr    Cr6+3 0.270380 0.336040 0.250890 1.019330
Cr5   Cr    Cr6+3 0.387630 0.990680 0.750730 1.008921
Cr6   Cr    Cr6+3 0.612370 0.990680 0.249270 1.008918
Cr7   Cr    Cr6+3 0.887630 0.490680 0.750730 1.008921
Cr8   Cr    Cr6+3 0.112370 0.490680 0.249270 1.008918
Cr9   Cr    Cr6+3 0.386020 0.676590 0.749210 1.032488
Cr10  Cr    Cr6+3 0.613980 0.676590 0.250790 1.032486
Cr11  Cr    Cr6+3 0.886020 0.176590 0.749210 1.032488
Cr12  Cr    Cr6+3 0.113980 0.176590 0.250790 1.032486
H1    H     H_    0.377538 0.804577 0.017353 0.092284
H2    H     H_    0.622484 0.804531 0.982658 0.092279
H3    H     H_    0.877538 0.304577 0.017353 0.092284
H4    H     H_    0.122484 0.304531 0.982658 0.092279
H5    H     H_    0.195945 0.752921 0.081138 0.128251
H6    H     H_    0.804058 0.752914 0.918866 0.128253
H7    H     H_    0.695945 0.252921 0.081138 0.128251
H8    H     H_    0.304058 0.252914 0.918866 0.128253
H9    H     H_    0.287389 0.747059 0.081433 0.105503
H10   H     H_    0.712614 0.747052 0.918558 0.105500
H11   H     H_    0.787389 0.247059 0.081433 0.105503
H12   H     H_    0.212614 0.247052 0.918558 0.105500
H13   H     H_    0.273848 0.796182 0.958472 0.108771
H14   H     H_    0.726134 0.796166 0.041522 0.108757
H15   H     H_    0.773848 0.296182 0.958472 0.108771
H16   H     H_    0.226134 0.296166 0.041522 0.108757
H17   H     H_    0.186103 0.752516 0.960166 0.132546
H18   H     H_    0.813885 0.752530 0.039837 0.132551
H19   H     H_    0.686103 0.252516 0.960166 0.132546
H20   H     H_    0.313885 0.252530 0.039837 0.132551
H21   H     H_    0.633550 0.080248 0.033943 0.137446
H22   H     H_    0.366453 0.080244 0.966054 0.137451
H23   H     H_    0.133550 0.580248 0.033943 0.137446
H24   H     H_    0.866453 0.580244 0.966054 0.137451
H25   H     H_    0.149019 0.554517 0.914587 0.126826
H26   H     H_    0.850986 0.554539 0.085411 0.126838
H27   H     H_    0.649019 0.054517 0.914587 0.126826
H28   H     H_    0.350986 0.054539 0.085411 0.126837
H29   H     H_    0.562887 0.667830 0.462919 0.157116
H30   H     H_    0.437113 0.667830 0.537081 0.157115
H31   H     H_    0.062887 0.167830 0.462919 0.157116
H32   H     H_    0.937113 0.167830 0.537081 0.157116
H33   H     H_    0.614804 0.891821 0.452788 0.114504
H34   H     H_    0.385196 0.891822 0.547211 0.114504
H35   H     H_    0.114804 0.391821 0.452788 0.114504
H36   H     H_    0.885196 0.391822 0.547211 0.114504
H37   H     H_    0.600282 0.812239 0.572040 0.132554
H38   H     H_    0.399718 0.812239 0.427960 0.132554
H39   H     H_    0.100282 0.312239 0.572040 0.132554
H40   H     H_    0.899718 0.312239 0.427960 0.132554
H41   H     H_    0.464876 0.997407 0.065338 0.115414
H42   H     H_    0.535165 0.997385 0.934649 0.115402
H43   H     H_    0.964876 0.497407 0.065338 0.115414
H44   H     H_    0.035166 0.497385 0.934649 0.115402
H45   H     H_    0.433073 0.959249 0.414544 0.118654
H46   H     H_    0.566927 0.959248 0.585456 0.118653
H47   H     H_    0.933073 0.459249 0.414544 0.118654
H48   H     H_    0.066928 0.459248 0.585456 0.118653
H49   H     H_    0.452647 0.992530 0.534876 0.135182
H50   H     H_    0.547354 0.992529 0.465124 0.135183
H51   H     H_    0.952647 0.492530 0.534876 0.135182
H52   H     H_    0.047354 0.492529 0.465124 0.135183
H53   H     H_    0.126690 0.601121 0.447046 0.142032
H54   H     H_    0.873310 0.601120 0.552953 0.142032
H55   H     H_    0.626690 0.101121 0.447046 0.142032
H56   H     H_    0.373310 0.101120 0.552953 0.142032
H57   H     H_    0.171762 0.731275 0.434457 0.129398
H58   H     H_    0.828239 0.731275 0.565543 0.129399
H59   H     H_    0.671762 0.231275 0.434457 0.129398
H60   H     H_    0.328239 0.231274 0.565543 0.129399
H61   H     H_    0.176045 0.752205 0.552029 0.151849
H62   H     H_    0.823955 0.752205 0.447971 0.151850
H63   H     H_    0.676045 0.252205 0.552029 0.151849
H64   H     H_    0.323955 0.252205 0.447971 0.151850
H65   H     H_    0.136654 0.615515 0.566249 0.124913
H66   H     H_    0.863346 0.615516 0.433751 0.124914
H67   H     H_    0.636654 0.115515 0.566249 0.124913
H68   H     H_    0.363346 0.115516 0.433751 0.124914
H69   H     H_    0.720393 0.880083 0.452916 0.111864
H70   H     H_    0.279607 0.880083 0.547085 0.111865
H71   H     H_    0.220393 0.380083 0.452916 0.111864
H72   H     H_    0.779607 0.380083 0.547085 0.111865
H73   H     H_    0.694402 0.936362 0.574907 0.111866
H74   H     H_    0.305597 0.936363 0.425094 0.111866
H75   H     H_    0.194402 0.436363 0.574907 0.111866
H76   H     H_    0.805597 0.436363 0.425094 0.111866
H77   H     H_    0.341590 0.621905 0.413323 0.165203
H78   H     H_    0.658410 0.621905 0.586677 0.165202
H79   H     H_    0.841590 0.121905 0.413323 0.165203
H80   H     H_    0.158410 0.121905 0.586677 0.165202
H81   H     H_    0.287313 0.743248 0.426931 0.108385
H82   H     H_    0.712687 0.743248 0.573068 0.108385
H83   H     H_    0.787313 0.243248 0.426931 0.108385
H84   H     H_    0.212687 0.243248 0.573068 0.108385
H85   H     H_    0.534806 0.639973 0.935535 0.125828
H86   H     H_    0.465187 0.639997 0.064469 0.125832
H87   H     H_    0.034806 0.139973 0.935535 0.125828
H88   H     H_    0.965187 0.139997 0.064469 0.125832
H89   H     H_    0.334161 0.728362 0.546476 0.102258
H90   H     H_    0.665839 0.728361 0.453523 0.102258
H91   H     H_    0.834161 0.228362 0.546476 0.102258
H92   H     H_    0.165839 0.228361 0.453523 0.102258
H93   H     H_    0.351168 0.576249 0.534121 0.160451
H94   H     H_    0.648831 0.576248 0.465879 0.160450
H95   H     H_    0.851168 0.076249 0.534121 0.160451
H96   H     H_    0.148831 0.076248 0.465879 0.160450
H97   H     H_    0.304031 0.428754 0.462840 0.147834
H98   H     H_    0.695969 0.428754 0.537160 0.147835
H99   H     H_    0.804031 0.928754 0.462840 0.147834
H100  H     H_    0.195969 0.928754 0.537160 0.147835
H101  H     H_    0.285318 0.421284 0.583864 0.121354
H102  H     H_    0.714681 0.421284 0.416136 0.121354
H103  H     H_    0.785318 0.921284 0.583864 0.121354
H104  H     H_    0.214681 0.921284 0.416136 0.121354
H105  H     H_    0.317737 0.434227 0.055755 0.132218
H106  H     H_    0.682264 0.434219 0.944242 0.132217
H107  H     H_    0.817737 0.934227 0.055755 0.132218
H108  H     H_    0.182264 0.934218 0.944242 0.132217
H109  H     H_    0.352917 0.573396 0.075062 0.113525
H110  H     H_    0.647083 0.573390 0.924942 0.113530
H111  H     H_    0.852917 0.073396 0.075062 0.113525
H112  H     H_    0.147084 0.073390 0.924942 0.113530
H113  H     H_    0.365289 0.612059 0.955961 0.135075
H114  H     H_    0.634709 0.612028 0.044046 0.135079
H115  H     H_    0.865289 0.112059 0.955961 0.135075
H116  H     H_    0.134709 0.112028 0.044046 0.135079
H117  H     H_    0.332159 0.467450 0.935935 0.118888
H118  H     H_    0.667853 0.467426 0.064066 0.118883
H119  H     H_    0.832159 0.967450 0.935935 0.118888
H120  H     H_    0.167853 0.967426 0.064066 0.118883
H121  H     H_    0.664150 0.938659 0.046658 0.098373
H122  H     H_    0.335848 0.938654 0.953346 0.098369
H123  H     H_    0.164150 0.438659 0.046658 0.098373
H124  H     H_    0.835848 0.438654 0.953346 0.098369
H125  H     H_    0.708279 0.935630 0.925548 0.111838
H126  H     H_    0.291733 0.935638 0.074460 0.111829
H127  H     H_    0.208279 0.435630 0.925548 0.111838
H128  H     H_    0.791733 0.435638 0.074460 0.111829
O1    O     O_R   0.214130 0.708570 0.829890 -0.526108
O2    O     O_R   0.785870 0.708570 0.170110 -0.526107
O3    O     O_R   0.714130 0.208570 0.829890 -0.526108
O4    O     O_R   0.285870 0.208570 0.170110 -0.526107
O5    O     O_R   0.446360 0.919990 0.675230 -0.509582
O6    O     O_R   0.553640 0.919990 0.324770 -0.509581
O7    O     O_R   0.946360 0.419990 0.675230 -0.509582
O8    O     O_R   0.053640 0.419990 0.324770 -0.509581
O9    O     O_R   0.457170 0.717300 0.668380 -0.479899
O10   O     O_R   0.542830 0.717300 0.331620 -0.479899
O11   O     O_R   0.957170 0.217300 0.668380 -0.479899
O12   O     O_R   0.042830 0.217300 0.331620 -0.479899
O13   O     O_R   0.320870 0.624890 0.673130 -0.500528
O14   O     O_R   0.679130 0.624890 0.326870 -0.500528
O15   O     O_R   0.820870 0.124890 0.673130 -0.500528
O16   O     O_R   0.179130 0.124890 0.326870 -0.500528
O17   O     O_3   0.334430 0.834430 0.749680 -0.296531
O18   O     O_3   0.665570 0.834430 0.250320 -0.296540
O19   O     O_3   0.834430 0.334430 0.749680 -0.296531
O20   O     O_3   0.165570 0.334430 0.250320 -0.296540
O21   O     O_R   0.236050 0.959150 0.825270 -0.510216
O22   O     O_R   0.763950 0.959150 0.174730 -0.510214
O23   O     O_R   0.736050 0.459150 0.825270 -0.510216
O24   O     O_R   0.263950 0.459150 0.174730 -0.510214
O25   O     O_R   0.332100 0.076650 0.832310 -0.531703
O26   O     O_R   0.667900 0.076650 0.167690 -0.531706
O27   O     O_R   0.832100 0.576650 0.832310 -0.531703
O28   O     O_R   0.167900 0.576650 0.167690 -0.531706
O29   O     O_R   0.446500 0.918620 0.826240 -0.503945
O30   O     O_R   0.553500 0.918620 0.173760 -0.503943
O31   O     O_R   0.946500 0.418620 0.826240 -0.503945
O32   O     O_R   0.053500 0.418620 0.173760 -0.503943
O33   O     O_R   0.457310 0.715830 0.831280 -0.515635
O34   O     O_R   0.542690 0.715830 0.168720 -0.515631
O35   O     O_R   0.957310 0.215830 0.831280 -0.515635
O36   O     O_R   0.042690 0.215830 0.168720 -0.515631
O37   O     O_R   0.321000 0.623520 0.824130 -0.519726
O38   O     O_R   0.679000 0.623520 0.175870 -0.519733
O39   O     O_R   0.821000 0.123520 0.824130 -0.519726
O40   O     O_R   0.179000 0.123520 0.175870 -0.519733
O41   O     O_R   0.213990 0.710040 0.667000 -0.525055
O42   O     O_R   0.786010 0.710040 0.333000 -0.525054
O43   O     O_R   0.713990 0.210040 0.667000 -0.525055
O44   O     O_R   0.286010 0.210040 0.333000 -0.525054
O45   O     O_R   0.235920 0.960520 0.674260 -0.494034
O46   O     O_R   0.764080 0.960520 0.325740 -0.494034
O47   O     O_R   0.735920 0.460520 0.674260 -0.494034
O48   O     O_R   0.264080 0.460520 0.325740 -0.494034
O49   O     O_R   0.331960 0.078120 0.669410 -0.530686
O50   O     O_R   0.668040 0.078120 0.330590 -0.530686
O51   O     O_R   0.831960 0.578120 0.669410 -0.530686
O52   O     O_R   0.168040 0.578120 0.330590 -0.530686
I1    I     I_    0.468603 0.535953 0.406405 -0.427452
I2    I     I_    0.531397 0.535953 0.593596 -0.427452
I3    I     I_    0.968603 0.035953 0.406405 -0.427452
I4    I     I_    0.031397 0.035953 0.593596 -0.427453

loop_
_geom_bond_atom_site_label_1
_geom_bond_atom_site_label_2
_ccdc_geom_bond_type
C82   C94   S    
C55   C59   S    
C35   H125  S    
C83   C87   S    
C73   C93   S    
C47   O31   A    
C42   C58   S    
C29   C89   S    
C16   H120  S    
C75   C95   S    
C48   C120  S    
C24   H8    S    
C57   C102  S    
Cr6   O18   S    
Cr7   O7    S    
C85   H101  S    
C59   C104  S    
C63   H55   S    
Cr1   O17   S    
C5    C6    S    
Cr10  O10   S    
C109  H41   S    
Cr4   O4    S    
Cr12  O16   S    
C29   C33   S    
C87   H103  S    
C30   C38   S    
C77   C100  S    
C9    C13   S    
C87   H73   S    
C11   C15   S    
C5    H85   S    
C12   C16   S    
C98   O50   A    
C99   O47   A    
C21   H5    S    
C60   C103  S    
C107  O15   A    
Cr4   O24   S    
C83   C107  S    
C113  H1    S    
C74   H82   S    
C61   H57   S    
C54   H37   S    
C23   H11   S    
C44   I4    S    
C66   H62   S    
C109  C118  S    
C16   H116  S    
C70   H72   S    
Cr5   O25   S    
C50   C53   S    
C89   O37   A    
C7    C119  S    
Cr8   O28   S    
C62   H58   S    
C62   C66   S    
Cr2   O2    S    
C20   C28   S    
C18   H124  S    
Cr12  O36   S    
C43   C44   S    
C66   C82   S    
Cr9   O33   S    
C58   C101  S    
C105  O41   A    
C92   O4    A    
C107  O43   A    
C53   H38   S    
C116  H4    S    
C108  O44   A    
C56   H39   S    
C19   H21   S    
C89   O1    A    
Cr5   O49   S    
C17   H23   S    
C55   H40   S    
C91   O3    A    
Cr1   O45   S    
Cr5   O5    S    
Cr2   O42   S    
C3    C26   S    
C84   C88   S    
C31   C91   S    
C53   H45   S    
Cr12  O12   S    
C13   H117  S    
Cr10  O34   S    
C17   C25   S    
C19   C35   S    
C76   C96   S    
C1    O21   A    
C32   C92   S    
C75   H83   S    
Cr3   O19   S    
C95   H95   S    
C41   C57   S    
C61   C65   S    
C12   H108  S    
C78   C99   S    
C45   O29   A    
C75   C79   S    
Cr5   O29   S    
C22   C38   S    
C67   C83   S    
C80   C97   S    
C11   H111  S    
C69   C77   S    
C111  C112  S    
C9    H109  S    
C71   C79   S    
C4    C25   S    
Cr4   O20   S    
C7    C8    S    
Cr10  O38   S    
Cr4   O44   S    
C96   H96   S    
C73   H77   S    
C24   H12   S    
C100  O52   A    
C39   H19   S    
C49   C57   S    
C40   H20   S    
Cr11  O11   S    
Cr9   O37   S    
C38   H14   S    
C52   C60   S    
C19   H121  S    
C61   C77   S    
C12   H112  S    
C11   C27   S    
C93   H93   S    
C36   H126  S    
C47   O35   A    
C110  C114  S    
C48   O36   A    
C43   C59   S    
C62   H54   S    
C76   H80   S    
C41   I1    S    
C6    H86   S    
C88   H74   S    
C22   H10   S    
Cr1   O21   S    
Cr2   O18   S    
C110  H42   S    
Cr12  O20   S    
C81   C105  S    
C30   C34   S    
C10   C14   S    
C101  O9    A    
C95   H91   S    
C116  C120  S    
C103  O11   A    
C7    C116  S    
C69   H97   S    
C33   H127  S    
C61   H53   S    
C114  H2    S    
C34   H128  S    
C66   H66   S    
C64   H56   S    
C113  C117  S    
C112  H44   S    
C115  C119  S    
Cr6   O26   S    
C9    H105  S    
Cr4   O48   S    
C112  C116  S    
C69   C85   S    
C85   H75   S    
C72   H70   S    
C56   H48   S    
C45   C117  S    
C21   C25   S    
C73   C77   S    
Cr12  O40   S    
C55   H47   S    
C62   C78   S    
C76   C80   S    
C32   C36   S    
C15   C31   S    
C16   C32   S    
C97   O45   A    
C105  O13   A    
C106  O42   A    
C72   C80   S    
C115  H3    S    
C4    O24   A    
C103  O7    A    
C82   C106  S    
C90   O2    A    
Cr6   O50   S    
Cr8   O32   S    
C69   H71   S    
C94   H90   S    
Cr6   O6    S    
C46   O34   A    
Cr7   O19   S    
Cr8   O20   S    
C81   C85   S    
C13   H113  S    
C41   H29   S    
C41   C42   S    
C74   C94   S    
Cr9   O13   S    
C18   C26   S    
C30   C90   S    
Cr11  O39   S    
C1    O25   A    
C9    C25   S    
C2    O22   A    
C3    O27   A    
C75   H79   S    
C86   H102  S    
C12   C28   S    
C13   C29   S    
C67   H67   S    
C98   O46   A    
C46   C118  S    
C22   C26   S    
C64   H60   S    
Cr6   O30   S    
C51   H35   S    
C106  O14   A    
C50   H34   S    
C1    C28   S    
C2    C27   S    
Cr10  O14   S    
C72   H100  S    
Cr11  O19   S    
C52   C55   S    
C64   C80   S    
C73   H81   S    
C17   C33   S    
C110  C117  S    
C38   H18   S    
C33   H25   S    
C65   H61   S    
C40   H16   S    
C68   C84   S    
C24   C28   S    
C51   H52   S    
C86   H76   S    
C53   C57   S    
C82   C86   S    
C56   C60   S    
C50   C58   S    
C104  O12   A    
C49   H33   S    
C48   O32   A    
Cr7   O27   S    
C76   H84   S    
C65   C81   S    
C91   O39   A    
C42   H30   S    
Cr8   O8    S    
C68   H64   S    
C20   H122  S    
Cr2   O22   S    
C71   C87   S    
C92   O40   A    
C31   C35   S    
C64   C68   S    
C101  O5    A    
C102  O10   A    
C37   H17   S    
C108  O16   A    
C112  C119  S    
C14   H118  S    
C22   H6    S    
C43   I3    S    
C21   H9    S    
C109  C110  S    
Cr5   O17   S    
C44   C60   S    
C63   H59   S    
C84   C108  S    
C94   H94   S    
C20   C36   S    
C54   H46   S    
C21   C37   S    
C74   C78   S    
C29   C37   S    
C44   H32   S    
C43   H31   S    
C97   O49   A    
C5    C114  S    
C70   C78   S    
C79   C98   S    
C99   O51   A    
C10   H110  S    
C52   H51   S    
C63   C79   S    
C4    O28   A    
C20   H22   S    
C74   H78   S    
C111  H43   S    
C23   H7    S    
C46   O30   A    
C11   H107  S    
C49   C54   S    
Cr3   O47   S    
C51   C56   S    
C84   C96   S    
C8    C115  S    
Cr1   O1    S    
Cr3   O3    S    
C96   H92   S    
Cr9   O17   S    
C23   C27   S    
C19   C27   S    
C109  C113  S    
C2    O26   A    
C7    H87   S    
C10   C26   S    
C47   C119  S    
C14   C30   S    
C67   H63   S    
C72   C88   S    
C88   H104  S    
C63   C67   S    
Cr7   O31   S    
Cr1   O41   S    
C5    C117  S    
C111  C120  S    
Cr10  O18   S    
Cr3   O43   S    
C70   H98   S    
C6    C113  S    
Cr11  O15   S    
C8    H88   S    
C81   C93   S    
C83   C95   S    
Cr11  O35   S    
C18   C34   S    
C114  C118  S    
C65   H65   S    
C34   H26   S    
C10   H106  S    
C50   H49   S    
C51   C59   S    
C70   C86   S    
C8    C120  S    
Cr2   O46   S    
C54   C58   S    
C71   H69   S    
C17   H123  S    
C45   O33   A    
C104  O8    A    
C18   H24   S    
C15   H115  S    
C111  C115  S    
C42   I2    S    
Cr7   O51   S    
Cr8   O52   S    
C68   H68   S    
C71   H99   S    
Cr3   O23   S    
C52   H36   S    
C90   O38   A    
C15   H119  S    
C23   C39   S    
C3    O23   A    
C24   C40   S    
C31   C39   S    
C32   C40   S    
C35   H27   S    
Cr9   O9    S    
C36   H28   S    
C49   H50   S    
C100  O48   A    
C102  O6    A    
C39   H15   S    
C93   H89   S    
C37   H13   S    
C6    C118  S    
C14   H114  S    
