data_mof_unit_30254.cif
_audit_creation_date              2012-12-11T14:10:54-0500
_audit_creation_method            fapswitch 2.2
_symmetry_space_group_name_H-M    P1
_symmetry_Int_Tables_number       1
_space_group_crystal_system       triclinic
_cell_length_a                    19.709483
_cell_length_b                    17.305641
_cell_length_c                    15.430087
_cell_angle_alpha                 90.043833
_cell_angle_beta                  52.658258
_cell_angle_gamma                 89.824671
_cell_volume                      4184.18998824

loop_
_atom_site_label
_atom_site_type_symbol
_atom_type_description
_atom_site_fract_x
_atom_site_fract_y
_atom_site_fract_z
_atom_type_partial_charge
C1    C     C_R   0.339997 0.175795 0.047167 -0.063453
C2    C     C_3   0.685546 0.747551 0.444060 0.573252
C3    C     C_2   0.279475 0.883473 0.566356 1.130969
C4    C     C_2   0.645833 0.567653 0.572375 1.176503
C5    C     C_2   0.315845 0.429298 0.427428 1.116968
C6    C     C_2   0.112472 0.664438 0.479521 1.113016
C7    C     C_2   0.730025 0.378383 0.575202 1.145305
C8    C     C_3   0.772671 0.202264 0.428419 0.477913
C9    C     C_3   0.247141 0.740249 0.541466 0.492131
C10   C     C_3   0.724706 0.696694 0.573820 0.593980
C11   C     C_3   0.250681 0.286452 0.442473 0.584708
C12   C     C_3   0.156675 0.807677 0.486751 0.503691
C13   C     C_3   0.810334 0.250583 0.560022 0.560552
C14   C     C_2   0.282983 0.689987 0.959156 -0.165352
C15   C     C_2   0.717166 0.310047 0.039487 -0.209064
C16   C     C_2   0.808788 0.742723 0.905969 -0.103180
C17   C     C_R   0.660291 0.824518 0.952074 -0.062064
C18   C     C_2   0.191912 0.257528 0.092837 -0.176913
C19   C     C_2   0.694170 0.241579 0.089768 -0.110422
C20   C     C_2   0.302689 0.760032 0.913575 -0.080019
C21   C     C_2   0.215048 0.188769 0.042846 -0.153292
C22   C     C_2   0.785863 0.811697 0.955480 -0.100973
C23   C     C_R   0.351169 0.826188 0.222522 -0.066704
C24   C     C_R   0.652929 0.168824 0.780942 -0.048249
C25   C     C_R   0.608401 0.802538 0.788267 -0.042085
C26   C     C_R   0.383301 0.194363 0.216916 -0.076455
C27   C     C_R   0.885826 0.305246 0.216261 -0.079268
C28   C     C_R   0.626018 0.196303 0.004431 -0.104844
C29   C     C_R   0.100215 0.698374 0.790382 0.001756
C30   C     C_R   0.152498 0.330200 0.780112 -0.108958
C31   C     C_R   0.847878 0.670418 0.218998 -0.081432
C32   C     C_R   0.362692 0.891060 0.900176 -0.102809
C33   C     C_R   0.635723 0.109620 0.101759 -0.097425
C34   C     C_R   0.669957 0.912684 0.049421 -0.080281
C35   C     C_R   0.330276 0.087435 0.950111 -0.047611
C36   C     C_R   0.830918 0.412041 0.948753 -0.072601
C37   C     C_R   0.169590 0.587636 0.050114 -0.089017
C38   C     C_R   0.135086 0.390091 0.102544 -0.093531
C39   C     C_R   0.371816 0.804351 0.998277 -0.097641
C40   C     C_R   0.865116 0.609961 0.897171 -0.125744
C41   C     C_R   0.390634 0.102729 0.313084 -0.108579
C42   C     C_R   0.598704 0.892223 0.692680 -0.125882
C43   C     C_R   0.646165 0.076901 0.684719 -0.058335
C44   C     C_R   0.360235 0.918262 0.317661 -0.033337
C45   C     C_R   0.853932 0.577466 0.314834 -0.063185
C46   C     C_R   0.145011 0.422790 0.684853 -0.026939
C47   C     C_R   0.093064 0.606417 0.695241 -0.080822
C48   C     C_R   0.893760 0.396805 0.311857 -0.123730
C49   C     C_R   0.288340 0.148940 0.021322 0.131410
C50   C     C_R   0.874335 0.696675 0.994865 -0.072690
C51   C     C_R   0.712064 0.851318 0.977817 0.116831
C52   C     C_R   0.654808 0.184652 0.065029 0.156796
C53   C     C_R   0.342294 0.816460 0.938479 0.162487
C54   C     C_R   0.846610 0.685359 0.932944 0.142695
C55   C     C_R   0.153910 0.314835 0.066251 0.156649
C56   C     C_R   0.211144 0.649016 0.978901 0.135207
C57   C     C_R   0.789581 0.350288 0.019107 0.146260
C58   C     C_R   0.313330 0.856594 0.325584 0.168762
C59   C     C_R   0.696998 0.135142 0.678969 0.137848
C60   C     C_R   0.623976 0.817472 0.690866 0.187458
C61   C     C_R   0.126055 0.303470 0.004493 -0.084165
C62   C     C_R   0.359247 0.174758 0.318062 0.126293
C63   C     C_R   0.864419 0.324195 0.316754 0.138084
C64   C     C_R   0.108072 0.682900 0.697201 0.165059
C65   C     C_R   0.195208 0.363940 0.678500 0.156657
C66   C     C_R   0.804109 0.636390 0.319973 0.063381
C67   C     C_3   0.269728 0.198393 0.529002 -0.429705
C68   C     C_3   0.728783 0.795504 0.481814 -0.322042
C69   C     C_3   0.820341 0.154009 0.460460 -0.316225
C70   C     C_3   0.238747 0.827866 0.535667 -0.297666
C71   C     C_3   0.681212 0.647898 0.536192 -0.446186
C72   C     C_R   0.159838 0.675153 0.951985 -0.059717
C73   C     C_3   0.298274 0.346222 0.461722 -0.294500
C74   C     C_3   0.164003 0.719276 0.494114 -0.289407
C75   C     C_3   0.763165 0.299082 0.528028 -0.313516
C76   C     C_3   0.620977 0.716653 0.561202 -0.270632
C77   C     C_3   0.368175 0.285653 0.428826 -0.274357
C78   C     C_3   0.261315 0.727101 0.433074 -0.262105
C79   C     C_3   0.707511 0.229431 0.547193 -0.355425
C80   C     C_3   0.200375 0.258414 0.560813 -0.311408
C81   C     C_3   0.788617 0.728177 0.457726 -0.266115
C82   C     C_3   0.876063 0.225261 0.439849 -0.278663
C83   C     C_R   0.840824 0.323873 0.045963 -0.083630
C84   C     C_3   0.141639 0.819806 0.596587 -0.287263
C85   C     C_3   0.664496 0.764526 0.598553 -0.170287
C86   C     C_3   0.320115 0.226320 0.410168 -0.203673
C87   C     C_3   0.253243 0.815402 0.426322 -0.143365
C88   C     C_3   0.754493 0.180176 0.580205 -0.141266
C89   C     C_3   0.248069 0.318364 0.580322 -0.133614
C90   C     C_3   0.745161 0.679229 0.419606 -0.153684
C91   C     C_3   0.827685 0.272744 0.408739 -0.139897
C92   C     C_3   0.150090 0.732196 0.602975 -0.173443
C93   C     C_2   0.526761 0.709267 0.620050 1.144078
C94   C     C_3   0.317181 0.258126 0.548397 0.538380
C95   C     C_2   0.463201 0.296310 0.350741 1.140294
C96   C     C_2   0.333199 0.677737 0.342800 1.083881
C97   C     C_2   0.614354 0.240775 0.597473 1.237803
C98   C     C_2   0.105412 0.243603 0.635927 1.129377
C99   C     C_2   0.883810 0.737267 0.397682 1.128078
C100  C     C_2   0.971779 0.228321 0.374593 1.167174
C101  C     C_2   0.072010 0.870937 0.685497 1.194363
C102  C     C_2   0.251629 0.115277 0.565270 1.168314
C103  C     C_2   0.755787 0.877804 0.462163 1.154006
C104  C     C_2   0.862682 0.076771 0.420047 1.089391
H1    H     H_    0.330846 0.225805 0.094749 0.134300
H2    H     H_    0.670473 0.219364 0.803206 0.163013
H3    H     H_    0.607020 0.746911 0.820403 0.158286
H4    H     H_    0.384154 0.251280 0.188134 0.150153
H5    H     H_    0.887059 0.248630 0.186523 0.158500
H6    H     H_    0.103304 0.754391 0.818879 0.117917
H7    H     H_    0.169696 0.278104 0.800660 0.165540
H8    H     H_    0.830282 0.721397 0.197132 0.170125
H9    H     H_    0.357936 0.916920 0.840221 0.129491
H10   H     H_    0.640350 0.083672 0.161781 0.148394
H11   H     H_    0.690329 0.946137 0.089072 0.131106
H12   H     H_    0.669690 0.774969 0.903588 0.138054
H13   H     H_    0.310048 0.054069 0.910233 0.120358
H14   H     H_    0.810829 0.445151 0.908443 0.126204
H15   H     H_    0.189805 0.554718 0.090421 0.123264
H16   H     H_    0.139068 0.416026 0.163151 0.136121
H17   H     H_    0.861170 0.583943 0.836577 0.129743
H18   H     H_    0.396797 0.076506 0.371526 0.105024
H19   H     H_    0.592107 0.918924 0.634776 0.129372
H20   H     H_    0.657234 0.043822 0.617948 0.071826
H21   H     H_    0.348610 0.954628 0.381907 0.122598
H22   H     H_    0.841095 0.543682 0.382070 0.150276
H23   H     H_    0.618240 0.250776 0.977273 0.114742
H24   H     H_    0.155886 0.456722 0.618845 0.122801
H25   H     H_    0.088831 0.576268 0.637426 0.111424
H26   H     H_    0.901733 0.423220 0.368461 0.188039
H27   H     H_    0.308124 0.668502 0.000511 0.142101
H28   H     H_    0.693905 0.330594 0.995519 0.167707
H29   H     H_    0.787024 0.722603 0.860194 0.175237
H30   H     H_    0.212823 0.277205 0.139792 0.189992
H31   H     H_    0.715670 0.221781 0.136005 0.190971
H32   H     H_    0.279568 0.780915 0.869619 0.157291
H33   H     H_    0.191948 0.168161 0.998751 0.158160
H34   H     H_    0.378203 0.749970 0.026965 0.099797
H35   H     H_    0.809491 0.832560 0.998862 0.156840
H36   H     H_    0.431458 0.651164 0.635935 0.378764
H37   H     H_    0.561925 0.367932 0.252282 0.338723
H38   H     H_    0.370419 0.587282 0.240789 0.342473
H39   H     H_    0.529097 0.296998 0.589006 0.399563
H40   H     H_    0.009559 0.170010 0.736872 0.347290
H41   H     H_    0.986841 0.806572 0.312614 0.350066
H42   H     H_    0.083678 0.170338 0.290973 0.354392
H43   H     H_    0.023004 0.978582 0.731849 0.345183
H44   H     H_    0.196989 0.093460 0.491717 0.330539
H45   H     H_    0.882000 0.751150 0.022109 0.118559
H46   H     H_    0.773245 0.963654 0.533335 0.296870
H47   H     H_    0.932560 0.994162 0.425414 0.383165
H48   H     H_    0.387731 0.922433 0.537579 0.339305
H49   H     H_    0.677168 0.535172 0.426093 0.310670
H50   H     H_    0.372073 0.528470 0.420436 0.367498
H51   H     H_    0.110334 0.577058 0.394829 0.339642
H52   H     H_    0.754762 0.483207 0.605388 0.369660
H53   H     H_    0.438283 0.145686 0.521853 0.361949
H54   H     H_    0.554575 0.857844 0.393340 0.390353
H55   H     H_    0.679002 0.063346 0.445970 0.357857
H56   H     H_    0.118725 0.249101 0.976696 0.106174
H57   H     H_    0.434280 0.746723 0.497266 0.407996
H58   H     H_    0.857841 0.588402 0.624786 0.393666
H59   H     H_    0.102791 0.382374 0.408116 0.402261
H60   H     H_    0.977996 0.804026 0.508987 0.397612
H61   H     H_    0.933904 0.360149 0.624190 0.400628
H62   H     H_    0.168834 0.723970 0.902742 0.124551
H63   H     H_    0.832184 0.273975 0.093311 0.135633
H64   H     H_    0.331418 0.775904 0.201726 0.112022
N1    N     N_R   0.408680 0.130810 0.995780 -0.054027
N2    N     N_R   0.578590 0.132790 0.846380 -0.049227
N3    N     N_R   0.578590 0.867210 0.846380 -0.066918
N4    N     N_R   0.421410 0.132790 0.153620 -0.062611
N5    N     N_R   0.921410 0.367210 0.153620 -0.062508
N6    N     N_R   0.078590 0.632790 0.846380 -0.057420
N7    N     N_R   0.078590 0.367210 0.846380 -0.062009
N8    N     N_R   0.921410 0.632790 0.153620 -0.063283
N9    N     N_R   0.403840 0.921910 0.935760 -0.057231
N10   N     N_R   0.596160 0.078090 0.064240 -0.058525
N11   N     N_R   0.596160 0.921910 0.064240 -0.051929
N12   N     N_R   0.591320 0.869190 0.004220 -0.056185
N13   N     N_R   0.403840 0.078090 0.935760 -0.047266
N14   N     N_R   0.903840 0.421910 0.935760 -0.050769
N15   N     N_R   0.096160 0.578090 0.064240 -0.049022
N16   N     N_R   0.096160 0.421910 0.064240 -0.054456
N17   N     N_R   0.903840 0.578090 0.935760 -0.056666
N18   N     N_R   0.426250 0.076100 0.213650 -0.051881
N19   N     N_R   0.573750 0.923900 0.786350 -0.056491
N20   N     N_R   0.573750 0.076100 0.786350 -0.028673
N21   N     N_R   0.426250 0.923900 0.213650 -0.058029
N22   N     N_R   0.926250 0.576100 0.213650 -0.043512
N23   N     N_R   0.591320 0.130810 0.004220 -0.059830
N24   N     N_R   0.073750 0.423900 0.786350 -0.049916
N25   N     N_R   0.073750 0.576100 0.786350 -0.053178
N26   N     N_R   0.926250 0.423900 0.213650 -0.058945
N27   N     N_R   0.408680 0.869190 0.995780 -0.055029
N28   N     N_R   0.908680 0.630810 0.995780 -0.061420
N29   N     N_R   0.091320 0.369190 0.004220 -0.054176
N30   N     N_R   0.091320 0.630810 0.004220 -0.059588
N31   N     N_R   0.908680 0.369190 0.995780 -0.056745
N32   N     N_R   0.421410 0.867210 0.153620 -0.055622
Ni1   Ni    Ni4+2 0.500000 0.131570 0.000000 0.247754
Ni2   Ni    Ni4+2 0.500000 0.868430 0.000000 0.245101
Ni3   Ni    Ni4+2 1.000000 0.631570 0.000000 0.240524
Ni4   Ni    Ni4+2 0.000000 0.368430 0.000000 0.236404
Ni5   Ni    Ni4+2 0.488900 1.000000 0.862310 0.269651
Ni6   Ni    Ni4+2 0.511100 1.000000 0.137690 0.250086
Ni7   Ni    Ni4+2 0.988900 0.500000 0.862310 0.257274
Ni8   Ni    Ni4+2 0.011100 0.500000 0.137690 0.261435
O1    O     O_2   0.477396 0.752185 0.696349 -0.653603
O2    O     O_R   0.074169 0.172521 0.688475 -0.777200
O3    O     O_2   0.926698 0.682404 0.388974 -0.588581
O4    O     O_R   0.923141 0.807996 0.350525 -0.773176
O5    O     O_2   0.006903 0.290603 0.357171 -0.613424
O6    O     O_R   0.020417 0.160648 0.332396 -0.756293
O7    O     O_2   0.013914 0.843344 0.773088 -0.677845
O8    O     O_R   0.073288 0.949989 0.666506 -0.673829
O9    O     O_2   0.272817 0.089638 0.619214 -0.551564
O10   O     O_R   0.211416 0.066551 0.536998 -0.706322
O11   O     O_2   0.745587 0.919440 0.407066 -0.559259
O12   O     O_R   0.496076 0.652806 0.587307 -0.721515
O13   O     O_R   0.786414 0.907085 0.516538 -0.754532
O14   O     O_2   0.865584 0.043507 0.348075 -0.552187
O15   O     O_R   0.902369 0.044731 0.462153 -0.706531
O16   O     O_2   0.234956 0.927070 0.643869 -0.574153
O17   O     O_R   0.367979 0.883027 0.508654 -0.804769
O18   O     O_2   0.606236 0.550929 0.668399 -0.528969
O19   O     O_R   0.652257 0.513382 0.500582 -0.712998
O20   O     O_2   0.290224 0.457305 0.379469 -0.553872
O21   O     O_R   0.361428 0.474324 0.451083 -0.695736
O22   O     O_2   0.034581 0.667978 0.542458 -0.625276
O23   O     O_2   0.510472 0.241464 0.328421 -0.610585
O24   O     O_R   0.152505 0.610272 0.395081 -0.715106
O25   O     O_2   0.653724 0.392267 0.629540 -0.563305
O26   O     O_R   0.785708 0.434229 0.563910 -0.762941
O27   O     O_2   0.381702 0.323250 0.641235 -0.241209
O28   O     O_2   0.302624 0.203225 0.723904 -0.289371
O29   O     O_3   0.454236 0.193967 0.539822 -0.438598
O30   O     O_2   0.724505 0.826940 0.268130 -0.291681
O31   O     O_2   0.631044 0.714177 0.325279 -0.247614
O32   O     O_3   0.567916 0.839665 0.442355 -0.531478
O33   O     O_2   0.707310 0.234358 0.321171 -0.243573
O34   O     O_R   0.497247 0.368201 0.302834 -0.762654
O35   O     O_2   0.807850 0.125859 0.250562 -0.267859
O36   O     O_3   0.655183 0.106446 0.429818 -0.466484
O37   O     O_2   0.289358 0.734701 0.678487 -0.364407
O38   O     O_2   0.287129 0.611748 0.602218 -0.263059
O39   O     O_3   0.413883 0.704127 0.475739 -0.417796
O40   O     O_2   0.787614 0.731340 0.682460 -0.312464
O41   O     O_2   0.686376 0.623444 0.753733 -0.303510
O42   O     O_3   0.840299 0.600862 0.578295 -0.494863
O43   O     O_2   0.264985 0.340517 0.267160 -0.322262
O44   O     O_2   0.168929 0.230852 0.365543 -0.296683
O45   O     O_2   0.406911 0.694401 0.303208 -0.577888
O46   O     O_3   0.120129 0.367517 0.454130 -0.466738
O47   O     O_2   0.119796 0.940469 0.432534 -0.198154
O48   O     O_2   0.128356 0.823074 0.337625 -0.330245
O49   O     O_3   0.994570 0.843015 0.539981 -0.463896
O50   O     O_2   0.767912 0.327427 0.739830 -0.341090
O51   O     O_2   0.860972 0.213607 0.682581 -0.261304
O52   O     O_3   0.925672 0.340281 0.570947 -0.451877
O53   O     O_R   0.316456 0.614564 0.302452 -0.722638
O54   O     O_2   0.558287 0.210356 0.683655 -0.632879
O55   O     O_R   0.592850 0.289479 0.545355 -0.666843
O56   O     O_2   0.055762 0.294397 0.651987 -0.587888
S1    S     S_3+6 0.363051 0.245049 0.618084 0.001957
S2    S     S_3+6 0.653614 0.781816 0.364313 -0.022107
S3    S     S_3+6 0.737207 0.167406 0.352156 -0.002260
S4    S     S_3+6 0.309070 0.695890 0.578307 -0.028265
S5    S     S_3+6 0.758564 0.663313 0.652260 -0.059812
S6    S     S_3+6 0.201669 0.305250 0.377461 -0.020391
S7    S     S_3+6 0.100265 0.855575 0.445227 0.009114
S8    S     S_3+6 0.839982 0.282567 0.643567 -0.013551

loop_
_geom_bond_atom_site_label_1
_geom_bond_atom_site_label_2
_ccdc_geom_bond_type
C78   C87   S    
C42   N19   A    
C23   C58   A    
C14   C56   S    
C7    O25   D    
C10   C85   S    
O27   S1    D    
C96   O53   S    
N25   Ni7   S    
C6    O24   S    
C31   C66   A    
C18   C21   D    
C48   N26   A    
C14   C20   D    
H55   O36   S    
N13   Ni5   S    
C12   S7    S    
C21   H33   S    
C29   N6    A    
C103  O11   D    
C58   C87   S    
C27   N5    A    
C21   C49   S    
C32   C53   A    
C66   C90   S    
N27   Ni2   S    
C99   O3    D    
C33   C52   A    
C65   C89   S    
C40   H17   S    
C62   C86   S    
N9    Ni5   S    
C34   C51   A    
C50   C54   A    
C47   H25   S    
N5    Ni4   S    
H44   O10   S    
C68   C81   S    
C43   N20   A    
C46   H24   S    
O35   S3    D    
C96   O45   D    
H57   O39   S    
C2    C68   S    
C71   C76   S    
C76   C93   S    
N23   Ni1   S    
C43   H20   S    
C70   C84   S    
N5    N26   A    
C61   N29   A    
C70   C87   S    
C101  O8    S    
C19   H31   S    
C2    S2    S    
C55   C61   A    
H51   O24   S    
C80   C89   S    
C38   N16   A    
C12   C84   S    
N29   Ni4   S    
O29   S1    S    
N14   Ni7   S    
C4    O19   S    
C104  O14   D    
C89   C94   S    
C2    C90   S    
N17   Ni7   S    
C59   C88   S    
N2    Ni1   S    
C69   C82   S    
C102  O9    D    
O28   S1    D    
N30   Ni3   S    
C37   C56   A    
C50   N28   A    
C19   C52   S    
H36   O12   S    
O43   S6    D    
O40   S5    D    
C13   C75   S    
C44   C58   A    
C56   C72   A    
C10   S5    S    
C35   C49   A    
C8    C79   S    
C31   H8    S    
C68   C103  S    
O49   S7    S    
C25   C60   A    
C4    O18   D    
C32   H9    S    
O50   S8    D    
N14   N31   A    
C3    O17   S    
C104  O15   S    
C28   H23   S    
C75   C91   S    
C99   O4    S    
H41   O4    S    
C38   H16   S    
C10   C71   S    
C25   N3    A    
N21   Ni6   S    
C29   C64   A    
C26   N4    A    
H60   O49   S    
N15   Ni8   S    
C15   C57   S    
N8    Ni3   S    
C48   H26   S    
C34   N11   A    
C82   C100  S    
C41   C62   A    
C8    S3    S    
O38   S4    D    
C16   H29   S    
C9    C92   S    
H40   O2    S    
C79   C88   S    
O48   S7    D    
H46   O13   S    
C47   N25   A    
C42   H19   S    
C6    C74   S    
C14   H27   S    
C100  O5    D    
C9    S4    S    
C39   H34   S    
C44   H21   S    
N15   N30   A    
C38   C55   A    
O41   S5    D    
C29   H6    S    
O30   S2    D    
C3    C70   S    
C9    C70   S    
N32   Ni2   S    
C46   C65   A    
H43   O8    S    
C11   C73   S    
C61   H56   S    
N4    N18   A    
N7    N24   A    
N18   Ni6   S    
C48   C63   A    
C7    C75   S    
C40   N17   A    
C81   C99   S    
C34   H11   S    
C39   N27   A    
C23   N32   A    
C77   C95   S    
C3    O16   D    
C82   C91   S    
C23   H64   S    
O31   S2    D    
N26   Ni8   S    
C41   H18   S    
O52   S8    S    
H59   O46   S    
C15   C19   D    
C74   C92   S    
C95   O23   D    
O32   S2    S    
C44   N21   A    
C67   C94   S    
C98   O2    S    
O42   S5    S    
O46   S6    S    
N8    N22   A    
C37   H15   S    
C24   H2    S    
C45   H22   S    
C100  O6    S    
N19   Ni5   S    
C17   H12   S    
O33   S3    D    
C33   H10   S    
C84   C101  S    
C22   H35   S    
C8    C91   S    
C20   H32   S    
N28   Ni3   S    
C57   C83   A    
N1    N13   A    
H42   O6    S    
C69   C88   S    
C27   C63   A    
C18   C55   S    
C81   C90   S    
C97   O54   D    
N21   N32   A    
H53   O29   S    
H38   O53   S    
C72   N30   A    
C77   C86   S    
C36   C57   A    
C40   C54   A    
C93   O12   S    
H50   O21   S    
C93   O1    D    
N31   Ni4   S    
O47   S7    D    
N24   Ni7   S    
C5    O21   S    
C32   N9    A    
C13   S8    S    
O37   S4    D    
C36   N14   A    
O39   S4    S    
N17   N28   A    
C83   N31   A    
C31   N8    A    
C28   N23   A    
C42   C60   A    
C30   N7    A    
C47   C64   A    
C2    C76   S    
C17   N12   A    
N11   Ni6   S    
C69   C104  S    
N22   Ni8   S    
C94   S1    S    
C67   C86   S    
C16   C22   D    
N9    N27   A    
C12   C87   S    
C80   C98   S    
C33   N10   A    
C97   O55   S    
C72   H62   S    
H49   O19   S    
C67   C80   S    
C46   N24   A    
C20   C53   S    
N7    Ni4   S    
H52   O26   S    
C60   C85   S    
C5    O20   D    
C79   C97   S    
C73   C77   S    
C43   C59   A    
C17   C51   A    
C35   N13   A    
C84   C92   S    
C10   C81   S    
N12   Ni2   S    
H37   O34   S    
N16   Ni8   S    
H61   O52   S    
N3    N19   A    
C30   H7    S    
O36   S3    S    
C24   N2    A    
N3    Ni2   S    
C6    O22   D    
C26   C62   A    
C73   C89   S    
C13   C82   S    
C8    C69   S    
C12   C74   S    
C103  O13   S    
N10   N23   A    
C28   C52   A    
C50   H45   S    
O44   S6    D    
C78   C96   S    
C39   C53   A    
C71   C90   S    
C1    C49   A    
N20   Ni5   S    
C101  O7    D    
C24   C59   A    
N10   Ni6   S    
C13   C88   S    
C1    N1    A    
N6    Ni3   S    
C11   S6    S    
H47   O15   S    
C41   N18   A    
C18   H30   S    
C68   C85   S    
C9    C78   S    
C4    C71   S    
C5    C73   S    
N4    Ni1   S    
C83   H63   S    
C16   C54   S    
C7    O26   S    
C30   C65   A    
C35   H13   S    
C11   C80   S    
C102  O10   S    
C95   O34   S    
N1    Ni1   S    
H48   O17   S    
C98   O56   D    
C45   N22   A    
H39   O55   S    
C63   C91   S    
C27   H5    S    
N6    N25   A    
H58   O42   S    
N16   N29   A    
C74   C78   S    
N2    N20   A    
C45   C66   A    
N11   N12   A    
C64   C92   S    
C77   C94   S    
C15   H28   S    
C36   H14   S    
C11   C86   S    
H54   O32   S    
C75   C79   S    
C76   C85   S    
C25   H3    S    
C26   H4    S    
O51   S8    D    
C67   C102  S    
C1    H1    S    
C22   C51   S    
C37   N15   A    
