data_mof_unit_68534.cif
_audit_creation_date              2012-12-11T14:03:36-0500
_audit_creation_method            fapswitch 2.2
_symmetry_space_group_name_H-M    P1
_symmetry_Int_Tables_number       1
_space_group_crystal_system       triclinic
_cell_length_a                    7.053947
_cell_length_b                    11.218559
_cell_length_c                    18.932955
_cell_angle_alpha                 90.363907
_cell_angle_beta                  91.988578
_cell_angle_gamma                 89.95015
_cell_volume                      1497.32885283

loop_
_atom_site_label
_atom_site_type_symbol
_atom_type_description
_atom_site_fract_x
_atom_site_fract_y
_atom_site_fract_z
_atom_type_partial_charge
O1    O     O_R   0.330540 0.606360 0.598870 -0.550219
O2    O     O_R   0.669460 0.106360 0.401130 -0.559562
O3    O     O_R   0.026770 0.620470 0.750430 -0.535973
O4    O     O_R   0.973230 0.120470 0.249570 -0.519792
O5    O     O_R   0.856460 0.393640 0.750930 -0.530926
O6    O     O_R   0.143540 0.893640 0.249070 -0.533976
C1    C     C_R   0.198242 0.648240 0.773896 0.869387
C2    C     C_R   0.802304 0.141441 0.222980 0.813061
O7    O     O_R   0.000920 0.620350 0.599420 -0.548002
O8    O     O_R   0.999080 0.120350 0.400580 -0.536200
O9    O     O_R   0.830430 0.393520 0.598850 -0.509144
O10   O     O_R   0.169570 0.893520 0.401150 -0.505293
C3    C     C_R   0.166392 0.642352 0.572225 0.703436
C4    C     C_R   0.832313 0.150355 0.423730 0.701984
O11   O     O_R   0.356570 0.606480 0.750960 -0.532158
O12   O     O_R   0.643430 0.106480 0.249040 -0.561044
O13   O     O_3   0.176990 0.425580 0.674890 -0.393220
O14   O     O_3   0.823010 0.925580 0.325110 -0.382600
V1    V     V_3+5 0.902170 0.513810 0.674910 1.488593
V2    V     V_3+5 0.097830 0.013810 0.325090 1.513087
O15   O     O_R   0.500800 0.379530 0.599380 -0.570425
O16   O     O_R   0.499200 0.879530 0.400620 -0.566149
C5    C     C_R   0.667539 0.352668 0.574602 0.837731
C6    C     C_R   0.332455 0.852620 0.425387 0.840351
O17   O     O_R   0.526650 0.379650 0.750390 -0.554372
O18   O     O_R   0.473350 0.879650 0.249610 -0.558216
C7    C     C_R   0.696407 0.358198 0.777017 0.811122
C8    C     C_R   0.302896 0.855709 0.224073 0.771193
V3    V     V_3+5 0.402160 0.486190 0.674900 1.435298
V4    V     V_3+5 0.597840 0.986190 0.325100 1.409322
O19   O     O_3   0.677210 0.574420 0.674910 -0.383707
O20   O     O_3   0.322790 0.074420 0.325090 -0.383402
C9    C     C_R   0.682822 0.072767 0.877050 -0.163173
C10   C     C_R   0.270682 0.573894 0.118505 -0.179584
H1    H     H_    0.655334 0.980978 0.863463 0.200048
H2    H     H_    0.281755 0.480407 0.130583 0.195278
C11   C     C_R   0.706892 0.273985 0.836223 -0.221378
C12   C     C_R   0.286016 0.774994 0.163038 -0.226240
C13   C     C_R   0.767341 0.347422 0.181190 -0.010966
C14   C     C_R   0.225060 0.855390 0.818121 -0.022257
C15   C     C_R   0.698968 0.424808 0.129710 -0.157204
C16   C     C_R   0.233580 0.935897 0.873973 -0.158450
C17   C     C_R   0.659852 0.385832 0.061467 -0.061460
C18   C     C_R   0.237926 0.897221 0.943085 -0.025320
C19   C     C_R   0.697235 0.267746 0.038573 0.113619
C20   C     C_R   0.247421 0.774883 0.961371 0.083707
C21   C     C_R   0.749088 0.182850 0.092015 -0.094104
C22   C     C_R   0.228182 0.689405 0.905102 -0.062770
C23   C     C_R   0.695006 0.233162 0.964931 0.044963
C24   C     C_R   0.259574 0.737003 0.033784 0.043072
C25   C     C_R   0.704138 0.109328 0.948236 -0.098834
C26   C     C_R   0.251713 0.612750 0.047939 -0.085469
C27   C     C_R   0.735969 0.022660 0.001754 -0.010073
C28   C     C_R   0.225212 0.527423 0.992359 -0.062047
C29   C     C_R   0.773686 0.060389 0.072681 0.338711
C30   C     C_R   0.207545 0.565368 0.920765 0.337223
C31   C     C_R   0.686884 0.316136 0.906778 0.393165
C32   C     C_R   0.289727 0.818964 0.092192 0.423062
C33   C     C_R   0.701854 0.151045 0.821345 -0.087976
C34   C     C_R   0.274045 0.651726 0.175725 -0.102021
C35   C     C_R   0.783053 0.224677 0.163822 -0.144054
C36   C     C_R   0.215715 0.731842 0.833380 -0.145141
H3    H     H_    0.596822 0.453313 0.029421 0.182843
H4    H     H_    0.210751 0.966909 0.980164 0.170726
H5    H     H_    0.675984 0.518131 0.141896 0.160609
H6    H     H_    0.229320 0.031092 0.864569 0.158333
C37   C     C_2   0.827013 0.247613 0.477078 0.285357
C38   C     C_2   0.168882 0.713032 0.505219 0.300447
C39   C     C_2   0.675338 0.260520 0.518561 -0.408727
C40   C     C_2   0.326431 0.774949 0.488676 -0.403407
H7    H     H_    0.557866 0.198076 0.513907 0.087370
H8    H     H_    0.449979 0.775262 0.524554 0.093149
C41   C     C_2   0.709918 0.099779 0.748169 0.778593
O21   O     O_2   0.767408 0.159014 0.699376 -0.580403
O22   O     O_R   0.657227 0.981110 0.735483 -0.660724
H9    H     H_    0.670673 0.956192 0.684323 0.296493
C42   C     C_2   0.271136 0.598802 0.248227 0.804791
O23   O     O_2   0.219021 0.657318 0.298658 -0.547197
O24   O     O_R   0.322862 0.479476 0.258371 -0.653577
H10   H     H_    0.313856 0.453506 0.309349 0.318841
C43   C     C_2   0.749716 0.893225 0.981598 0.751022
O25   O     O_2   0.656040 0.818359 0.010918 -0.570564
O26   O     O_R   0.858035 0.857660 0.925087 -0.679691
H11   H     H_    0.845648 0.769708 0.913708 0.282312
C44   C     C_2   0.199626 0.399505 0.011356 0.710720
O27   O     O_2   0.304905 0.322638 0.989386 -0.581165
O28   O     O_R   0.067338 0.368425 0.060554 -0.673643
H12   H     H_    0.085677 0.283375 0.077046 0.289422
O29   O     O_3   0.603967 0.427065 0.915085 -0.585144
C45   C     C_3   0.734608 0.520650 0.914496 -0.290069
H13   H     H_    0.661587 0.601662 0.933403 0.172849
H14   H     H_    0.777382 0.540268 0.860148 0.191848
H15   H     H_    0.853930 0.504308 0.952570 0.182203
O30   O     O_3   0.376948 0.927332 0.077252 -0.577654
C46   C     C_3   0.313973 0.030332 0.112664 -0.278784
H16   H     H_    0.431257 0.066178 0.146253 0.159595
H17   H     H_    0.193514 0.018313 0.146093 0.193724
H18   H     H_    0.276192 0.099559 0.073117 0.170185
C47   C     C_2   0.814352 0.398886 0.252862 0.766491
O31   O     O_2   0.917306 0.345630 0.295223 -0.550019
O32   O     O_R   0.745808 0.511731 0.271014 -0.660297
H19   H     H_    0.788959 0.537853 0.320365 0.321351
C48   C     C_2   0.218652 0.905436 0.744925 0.753100
O33   O     O_2   0.253843 0.843290 0.693769 -0.588939
O34   O     O_R   0.176349 0.026182 0.734737 -0.660710
H20   H     H_    0.177946 0.050252 0.683226 0.296521
O35   O     O_3   0.888797 0.990831 0.116823 -0.602653
C49   C     C_3   0.803933 0.886197 0.141413 -0.185022
H21   H     H_    0.867945 0.806880 0.116328 0.157900
H22   H     H_    0.650276 0.885084 0.135970 0.201051
H23   H     H_    0.833333 0.878265 0.198452 0.181154
O36   O     O_3   0.109559 0.496408 0.869573 -0.598927
C50   C     C_3   0.178843 0.381076 0.856208 -0.137189
H24   H     H_    0.093432 0.313461 0.883279 0.138431
H25   H     H_    0.328974 0.370571 0.867175 0.205834
H26   H     H_    0.164167 0.361473 0.799345 0.178225
O37   O     O_3   0.959159 0.338989 0.474615 -0.539939
C51   C     C_3   0.135684 0.300809 0.503275 -0.104206
H27   H     H_    0.218803 0.254045 0.462883 0.128818
H28   H     H_    0.122633 0.244705 0.551271 0.105025
H29   H     H_    0.216989 0.381535 0.518952 0.156341
O38   O     O_3   0.031564 0.695014 0.451461 -0.529201
C52   C     C_3   0.846282 0.711849 0.474893 -0.114145
H30   H     H_    0.835923 0.787071 0.513305 0.089408
H31   H     H_    0.789898 0.627652 0.496349 0.139528
H32   H     H_    0.754510 0.733278 0.428188 0.166872

loop_
_geom_bond_atom_site_label_1
_geom_bond_atom_site_label_2
_ccdc_geom_bond_type
O28   H12   S    
O32   H19   S    
O13   V3    S    
C41   O21   D    
C5    C39   S    
C46   H16   S    
O4    C2    A    
V1    O19   S    
C43   O25   D    
C46   H18   S    
C6    C40   S    
C52   H30   S    
C13   C15   A    
C42   O23   D    
C18   H4    S    
O9    V1    S    
C31   O29   S    
O3    C1    A    
C52   H31   S    
O12   V4    S    
C14   C36   A    
C49   H21   S    
C27   C43   S    
C2    O12   A    
C39   H7    S    
O7    C3    A    
C51   H27   S    
C9    H1    S    
O5    C7    A    
C22   C36   A    
O7    V1    S    
O6    C8    A    
C47   O31   D    
C18   C20   A    
C23   C25   A    
C24   C26   A    
C4    C37   S    
O3    V1    S    
O14   V4    S    
C8    C12   S    
C33   C41   S    
C10   H2    S    
C2    C35   S    
C50   H26   S    
C27   C29   A    
C9    C33   A    
C12   C32   A    
C10   C34   A    
C15   C17   A    
C16   C18   A    
O36   C50   S    
C43   O26   S    
C26   C28   A    
O11   V3    S    
C20   C22   A    
C19   C21   A    
O17   V3    S    
C45   H14   S    
C13   C35   A    
C28   C30   A    
C34   C42   S    
C44   O28   S    
C17   H3    S    
C24   C32   A    
O8    C4    A    
C38   O38   S    
C52   H32   S    
C15   H5    S    
C1    O11   A    
C44   O27   D    
O15   V3    S    
C9    C25   A    
C29   O35   S    
C37   C39   D    
C51   H29   S    
O22   H9    S    
C1    C36   S    
C37   O37   S    
C13   C47   S    
O26   H11   S    
C19   C23   A    
O35   C49   S    
O10   V2    S    
O1    V3    S    
C42   O24   S    
C48   O34   S    
C17   C19   A    
C11   C33   A    
C12   C34   A    
C47   O32   S    
O18   V4    S    
O15   C5    A    
O16   C6    A    
O1    C3    A    
C41   O22   S    
C45   H15   S    
C21   C29   A    
C50   H24   S    
V2    O20   S    
C22   C30   A    
O10   C6    A    
O16   V4    S    
O18   C8    A    
C14   C16   A    
C21   C35   A    
C28   C44   S    
C46   H17   S    
O38   C52   S    
O5    V1    S    
O17   C7    A    
O6    V2    S    
O34   H20   S    
C20   C24   A    
C10   C26   A    
C49   H23   S    
O2    V4    S    
C32   O30   S    
V3    O19   S    
O37   C51   S    
C14   C48   S    
V4    O20   S    
C45   H13   S    
C23   C31   A    
O8    V2    S    
C7    C11   S    
O9    C5    A    
O13   V1    S    
C49   H22   S    
O14   V2    S    
O30   C46   S    
O2    C4    A    
C51   H28   S    
O24   H10   S    
O4    V2    S    
C38   C40   D    
C48   O33   D    
C16   H6    S    
C40   H8    S    
C25   C27   A    
O29   C45   S    
C30   O36   S    
C11   C31   A    
C50   H25   S    
C3    C38   S    
