data_mof_unit_29146.cif
_audit_creation_date              2013-03-05T16:19:42-0500
_audit_creation_method            fapswitch 2.2
_symmetry_space_group_name_H-M    P1
_symmetry_Int_Tables_number       1
_space_group_crystal_system       triclinic
_cell_length_a                    10.67376
_cell_length_b                    9.784653
_cell_length_c                    27.399598
_cell_angle_alpha                 90.382396
_cell_angle_beta                  87.11887
_cell_angle_gamma                 90.197754
_cell_volume                      2857.89294441

loop_
_atom_site_label
_atom_site_type_symbol
_atom_site_description
_atom_site_fract_x
_atom_site_fract_y
_atom_site_fract_z
_atom_type_partial_charge
O1    O     O_R   0.314910 0.616040 0.499990 -0.629193
O2    O     O_R   0.314910 0.383960 0.499990 -0.626927
C1    C     C_R   0.258771 0.500013 0.505348 0.819684
O3    O     O_R   0.500140 0.616020 0.428740 -0.629092
O4    O     O_R   0.500140 0.383980 0.428740 -0.624370
C2    C     C_R   0.500392 0.499658 0.405846 0.879522
Zn1   Zn    Zn3+2 0.500150 0.654960 0.499980 0.897620
Zn2   Zn    Zn3+2 0.500150 0.345040 0.499980 0.899499
O5    O     O_R   0.685320 0.616040 0.499970 -0.636377
O6    O     O_R   0.685320 0.383960 0.499970 -0.632421
O7    O     O_R   0.500090 0.616050 0.571230 -0.629799
O8    O     O_R   0.500090 0.383950 0.571230 -0.612939
C3    C     C_R   0.743129 0.500209 0.498011 0.863545
C4    C     C_R   0.502818 0.500827 0.594213 0.891340
C5    C     C_R   0.463111 0.625582 0.179171 0.510515
O9    O     O_2   0.369960 0.682616 0.207490 -0.560571
N1    N     N_R   0.548057 0.541763 0.199496 -0.353029
C6    C     C_R   0.644416 0.483037 0.172267 0.511030
C7    C     C_R   0.614967 0.600993 0.280369 -0.099852
C8    C     C_R   0.601089 0.591004 0.330716 -0.278574
C9    C     C_R   0.437230 0.418984 0.322920 0.165924
C10   C     C_R   0.451765 0.430827 0.271990 -0.095653
C11   C     C_R   0.539836 0.522012 0.251034 0.274641
C12   C     C_R   0.571615 0.594009 0.100239 -0.058615
C13   C     C_R   0.472998 0.653005 0.129086 -0.023367
C14   C     C_R   0.387428 0.738583 0.107451 -0.134644
C15   C     C_R   0.658225 0.508131 0.122032 -0.021336
C16   C     C_R   0.512714 0.500996 0.352496 -0.051321
H1    H     H_    0.393326 0.371678 0.248425 0.139781
H2    H     H_    0.313105 0.788667 0.129132 0.189359
C17   C     C_R   0.523886 0.508176 0.646839 -0.134668
C18   C     C_R   0.487096 0.694327 0.975236 0.022182
C19   C     C_R   0.698066 0.595375 0.970661 -0.009744
C20   C     C_R   0.591480 0.641622 0.947210 0.029748
C21   C     C_R   0.382075 0.738901 0.950896 -0.210829
C22   C     C_R   0.376085 0.729073 0.900270 0.203769
C23   C     C_R   0.478791 0.671519 0.872169 -0.022322
C24   C     C_R   0.588220 0.631048 0.895835 -0.135543
C25   C     C_R   0.692782 0.574893 0.868478 -0.085390
C26   C     C_R   0.677291 0.543502 0.818725 0.549728
N2    N     N_R   0.570847 0.580897 0.797030 -0.332961
C27   C     C_R   0.475947 0.649453 0.821384 0.512155
C28   C     C_R   0.497613 0.433385 0.731399 0.225420
C29   C     C_R   0.478365 0.410061 0.681247 0.104758
C30   C     C_R   0.591167 0.622540 0.662541 -0.285021
C31   C     C_R   0.609966 0.645752 0.711579 0.228738
C32   C     C_R   0.559899 0.552816 0.746123 0.198915
O10   O     O_2   0.379590 0.694227 0.795892 -0.589282
C33   C     C_R   0.488027 0.693823 0.027002 0.054399
C34   C     C_R   0.582350 0.618965 0.049439 0.080104
C35   C     C_R   0.685607 0.565780 0.021200 0.054823
C36   C     C_R   0.394580 0.758829 0.057249 -0.224225
H3    H     H_    0.299397 0.775309 0.970992 0.143247
H4    H     H_    0.326330 0.827353 0.043254 0.143240
O11   O     O_2   0.726415 0.401074 0.193836 -0.558874
C37   C     C_R   0.754706 0.447517 0.093133 -0.142741
H5    H     H_    0.659366 0.654530 0.352664 0.149240
H6    H     H_    0.682323 0.672352 0.264036 0.146004
H7    H     H_    0.820130 0.377683 0.108696 0.190150
C38   C     C_R   0.812206 0.578810 0.942550 0.180822
C39   C     C_R   0.808716 0.556676 0.891518 0.192204
O12   O     O_2   0.765741 0.474694 0.791830 -0.581630
C40   C     C_R   0.767341 0.474716 0.043418 -0.225670
H8    H     H_    0.628196 0.696855 0.636382 0.174466
H9    H     H_    0.838968 0.419443 0.022271 0.170502
C41   C     C_3   0.066201 0.636927 0.528655 0.076160
C42   C     C_3   0.065004 0.372305 0.533482 0.061746
H10   H     H_    0.097315 0.722455 0.504148 0.142278
H11   H     H_    0.102240 0.278250 0.514696 0.141991
C43   C     C_3   0.922388 0.627844 0.528890 -0.428573
C44   C     C_3   0.921796 0.374031 0.528918 -0.431901
H12   H     H_    0.881601 0.619285 0.567006 0.195315
H13   H     H_    0.872694 0.377467 0.565766 0.197266
H14   H     H_    0.885526 0.725109 0.514710 0.160032
H15   H     H_    0.892232 0.276266 0.512129 0.155361
H16   H     H_    0.143290 0.570116 0.430475 0.176706
H17   H     H_    0.128179 0.390821 0.437007 0.171940
C45   C     C_3   0.091112 0.489738 0.451973 -0.464424
C46   C     C_3   0.122508 0.500317 0.506387 -0.031623
C47   C     C_3   0.880855 0.500601 0.499105 0.073012
C48   C     C_3   0.948211 0.499979 0.445854 0.398806
C49   C     C_3   0.371807 0.080624 0.508962 -0.325045
C50   C     C_3   0.371722 0.918780 0.508641 -0.324812
H18   H     H_    0.307390 0.117955 0.481325 0.152003
H19   H     H_    0.307983 0.880869 0.480611 0.153064
H20   H     H_    0.333054 0.118730 0.544929 0.169919
H21   H     H_    0.332235 0.880734 0.544337 0.176167
H22   H     H_    0.479054 0.111791 0.422864 0.108922
H23   H     H_    0.481355 0.883708 0.422557 0.123826
C51   C     C_3   0.546027 0.080681 0.450511 0.165149
C52   C     C_3   0.546868 0.918005 0.450641 0.166852
C53   C     C_3   0.578886 0.081407 0.537137 -0.226894
C54   C     C_3   0.577702 0.920273 0.537548 -0.237450
N3    N     N_3   0.499750 0.138610 0.498940 -0.045670
N4    N     N_3   0.499750 0.861390 0.498940 -0.045704
H24   H     H_    0.676621 0.119753 0.532519 0.151229
H25   H     H_    0.674936 0.880611 0.533823 0.149588
H26   H     H_    0.544559 0.119327 0.573581 0.151924
H27   H     H_    0.540957 0.884939 0.574046 0.153913
C55   C     C_3   0.337219 0.325681 0.344635 -0.905476
H28   H     H_    0.281337 0.277355 0.316029 0.241556
H29   H     H_    0.380604 0.242968 0.365301 0.246517
H30   H     H_    0.272249 0.385114 0.369335 0.231039
C56   C     C_3   0.936597 0.606472 0.965442 -0.934381
H31   H     H_    0.924342 0.651526 0.002631 0.253921
H32   H     H_    0.992202 0.511112 0.967210 0.240501
H33   H     H_    0.990853 0.683686 0.943577 0.246493
C57   C     C_3   0.928540 0.519059 0.862068 -0.792852
H34   H     H_    0.945641 0.592664 0.831757 0.252401
H35   H     H_    0.014176 0.519286 0.883115 0.218253
H36   H     H_    0.920984 0.413298 0.847650 0.269966
N5    N     N_2   0.675151 0.765978 0.725838 -0.301831
H37   H     H_    0.657153 0.798220 0.761373 0.231656
C58   C     C_3   0.807448 0.768733 0.711425 -0.759830
H38   H     H_    0.848434 0.868234 0.722221 0.236347
H39   H     H_    0.822019 0.757252 0.671212 0.236805
H40   H     H_    0.857118 0.685414 0.729801 0.271764
N6    N     N_2   0.106923 0.666797 0.577807 -0.273338
H41   H     H_    0.199498 0.644737 0.583165 0.228607
C59   C     C_3   0.074257 0.801050 0.597199 -0.820365
H42   H     H_    0.108018 0.811790 0.634717 0.254139
H43   H     H_    0.971174 0.815920 0.599319 0.240950
H44   H     H_    0.118393 0.882062 0.573886 0.218502
N7    N     N_2   0.096215 0.367675 0.584721 -0.265142
H45   H     H_    0.183917 0.405143 0.591470 0.215998
C60   C     C_3   0.073316 0.238198 0.609042 -0.808194
H46   H     H_    0.090793 0.249593 0.648472 0.254354
H47   H     H_    0.137300 0.158703 0.593034 0.218336
H48   H     H_    0.974741 0.204260 0.605860 0.246996
C61   C     C_3   0.922676 0.630637 0.416378 -0.901621
H49   H     H_    0.944850 0.725998 0.436157 0.224251
H50   H     H_    0.980580 0.631127 0.381480 0.250262
H51   H     H_    0.824708 0.631359 0.405874 0.227556
C62   C     C_3   0.907140 0.378911 0.413622 -0.901881
H52   H     H_    0.965790 0.375049 0.378921 0.253458
H53   H     H_    0.917560 0.279123 0.431707 0.225122
H54   H     H_    0.809373 0.393141 0.403095 0.233630
C63   C     C_3   0.672814 0.142671 0.431903 -0.849474
H55   H     H_    0.695872 0.110956 0.393581 0.220022
H56   H     H_    0.669254 0.252580 0.430239 0.288101
H57   H     H_    0.751073 0.115589 0.454993 0.220948
C64   C     C_3   0.674826 0.857657 0.433144 -0.875977
H58   H     H_    0.670576 0.747847 0.432237 0.285475
H59   H     H_    0.699449 0.886661 0.394797 0.215352
H60   H     H_    0.752005 0.887199 0.456645 0.227822
C65   C     C_3   0.406828 0.285710 0.664947 -0.888766
H61   H     H_    0.473118 0.211990 0.647019 0.240345
H62   H     H_    0.355188 0.232666 0.695357 0.245502
H63   H     H_    0.335491 0.315604 0.639142 0.239958
N8    N     N_2   0.458790 0.336283 0.767646 -0.302864
H64   H     H_    0.483028 0.236218 0.759936 0.237364
C66   C     C_3   0.333981 0.354239 0.790084 -0.742694
H65   H     H_    0.274857 0.263606 0.782547 0.222770
H66   H     H_    0.286817 0.446269 0.776172 0.273693
H67   H     H_    0.340623 0.364982 0.830215 0.244747
C67   C     C_3   0.256018 0.776416 0.878573 -0.807664
H68   H     H_    0.209547 0.689410 0.860473 0.259543
H69   H     H_    0.187177 0.817448 0.906641 0.201212
H70   H     H_    0.276550 0.860377 0.852293 0.268956

loop_
_geom_bond_atom_site_label_1
_geom_bond_atom_site_label_2
_geom_bond_distance
_ccdc_geom_bond_type
C50   H21   1.111380 S    
C40   H9    1.080212 S    
C60   H46   1.110385 S    
C49   N3    1.490403 S    
C10   H1    1.083485 S    
C31   N5    1.426933 S    
C21   H3    1.076832 S    
N2    C27   1.360897 A    
C53   N3    1.490653 S    
C41   H10   1.115654 S    
C21   C22   1.394473 A    
C12   C15   1.408830 A    
C4    C17   1.471723 S    
C1    C46   1.453297 S    
C42   N7    1.460149 S    
C62   H54   1.106053 S    
C56   H32   1.110200 S    
C58   H38   1.110393 S    
C51   C52   1.591816 S    
C53   H26   1.108244 S    
C48   C62   1.548157 S    
C41   C43   1.536986 S    
C30   C31   1.385595 A    
Zn1   O7    1.991462 S    
C41   C46   1.574155 S    
N1    C11   1.424857 S    
C53   C54   1.576758 S    
C67   H68   1.110370 S    
H16   C45   1.116172 S    
O4    C2    1.297649 A    
O7    C4    1.296161 A    
C5    C13   1.398765 A    
C5    O9    1.350019 S    
C53   H24   1.108924 S    
C26   O12   1.347398 S    
C57   H34   1.110664 S    
Zn1   O5    2.014090 S    
C23   C27   1.408556 A    
C39   C57   1.522463 S    
O5    C3    1.291830 A    
N6    H41   1.030051 S    
N5    H37   1.030489 S    
C2    C16   1.461219 S    
C7    C8    1.384077 A    
C59   H43   1.108944 S    
C43   H14   1.111027 S    
C29   C65   1.511138 S    
H23   C52   1.114792 S    
C54   H27   1.112492 S    
C42   C44   1.540076 S    
C59   H44   1.110043 S    
C52   C64   1.542683 S    
C3    C47   1.471863 S    
C54   N4    1.490077 S    
C20   C24   1.412926 A    
C9    C10   1.401827 A    
C64   H60   1.107254 S    
O3    Zn1   1.986294 S    
N5    C58   1.447254 S    
C56   H31   1.109371 S    
C51   C63   1.545431 S    
C36   H4    1.078023 S    
C51   N3    1.500669 S    
C65   H62   1.106838 S    
C10   C11   1.398635 A    
C7    H6    1.083067 S    
C12   C34   1.413659 A    
C25   C39   1.429392 A    
C17   C29   1.417510 A    
C43   C47   1.559371 S    
C18   C21   1.404993 A    
C42   C46   1.567821 S    
C12   C13   1.407279 A    
O3    C2    1.296190 A    
C25   C26   1.413062 A    
C44   H13   1.114270 S    
C9    C55   1.504552 S    
C15   C37   1.398289 A    
C62   H53   1.106346 S    
C8    C16   1.402228 A    
C60   H48   1.109661 S    
C34   C35   1.413177 A    
C13   C14   1.397530 A    
H17   C45   1.114670 S    
O6    C3    1.292308 A    
C55   H30   1.107913 S    
C38   C39   1.415826 A    
O1    C1    1.287698 A    
C18   C20   1.417632 A    
C61   H50   1.112182 S    
C28   C29   1.416485 A    
C23   C24   1.422775 A    
C14   C36   1.389280 A    
C65   H63   1.106194 S    
C58   H39   1.109992 S    
C66   H67   1.109695 S    
Zn2   O8    1.986475 S    
C33   C36   1.414392 A    
C50   N4    1.490036 S    
C55   H29   1.106861 S    
N1    C6    1.365959 A    
N2    C32   1.430295 S    
C37   C40   1.389481 A    
Zn2   N3    2.019851 S    
C27   O10   1.347951 S    
C28   N8    1.424524 S    
C63   H56   1.077579 S    
C6    O11   1.349689 S    
C26   N2    1.360789 A    
C50   H19   1.112330 S    
C9    C16   1.415026 A    
H22   C51   1.111999 S    
C14   H2    1.083436 S    
C19   C38   1.417441 A    
C49   H18   1.112373 S    
C41   N6    1.463147 S    
N8    C66   1.449615 S    
C61   H51   1.098482 S    
C54   H25   1.108948 S    
C59   H42   1.110474 S    
C22   C67   1.514845 S    
N7    C60   1.449675 S    
C65   H61   1.107289 S    
C42   H11   1.116014 S    
C5    N1    1.366324 A    
C35   C40   1.411243 A    
C31   C32   1.402020 A    
C22   C23   1.423148 A    
C60   H47   1.110324 S    
O1    Zn1   2.012242 S    
C67   H70   1.110066 S    
O2    Zn2   2.014823 S    
C6    C15   1.400151 A    
C66   H66   1.112011 S    
C47   C48   1.593788 S    
C63   H57   1.106859 S    
O4    Zn2   1.991286 S    
C44   C47   1.563690 S    
C57   H36   1.109339 S    
C62   H52   1.112287 S    
C19   C35   1.416207 A    
Zn1   N4    2.020260 S    
C30   H8    1.084045 S    
N8    H64   1.031356 S    
C37   H7    1.083280 S    
C67   H69   1.110692 S    
C61   H49   1.106772 S    
O8    C4    1.302783 A    
C49   H20   1.111949 S    
C44   H15   1.110362 S    
C45   C46   1.547198 S    
C45   C48   1.546490 S    
C48   C61   1.548980 S    
C24   C25   1.422670 A    
C57   H35   1.104990 S    
C55   H28   1.110762 S    
C19   C20   1.411699 A    
O2    C1    1.289844 A    
C64   H59   1.108729 S    
N6    C59   1.450760 S    
C18   C33   1.418930 A    
C58   H40   1.111093 S    
C63   H55   1.108862 S    
C52   N4    1.500689 S    
C7    C11   1.392330 A    
C66   H65   1.110907 S    
Zn2   O6    2.011509 S    
C33   C34   1.414692 A    
C17   C30   1.404309 A    
C64   H58   1.075420 S    
C43   H12   1.114661 S    
C49   C50   1.583554 S    
C8    H5    1.079294 S    
C38   C56   1.519367 S    
C28   C32   1.409140 A    
C56   H33   1.110514 S    
N7    H45   1.029091 S    
