data_mof_unit_36494.cif
_audit_creation_date              2013-03-05T16:07:09-0500
_audit_creation_method            fapswitch 2.2
_symmetry_space_group_name_H-M    P1
_symmetry_Int_Tables_number       1
_space_group_crystal_system       triclinic
_cell_length_a                    10.837153
_cell_length_b                    9.703333
_cell_length_c                    16.009654
_cell_angle_alpha                 88.812508
_cell_angle_beta                  100.827048
_cell_angle_gamma                 90.162557
_cell_volume                      1653.1943042

loop_
_atom_site_label
_atom_site_type_symbol
_atom_site_description
_atom_site_fract_x
_atom_site_fract_y
_atom_site_fract_z
_atom_type_partial_charge
O1    O     O_R   0.319640 0.618740 0.499990 -0.515114
O2    O     O_R   0.680360 0.381260 0.500010 -0.514851
O3    O     O_R   0.680360 0.618740 0.500010 -0.517266
O4    O     O_R   0.319640 0.381260 0.499990 -0.517460
C1    C     C_R   0.869365 0.504119 0.486752 -0.282086
C2    C     C_R   0.132014 0.501594 0.516053 -0.283710
C3    C     C_R   0.264809 0.499996 0.507935 0.873822
C4    C     C_R   0.735671 0.501002 0.492854 0.875837
O5    O     O_R   0.499970 0.618750 0.380310 -0.522433
O6    O     O_R   0.500030 0.381250 0.619690 -0.523472
O7    O     O_R   0.500030 0.618750 0.619690 -0.517772
O8    O     O_R   0.499970 0.381250 0.380310 -0.517968
C5    C     C_R   0.501210 0.501350 0.341576 0.847958
C6    C     C_R   0.498925 0.498576 0.658257 0.847022
Cu1   Cu    Cu3+1 0.500000 0.640660 0.500000 1.130873
Cu2   Cu    Cu3+1 0.500000 0.359340 0.500000 1.130055
N1    N     N_R   0.500000 0.852070 0.500000 -0.312484
N2    N     N_R   0.500000 0.147930 0.500000 -0.313907
C7    C     C_R   0.463962 0.616347 0.947543 0.122337
C8    C     C_R   0.534946 0.380100 0.051072 0.120440
C9    C     C_R   0.465610 0.620436 0.035445 0.120472
C10   C     C_R   0.534292 0.376376 0.963104 0.120729
C11   C     C_R   0.499011 0.494701 0.911964 -0.069107
C12   C     C_R   0.500624 0.502244 0.086936 -0.067989
C13   C     C_1   0.499413 0.492875 0.822338 0.084380
C14   C     C_1   0.500626 0.505120 0.176920 0.086223
C15   C     C_1   0.500913 0.504431 0.252171 -0.081198
C16   C     C_1   0.499240 0.494838 0.747301 -0.080035
C17   C     C_R   0.412394 0.077165 0.441006 0.322273
C18   C     C_R   0.585804 0.922810 0.560489 0.324812
C19   C     C_R   0.587016 0.073790 0.559363 0.319414
C20   C     C_R   0.413568 0.926250 0.440198 0.323186
C21   C     C_R   0.064669 0.377601 0.512211 0.160858
C22   C     C_R   0.936521 0.629737 0.493406 0.158837
C23   C     C_R   0.934922 0.379588 0.486887 0.160091
C24   C     C_R   0.067361 0.627688 0.515117 0.153083
S1    S     S_3+6 0.288897 0.167837 0.364822 0.122786
O9    O     O_2   0.290231 0.117043 0.277062 -0.187781
O10   O     O_2   0.165989 0.130102 0.389577 -0.236031
O11   O     O_3   0.279851 0.339119 0.350051 -0.513686
H1    H     H_    0.194060 0.357790 0.317314 0.358868
S2    S     S_3+6 0.688404 0.830952 0.649784 0.124083
O12   O     O_2   0.817602 0.891732 0.668510 -0.177807
O13   O     O_2   0.627912 0.849004 0.726034 -0.241784
O14   O     O_3   0.722110 0.662907 0.648114 -0.512062
H2    H     H_    0.764910 0.638035 0.706783 0.356341
S3    S     S_3+6 0.710155 0.160338 0.635307 0.121710
O15   O     O_2   0.709285 0.103027 0.723005 -0.191080
O16   O     O_2   0.832968 0.125976 0.610090 -0.233261
O17   O     O_3   0.718408 0.330519 0.650249 -0.513489
H3    H     H_    0.799915 0.346334 0.688726 0.359262
S4    S     S_3+6 0.311292 0.839439 0.351610 0.123807
O18   O     O_2   0.181593 0.899339 0.333454 -0.179323
O19   O     O_2   0.371749 0.865991 0.275921 -0.242266
O20   O     O_3   0.279591 0.670564 0.351730 -0.509794
H4    H     H_    0.237817 0.650229 0.292702 0.357793
I1    I     I_    0.416488 0.805574 0.090556 -0.086211
I2    I     I_    0.585626 0.192966 0.906007 -0.092121
I3    I     I_    0.407364 0.792879 0.866611 -0.120267
I4    I     I_    0.588128 0.202365 0.131237 -0.130041
I5    I     I_    0.145957 0.199022 0.580235 -0.099772
I6    I     I_    0.849979 0.821690 0.447171 -0.094043
I7    I     I_    0.850687 0.209201 0.415827 -0.104250
I8    I     I_    0.159543 0.809175 0.570087 -0.105435

loop_
_geom_bond_atom_site_label_1
_geom_bond_atom_site_label_2
_geom_bond_distance
_ccdc_geom_bond_type
O4    Cu2   1.966697 S    
C1    C4    1.470536 S    
C7    C11   1.404879 A    
O20   H4    0.991683 S    
S4    O20   1.673358 S    
C9    I1    2.129948 S    
C2    C3    1.469240 S    
O1    Cu1   1.965498 S    
S1    O11   1.674428 S    
C10   I2    2.139266 S    
O2    Cu2   1.965497 S    
C24   I8    2.144213 S    
S3    O15   1.501063 D    
C2    C21   1.401856 A    
C7    I3    2.145840 S    
C1    C22   1.413503 A    
C23   I7    2.130791 S    
O17   H3    0.990935 S    
O5    Cu1   1.932267 S    
C17   C20   1.464814 A    
S1    O10   1.501611 D    
N2    C17   1.396850 A    
O6    Cu2   1.932267 S    
O14   H2    0.991550 S    
S4    O18   1.497355 D    
C13   C16   1.200731 T    
N1    C18   1.399737 A    
C12   C14   1.441459 S    
C14   C15   1.204048 T    
S1    O9    1.501183 D    
S2    O13   1.503592 D    
O4    C3    1.317210 A    
C1    C23   1.403228 A    
C21   I5    2.129489 S    
O11   H1    0.992904 S    
C7    C9    1.405426 A    
S4    O19   1.499468 D    
S3    O17   1.673198 S    
C22   C24   1.395152 A    
C11   C13   1.436180 S    
C18   C19   1.464801 A    
C21   C23   1.388341 A    
O7    C6    1.309194 A    
O2    C4    1.318620 A    
C8    I4    2.142346 S    
S2    O12   1.497686 D    
C8    C10   1.408231 A    
Cu1   Cu2   2.729742 S    
C20   S4    1.844770 S    
C22   I6    2.142126 S    
O3    Cu1   1.966696 S    
O8    C5    1.309930 A    
S3    O16   1.501837 D    
O3    C4    1.308710 A    
O6    C6    1.307458 A    
C9    C12   1.408747 A    
C17   S1    1.844419 S    
Cu1   N1    2.051382 S    
N1    C20   1.396582 A    
O5    C5    1.309553 A    
C10   C11   1.407369 A    
C5    C15   1.430430 S    
C19   S3    1.841402 S    
N2    C19   1.396005 A    
C6    C16   1.424641 S    
O1    C3    1.309693 A    
O7    Cu1   1.923509 S    
C8    C12   1.408431 A    
Cu2   N2    2.051383 S    
C18   S2    1.852055 S    
O8    Cu2   1.923508 S    
C2    C24   1.410087 A    
S2    O14   1.673873 S    
