data_mof_unit_24015.cif
_audit_creation_date              2012-12-10T19:42:14-0500
_audit_creation_method            fapswitch 2.2
_symmetry_space_group_name_H-M    P1
_symmetry_Int_Tables_number       1
_space_group_crystal_system       triclinic
_cell_length_a                    10.880149
_cell_length_b                    10.932327
_cell_length_c                    9.70408
_cell_angle_alpha                 90.072305
_cell_angle_beta                  90.666384
_cell_angle_gamma                 90.067233
_cell_volume                      1154.17535841

loop_
_atom_site_label
_atom_site_type_symbol
_atom_type_description
_atom_site_fract_x
_atom_site_fract_y
_atom_site_fract_z
_atom_type_partial_charge
C1    C     C_R   0.501427 0.265400 0.500004 0.845435
C2    C     C_R   0.218498 0.588781 0.979062 -0.117308
C3    C     C_R   0.932495 0.508863 0.377031 -0.210739
C4    C     C_R   0.871693 0.510525 0.503230 -0.093727
C5    C     C_R   0.940380 0.521630 0.627162 0.015662
C6    C     C_R   0.067421 0.516273 0.622268 -0.245162
C7    C     C_R   0.128251 0.511862 0.496228 -0.089687
C8    C     C_R   0.059448 0.516319 0.371732 -0.018176
C9    C     C_R   0.850871 0.673789 0.787919 -0.213685
C10   C     C_R   0.800963 0.705131 0.915069 -0.223786
C11   C     C_R   0.784463 0.615563 0.015674 0.627104
C12   C     C_R   0.262279 0.504328 0.498793 0.784054
C13   C     C_R   0.817230 0.494114 0.988854 -0.215692
C14   C     C_R   0.868564 0.462620 0.862178 -0.211207
C15   C     C_R   0.885079 0.552436 0.760971 0.151416
C16   C     C_2   0.501257 0.932852 0.386876 -0.145210
C17   C     C_2   0.492107 0.866574 0.502390 -0.324833
C18   C     C_2   0.495913 0.066832 0.386814 -0.163209
C19   C     C_2   0.507458 0.133410 0.502274 -0.317958
C20   C     C_2   0.469530 0.405458 0.921859 -0.084803
C21   C     C_2   0.478380 0.403169 0.076997 -0.064088
C22   C     C_R   0.498436 0.734600 0.500131 0.851077
C23   C     C_R   0.737711 0.503819 0.501125 0.810690
C24   C     C_R   0.216853 0.679832 0.080004 -0.152801
C25   C     C_R   0.164666 0.656008 0.208003 -0.077402
C26   C     C_R   0.114488 0.540307 0.235907 0.148719
C27   C     C_R   0.115079 0.449547 0.133635 -0.149060
C28   C     C_R   0.167627 0.473733 0.005748 -0.127720
Cu1   Cu    Cu3+1 0.500020 0.500020 0.638630 0.936422
Cu2   Cu    Cu3+1 0.499980 0.499980 0.361370 0.989287
H1    H     H_    0.894826 0.368719 0.842681 0.138925
H2    H     H_    0.511256 0.888037 0.287643 0.176515
H3    H     H_    0.477079 0.907632 0.602238 0.142911
H4    H     H_    0.483980 0.111381 0.287559 0.154488
H5    H     H_    0.524136 0.092577 0.602208 0.143024
H6    H     H_    0.438238 0.322557 0.871113 0.153344
H7    H     H_    0.534920 0.574521 0.894714 0.202103
H8    H     H_    0.463912 0.315726 0.126570 0.143549
H9    H     H_    0.256395 0.768708 0.059228 0.120150
H10   H     H_    0.502859 0.582523 0.106006 0.228160
H11   H     H_    0.075870 0.360265 0.153383 0.115129
H12   H     H_    0.169366 0.403068 0.927613 0.122115
H13   H     H_    0.881072 0.507052 0.281172 0.200075
H14   H     H_    0.118860 0.520703 0.717890 0.160578
H15   H     H_    0.863467 0.743968 0.710636 0.145161
H16   H     H_    0.775172 0.798936 0.935585 0.150040
N1    N     N_2   0.498640 0.498660 0.846910 -0.287279
N2    N     N_2   0.498610 0.498630 0.153040 -0.244983
O1    O     O_R   0.500020 0.321960 0.617040 -0.587122
O2    O     O_R   0.499980 0.321920 0.382900 -0.587137
O3    O     O_R   0.319660 0.500030 0.617070 -0.591491
O4    O     O_R   0.319620 0.499990 0.382930 -0.569714
O5    O     O_R   0.500020 0.678080 0.617100 -0.593076
O6    O     O_R   0.499980 0.678040 0.382960 -0.555410
O7    O     O_R   0.680380 0.500010 0.617070 -0.570436
O8    O     O_R   0.680340 0.499970 0.382930 -0.531163
H17   H     H_    0.259951 0.607460 0.880546 0.148317
F1    F     F_    0.736562 0.646937 0.138996 -0.693464
H18   H     H_    0.803294 0.424329 0.066094 0.143258
H19   H     H_    0.164007 0.727166 0.285778 0.109821

loop_
_geom_bond_atom_site_label_1
_geom_bond_atom_site_label_2
_ccdc_geom_bond_type
C10   H16   S    
C9    H15   S    
Cu1   Cu2   S    
C13   H18   S    
C25   H19   S    
H7    N1    S    
C11   F1    S    
C11   C13   A    
C9    C10   A    
C27   H11   S    
Cu1   O7    S    
C17   C22   S    
C14   H1    S    
C21   N2    D    
Cu2   O6    S    
C9    C15   A    
C2    H17   S    
C23   O8    A    
C22   O6    A    
Cu1   O1    S    
C13   C14   A    
C24   C25   A    
C23   O7    A    
H10   N2    S    
C18   H4    S    
C3    H13   S    
C26   C27   A    
C6    C7    A    
Cu1   O5    S    
Cu1   N1    S    
C17   H3    S    
C12   O4    A    
Cu1   O3    S    
C3    C8    A    
C22   O5    A    
C2    C24   A    
C5    C6    A    
Cu2   O2    S    
C7    C12   S    
C5    C15   S    
C20   N1    D    
C1    C19   S    
C10   C11   A    
C3    C4    A    
C20   H6    S    
C7    C8    A    
C12   O3    A    
C8    C26   S    
C20   C21   S    
C6    H14   S    
C16   C18   S    
C18   C19   D    
C1    O2    A    
Cu2   N2    S    
C27   C28   A    
C19   H5    S    
C4    C23   S    
Cu2   O4    S    
C16   H2    S    
C16   C17   D    
C2    C28   A    
C28   H12   S    
C25   C26   A    
C14   C15   A    
Cu2   O8    S    
C24   H9    S    
C21   H8    S    
C4    C5    A    
C1    O1    A    
