data_mof_unit_38776.cif
_audit_creation_date              2012-12-11T18:34:28-0500
_audit_creation_method            fapswitch 2.2
_symmetry_space_group_name_H-M    P1
_symmetry_Int_Tables_number       1
_space_group_crystal_system       triclinic
_cell_length_a                    8.315288
_cell_length_b                    14.42098
_cell_length_c                    22.80213
_cell_angle_alpha                 93.867734
_cell_angle_beta                  89.405581
_cell_angle_gamma                 92.012217
_cell_volume                      2726.31062632

loop_
_atom_site_label
_atom_site_type_symbol
_atom_type_description
_atom_site_fract_x
_atom_site_fract_y
_atom_site_fract_z
_atom_type_partial_charge
Ba1   Ba    Ba6+2 0.846250 0.544220 0.470860 1.646371
Ba2   Ba    Ba6+2 0.343570 0.455860 0.529140 1.643403
C1    C     C_3   0.657821 0.879916 0.296046 -0.207990
C2    C     C_3   0.620690 0.787488 0.323387 0.338805
C3    C     C_3   0.515433 0.320574 0.354924 0.286666
C4    C     C_3   0.500617 0.294679 0.289404 -0.367415
C5    C     C_3   0.025286 0.226405 0.693002 0.340680
C6    C     C_3   0.967026 0.158106 0.737257 -0.335269
C7    C     C_3   0.519034 0.219565 0.691795 0.362430
C8    C     C_3   0.473886 0.141908 0.731444 -0.342564
C9    C     C_R   0.335481 0.526263 0.331384 -0.301601
C10   C     C_R   0.093969 0.558807 0.935151 -0.020553
C11   C     C_R   0.047335 0.553458 0.875564 0.591849
C12   C     C_3   0.086765 0.733246 0.305636 0.318726
C13   C     C_R   0.007509 0.388082 0.876396 0.584149
C14   C     C_R   0.046452 0.390635 0.937566 -0.023371
C15   C     C_R   0.091055 0.477630 0.966619 -0.067257
C16   C     C_R   0.141948 0.644415 0.964145 -0.076545
C17   C     C_R   0.186397 0.649984 0.023128 -0.076120
C18   C     C_R   0.181969 0.570403 0.055604 -0.014147
C19   C     C_R   0.133099 0.484136 0.027445 -0.053292
C20   C     C_R   0.042812 0.310041 0.971056 0.050184
C21   C     C_R   0.082119 0.318660 0.031197 -0.064774
C22   C     C_R   0.127284 0.404645 0.059949 -0.047118
C23   C     C_3   0.072387 0.754601 0.241654 -0.317358
C24   C     C_R   0.167464 0.412458 0.120615 0.593473
C25   C     C_R   0.225481 0.575732 0.115638 0.575203
C26   C     C_2   0.810971 0.424944 0.768591 -0.095224
C27   C     C_3   0.778561 0.402615 0.704020 -0.058488
C28   C     C_1   0.006471 0.509209 0.682852 0.002896
C29   C     C_2   0.061907 0.500330 0.737192 -0.136663
C30   C     C_2   0.954154 0.465154 0.784971 0.227162
C31   C     C_R   0.403915 0.547872 0.229523 -0.093873
C32   C     C_R   0.442454 0.558377 0.289390 -0.017504
C33   C     C_R   0.192393 0.479572 0.314713 0.030479
C34   C     C_3   0.169189 0.756456 0.681667 0.653982
C35   C     C_R   0.150914 0.469912 0.254457 -0.103760
C36   C     C_R   0.255694 0.505388 0.210938 0.201536
C37   C     C_2   0.872382 0.464965 0.664445 -0.246281
C38   C     C_R   0.686836 0.939383 0.533728 -0.046564
C39   C     C_R   0.504879 0.804488 0.501166 0.025903
C40   C     C_R   0.363526 0.773370 0.472066 -0.288425
C41   C     C_R   0.259388 0.835127 0.448355 0.028776
C42   C     C_R   0.300293 0.930751 0.450118 -0.013460
C43   C     C_R   0.447855 0.963379 0.476240 0.007794
C44   C     C_R   0.547728 0.901561 0.504212 -0.042167
C45   C     C_3   0.138169 0.712448 0.740157 -0.262116
C46   C     C_R   0.636375 0.094143 0.502215 -0.025507
C47   C     C_R   0.732149 0.034664 0.532493 0.007062
C48   C     C_R   0.682815 0.189425 0.500788 0.027975
C49   C     C_R   0.822136 0.223986 0.529072 -0.274914
C50   C     C_R   0.922691 0.164768 0.555258 0.011727
C51   C     C_R   0.874518 0.071765 0.559386 -0.156668
C52   C     C_R   0.496938 0.057574 0.474500 -0.049445
C53   C     C_3   0.996802 0.256489 0.405123 0.314541
C54   C     C_3   0.937994 0.159775 0.382140 -0.404717
C55   C     C_3   0.690817 0.657064 0.639190 0.263078
C56   C     C_3   0.710024 0.677928 0.705369 -0.402725
H1    H     H_    0.675353 0.790358 0.367816 0.081058
H2    H     H_    0.227609 0.659463 0.747414 0.057290
H3    H     H_    0.152150 0.766159 0.777253 0.137788
H4    H     H_    0.015076 0.683082 0.742588 0.093832
H5    H     H_    0.892979 0.295245 0.422980 0.011996
H6    H     H_    0.086777 0.250446 0.440200 0.039211
H7    H     H_    0.835455 0.164897 0.351945 0.147277
H8    H     H_    0.899536 0.117465 0.418874 0.056545
H9    H     H_    0.035650 0.124177 0.357107 0.131016
H10   H     H_    0.808159 0.638963 0.619715 0.037160
H11   H     H_    0.604456 0.597186 0.631672 0.096285
H12   H     H_    0.789778 0.889698 0.289963 0.148277
H13   H     H_    0.781851 0.743585 0.714137 0.135356
H14   H     H_    0.768235 0.619961 0.725052 0.075421
H15   H     H_    0.593108 0.684971 0.728387 0.121771
H16   H     H_    0.487837 0.776736 0.327120 -0.044982
H17   H     H_    0.395504 0.340352 0.372365 0.028591
H18   H     H_    0.602180 0.380714 0.361178 0.064442
H19   H     H_    0.411745 0.235897 0.281776 0.139386
H20   H     H_    0.459909 0.354876 0.266418 0.076179
H21   H     H_    0.619178 0.273957 0.270927 0.125281
H22   H     H_    0.599898 0.878809 0.252269 0.126781
H23   H     H_    0.068367 0.688437 0.214046 0.125508
H24   H     H_    0.076882 0.289991 0.716919 0.082941
H25   H     H_    0.918415 0.245797 0.668436 -0.079580
H26   H     H_    0.066291 0.142791 0.766841 0.134124
H27   H     H_    0.867409 0.188254 0.764224 0.116325
H28   H     H_    0.921936 0.092460 0.713862 0.098112
H29   H     H_    0.652317 0.222988 0.689026 -0.085689
H30   H     H_    0.470448 0.201630 0.647103 0.086368
H31   H     H_    0.521299 0.075302 0.712392 0.066990
H32   H     H_    0.341541 0.134038 0.735935 0.153447
H33   H     H_    0.999995 0.675097 0.313559 0.106372
H34   H     H_    0.526631 0.157777 0.775683 0.109652
H35   H     H_    0.077760 0.257010 0.055927 0.122691
H36   H     H_    0.223044 0.717408 0.043409 0.121769
H37   H     H_    0.489852 0.571984 0.197469 0.114207
H38   H     H_    0.145976 0.707801 0.941151 0.119535
H39   H     H_    0.189564 0.507353 0.745800 0.126390
H40   H     H_    0.729410 0.397306 0.801105 0.095086
H41   H     H_    0.038650 0.434460 0.241576 0.121669
H42   H     H_    0.368270 0.533042 0.377312 0.081587
H43   H     H_    0.211384 0.711633 0.313423 -0.043872
H44   H     H_    0.845474 0.456827 0.617887 0.074783
H45   H     H_    0.330268 0.700011 0.470089 0.082574
H46   H     H_    0.948784 0.030533 0.583979 0.058562
H47   H     H_    0.857357 0.296816 0.527918 0.056994
H48   H     H_    0.761566 0.895295 0.557185 0.073564
H49   H     H_    0.426551 0.103089 0.450629 0.109389
H50   H     H_    0.959479 0.790594 0.234326 0.134317
H51   H     H_    0.176536 0.799090 0.228480 0.130018
N1    N     N_R   0.005089 0.468969 0.846575 -0.420033
N2    N     N_R   0.214075 0.497756 0.148357 -0.422553
O1    O     O_2   0.901900 0.448470 0.362340 -0.459910
O2    O     O_3   0.635792 0.736249 0.614280 -0.658489
O3    O     O_3   0.050273 0.812500 0.341799 -0.613683
O4    O     O_2   0.287790 0.551560 0.637690 -0.469816
O5    O     O_3   0.047460 0.550640 0.566640 -0.458675
O6    O     O_3   0.544140 0.380990 0.608030 -0.470802
O7    O     O_3   0.116731 0.701878 0.629889 -0.657407
O8    O     O_3   0.640350 0.387150 0.474440 -0.477917
O9    O     O_3   0.136890 0.332750 0.580830 -0.467208
O10   O     O_2   0.259950 0.167346 0.550711 -0.493591
O11   O     O_3   0.145881 0.185714 0.657073 -0.596327
O12   O     O_3   0.142240 0.449440 0.433360 -0.489463
O13   O     O_3   0.549340 0.612930 0.525560 -0.478718
O14   O     O_2   0.396530 0.270940 0.479440 -0.457015
O15   O     O_3   0.569871 0.243712 0.382559 -0.654045
O16   O     O_2   0.478358 0.484936 0.706371 -0.498374
O17   O     O_3   0.455039 0.303598 0.715129 -0.577710
O18   O     O_2   0.041599 0.624661 0.849767 -0.617159
O19   O     O_2   0.977000 0.313863 0.849330 -0.630419
O20   O     O_2   0.163588 0.342813 0.148363 -0.597537
O21   O     O_2   0.273488 0.650335 0.138704 -0.617740
O22   O     O_3   0.645560 0.619080 0.391970 -0.487925
O23   O     O_2   0.772647 0.545520 0.291991 -0.490775
O24   O     O_3   0.068779 0.300010 0.358315 -0.628809
O25   O     O_3   0.687468 0.716098 0.286998 -0.610338
O26   O     O_2   0.793170 0.729090 0.520590 -0.450339
O27   O     O_3   0.052800 0.667320 0.419180 -0.485039
O28   O     O_2   0.920527 0.829020 0.446178 -0.491129
P1    P     P_3+3 0.074990 0.420800 0.372080 0.994151
P2    P     P_3+3 0.618830 0.715330 0.538180 0.978894
P3    P     P_3+3 0.070038 0.786729 0.415285 0.945623
P4    P     P_3+3 0.114710 0.579280 0.627920 0.967482
P5    P     P_3+3 0.116789 0.211926 0.584293 0.960304
P6    P     P_3+3 0.636594 0.608905 0.314997 0.940475
P7    P     P_3+3 0.576272 0.271209 0.458384 0.931534
P8    P     P_3+3 0.562363 0.395112 0.684357 0.963309
C57   C     C_3   0.598322 0.962103 0.334588 -0.493890
H52   H     H_    0.661249 0.966628 0.377436 0.147188
H53   H     H_    0.624200 0.027568 0.312737 0.155663
H54   H     H_    0.466612 0.954175 0.341530 0.141116
C58   C     C_3   0.996170 0.213757 0.945048 -0.327003
H55   H     H_    0.082453 0.192109 0.909669 0.151678
H56   H     H_    0.997885 0.160748 0.978173 0.085411
H57   H     H_    0.871972 0.212853 0.927550 0.147722
C59   C     C_3   0.187618 0.998892 0.425583 -0.394693
H58   H     H_    0.072228 0.968451 0.408954 0.153965
H59   H     H_    0.156618 0.052692 0.460557 0.122195
H60   H     H_    0.246737 0.032296 0.388223 0.099237
C60   C     C_3   0.348391 0.776331 0.676706 -0.223146
H61   H     H_    0.401855 0.708343 0.669005 0.097187
H62   H     H_    0.379401 0.819643 0.639706 0.094213
H63   H     H_    0.397552 0.812722 0.717554 0.065279
O29   O     O_3   0.095821 0.844602 0.687013 -0.661843
C61   C     C_3   0.010533 0.867196 0.636895 0.301098
H64   H     H_    0.919304 0.812416 0.623300 0.102394
H65   H     H_    0.941023 0.929280 0.650209 0.037838
C62   C     C_3   0.123156 0.888763 0.585476 -0.352046
H66   H     H_    0.194970 0.828505 0.570994 0.110075
H67   H     H_    0.205062 0.949194 0.597995 0.119550
H68   H     H_    0.052426 0.903515 0.546574 0.087221

loop_
_geom_bond_atom_site_label_1
_geom_bond_atom_site_label_2
_ccdc_geom_bond_type
C5    H25   S    
C53   C54   S    
C61   H64   S    
C25   O21   D    
C16   H38   S    
C39   C40   A    
O1    P1    D    
C17   C18   A    
O9    P5    S    
C57   H54   S    
O11   P5    S    
C40   H45   S    
C45   H4    S    
O15   P7    S    
C5    C6    S    
Ba2   O12   S    
C42   C43   A    
O8    P7    S    
C38   C44   A    
C50   P5    S    
C30   N1    S    
C52   H49   S    
O3    P3    S    
C26   C27   S    
C33   C35   A    
C22   C24   A    
C6    H27   S    
O14   P7    D    
C7    H30   S    
C28   C29   D    
O28   P3    D    
C53   O24   S    
C56   H13   S    
C4    H20   S    
C51   H46   S    
C13   C14   A    
C34   C45   S    
C16   C17   A    
Ba1   O8    S    
C45   H2    S    
Ba2   O5    S    
C59   H59   S    
C62   H68   S    
C8    H31   S    
C14   C15   A    
C53   H5    S    
C3    O15   S    
C39   C44   A    
C54   H8    S    
Ba1   O5    S    
C34   O7    S    
C7    C8    S    
C2    H16   S    
O25   P6    S    
C23   H51   S    
C2    O25   S    
C48   P7    S    
C46   C48   A    
C8    H34   S    
C1    C57   S    
C61   H65   S    
C23   H23   S    
Ba2   P4    S    
O10   P5    D    
Ba1   O22   S    
C1    H22   S    
C31   H37   S    
Ba2   O6    S    
C48   C49   A    
O4    P4    D    
C9    C32   A    
O24   P1    S    
C12   H33   S    
C20   C58   S    
C7    O17   S    
C49   C50   A    
C42   C59   S    
C60   H63   S    
C62   H66   S    
C26   C30   D    
C1    H12   S    
Ba1   P2    S    
C57   H52   S    
O7    P4    S    
O27   P3    S    
Ba2   O9    S    
C12   H43   S    
C55   O2    S    
C12   O3    S    
O12   P1    S    
C15   C19   A    
C28   P4    S    
C21   H35   S    
C9    H42   S    
C60   H62   S    
C3    H17   S    
C46   C52   A    
C41   C42   A    
Ba1   O12   S    
C27   P8    S    
C35   C36   A    
C33   P1    S    
O5    P4    S    
Ba2   O4    S    
C56   H15   S    
C29   C30   S    
C58   H57   S    
C21   C22   A    
C53   H6    S    
C27   C37   S    
C31   C32   A    
Ba1   O27   S    
C10   C11   A    
Ba1   P1    S    
C11   N1    Am   
C17   H36   S    
C46   C47   A    
C58   H56   S    
C43   C52   A    
C61   C62   S    
O13   P2    S    
O22   P6    S    
C40   C41   A    
C5    O11   S    
C1    C2    S    
C35   H41   S    
Ba1   O26   S    
C50   C51   A    
C37   H44   S    
C38   H48   S    
C26   H40   S    
C54   H7    S    
O23   P6    D    
O26   P2    D    
O29   C61   S    
C14   C20   A    
C6    H26   S    
C59   H60   S    
C57   H53   S    
C4    H19   S    
C45   H3    S    
Ba2   O8    S    
O17   P8    S    
C18   C25   A    
Ba2   O13   S    
C54   H9    S    
C39   P2    S    
C31   C36   A    
O6    P8    S    
C60   H61   S    
C3    H18   S    
C9    C33   A    
Ba1   O13   S    
Ba1   O1    S    
C7    H29   S    
C10   C15   A    
C56   H14   S    
C55   C56   S    
C3    C4    S    
C13   O19   D    
C47   C51   A    
Ba1   Ba2   S    
C2    H1    S    
C62   H67   S    
C32   P6    S    
O2    P2    S    
C28   C37   D    
C6    H28   S    
C29   H39   S    
C12   C23   S    
C49   H47   S    
C13   N1    Am   
C34   C60   S    
C4    H21   S    
Ba2   O14   S    
C43   C44   A    
C5    H24   S    
C59   H58   S    
C18   C19   A    
C8    H32   S    
C19   C22   A    
C10   C16   A    
C34   O29   S    
C11   O18   D    
C20   C21   A    
C41   P3    S    
C58   H55   S    
C55   H10   S    
C55   H11   S    
C36   N2    S    
C24   N2    Am   
C25   N2    Am   
C24   O20   D    
C38   C47   A    
C23   H50   S    
O16   P8    D    
