data_mof_unit_14191.cif
_audit_creation_date              2012-12-10T16:49:29-0500
_audit_creation_method            fapswitch 2.2
_symmetry_space_group_name_H-M    P1
_symmetry_Int_Tables_number       1
_space_group_crystal_system       triclinic
_cell_length_a                    7.738246
_cell_length_b                    8.632268
_cell_length_c                    12.733174
_cell_angle_alpha                 90.510607
_cell_angle_beta                  86.361125
_cell_angle_gamma                 93.229052
_cell_volume                      847.483713794

loop_
_atom_site_label
_atom_site_type_symbol
_atom_type_description
_atom_site_fract_x
_atom_site_fract_y
_atom_site_fract_z
_atom_type_partial_charge
C1    C     C_R   0.455338 0.205715 0.497040 0.912943
C2    C     C_R   0.692419 0.417301 0.138804 -0.189175
C3    C     C_R   0.532821 0.399585 0.871621 -0.098192
C4    C     C_R   0.467178 0.600415 0.128379 -0.098192
C5    C     C_R   0.559122 0.448062 0.975038 0.016085
C6    C     C_R   0.440878 0.551937 0.024962 0.016085
C7    C     C_2   0.431407 0.043486 0.495143 0.323469
C8    C     C_2   0.568593 0.956514 0.504857 0.323469
C9    C     C_2   0.417395 0.757321 0.166872 0.403211
C10   C     C_2   0.582604 0.242678 0.833128 0.403211
C11   C     C_2   0.140978 0.662078 0.023097 0.403213
C12   C     C_R   0.544662 0.794285 0.502960 0.912943
C13   C     C_2   0.859021 0.337921 0.976903 0.403213
C14   C     C_R   0.462033 0.497375 0.700087 0.934106
C15   C     C_R   0.537967 0.502625 0.299913 0.934106
C16   C     C_R   0.569221 0.509932 0.187674 -0.077006
C17   C     C_R   0.430779 0.490068 0.812326 -0.077006
C18   C     C_R   0.300597 0.602158 0.969636 -0.023843
C19   C     C_R   0.699403 0.397841 0.030364 -0.023842
C20   C     C_R   0.307581 0.582699 0.861196 -0.189175
F1    F     F_    0.266686 0.983902 0.482972 -0.606799
F2    F     F_    0.733314 0.016098 0.517028 -0.606799
H1    H     H_    0.784241 0.362407 0.185262 0.204131
H2    H     H_    0.215759 0.637593 0.814738 0.204132
H3    H     H_    0.999071 0.614879 0.421869 0.222204
H4    H     H_    0.000929 0.385121 0.578131 0.222204
H5    H     H_    0.364344 0.837559 0.114165 0.085373
H6    H     H_    0.635656 0.162441 0.885835 0.085374
H7    H     H_    0.113096 0.644945 0.106889 0.078390
H8    H     H_    0.886904 0.355054 0.893111 0.078391
N1    N     N_2   0.054030 0.541640 0.471970 -0.148581
N2    N     N_2   0.945970 0.458360 0.528030 -0.148581
O1    O     O_R   0.609680 0.261530 0.506880 -0.554856
O2    O     O_2   0.554808 0.196288 0.744633 -0.556184
O3    O     O_2   0.036512 0.727857 0.973814 -0.548342
O4    O     O_2   0.963487 0.272142 0.026186 -0.548342
O5    O     O_R   0.390320 0.738470 0.493120 -0.554856
O6    O     O_R   0.323330 0.288220 0.488910 -0.592259
O7    O     O_R   0.676670 0.711780 0.511090 -0.592258
O8    O     O_R   0.619510 0.488830 0.661140 -0.589692
O9    O     O_R   0.380490 0.511170 0.338860 -0.589693
O10   O     O_R   0.333160 0.515520 0.643180 -0.651327
O11   O     O_R   0.666840 0.484480 0.356820 -0.651327
O12   O     O_2   0.445191 0.803712 0.255367 -0.556184
Zn1   Zn    Zn3+2 0.691200 0.482180 0.511990 1.053130
Zn2   Zn    Zn3+2 0.308800 0.517820 0.488010 1.053130

loop_
_geom_bond_atom_site_label_1
_geom_bond_atom_site_label_2
_ccdc_geom_bond_type
C4    C16   A    
C8    F2    S    
O9    Zn2   S    
C11   C18   S    
H3    N1    S    
O7    Zn1   S    
C5    C19   A    
O1    Zn1   S    
N2    Zn1   S    
N1    N2    D    
C9    H5    S    
C8    C12   S    
C14   O10   A    
C12   O7    A    
C11   O3    D    
O5    Zn2   S    
C1    O1    A    
C7    C8    D    
C10   O2    D    
C3    C10   S    
C1    C7    S    
H4    N2    S    
O11   Zn1   S    
C14   C17   S    
C15   O9    A    
C5    C6    A    
C1    O6    A    
C3    C17   A    
C18   C20   A    
O8    Zn1   S    
C6    C18   A    
O6    Zn2   S    
C13   C19   S    
C15   O11   A    
C15   C16   S    
C13   H8    S    
C2    H1    S    
C17   C20   A    
C2    C16   A    
C11   H7    S    
C13   O4    D    
C4    C6    A    
O10   Zn2   S    
C10   H6    S    
C12   O5    A    
C9    O12   D    
C4    C9    S    
C7    F1    S    
C14   O8    A    
C20   H2    S    
C2    C19   A    
C3    C5    A    
N1    Zn2   S    
