data_mof_unit_58345.cif
_audit_creation_date              2012-12-11T15:10:41-0500
_audit_creation_method            fapswitch 2.2
_symmetry_space_group_name_H-M    P1
_symmetry_Int_Tables_number       1
_space_group_crystal_system       triclinic
_cell_length_a                    21.108232
_cell_length_b                    7.237808
_cell_length_c                    18.260509
_cell_angle_alpha                 89.992562
_cell_angle_beta                  93.541364
_cell_angle_gamma                 89.980861
_cell_volume                      2784.46442546

loop_
_atom_site_label
_atom_site_type_symbol
_atom_type_description
_atom_site_fract_x
_atom_site_fract_y
_atom_site_fract_z
_atom_type_partial_charge
O1    O     O_R   0.448880 0.506250 0.415280 -0.531034
O2    O     O_R   0.551120 0.006250 0.584720 -0.531179
O3    O     O_R   0.434830 0.174000 0.557310 -0.519289
O4    O     O_R   0.565170 0.674000 0.442690 -0.519231
C1    C     C_R   0.416930 0.344599 0.579583 0.694644
C2    C     C_R   0.583072 0.844578 0.420416 0.694889
O5    O     O_R   0.441680 0.176440 0.414130 -0.529114
O6    O     O_R   0.558320 0.676440 0.585870 -0.529009
O7    O     O_R   0.558020 0.007570 0.440520 -0.519396
O8    O     O_R   0.441980 0.507570 0.559480 -0.519397
C3    C     C_R   0.427883 0.344881 0.388342 0.673376
C4    C     C_R   0.572128 0.844807 0.611660 0.673351
O9    O     O_3   0.538160 0.339670 0.508820 -0.361996
O10   O     O_3   0.461840 0.839670 0.491180 -0.362064
V1    V     V_3+5 0.492920 0.064260 0.498360 1.451986
V2    V     V_3+5 0.507080 0.564260 0.501640 1.452416
C5    C     C_R   0.881264 0.945474 0.684151 0.308153
C6    C     C_R   0.118499 0.439924 0.315902 0.308057
C7    C     C_R   0.889116 0.941329 0.817816 -0.148801
C8    C     C_R   0.110857 0.440794 0.182190 -0.148728
C9    C     C_R   0.585044 0.804882 0.745422 -0.159271
C10   C     C_R   0.415205 0.308416 0.254398 -0.159545
C11   C     C_R   0.621050 0.797326 0.811628 -0.127511
C12   C     C_R   0.379302 0.302350 0.188086 -0.127351
C13   C     C_R   0.686001 0.833227 0.814475 -0.138547
C14   C     C_R   0.314255 0.336904 0.185310 -0.138540
C15   C     C_R   0.717075 0.880272 0.750456 0.112293
C16   C     C_R   0.282968 0.380999 0.249527 0.112165
C17   C     C_R   0.679528 0.888739 0.682736 0.016572
C18   C     C_R   0.320393 0.387775 0.317365 0.016456
C19   C     C_R   0.784292 0.913285 0.751381 0.010688
C20   C     C_R   0.215670 0.412706 0.248657 0.010681
C21   C     C_R   0.813542 0.942899 0.683716 -0.073716
C22   C     C_R   0.186235 0.439019 0.316440 -0.073997
C23   C     C_R   0.773677 0.968693 0.618739 0.318637
C24   C     C_R   0.225934 0.463262 0.381640 0.318792
C25   C     C_R   0.708606 0.937138 0.618821 -0.228132
C26   C     C_R   0.291098 0.433216 0.381496 -0.228038
C27   C     C_R   0.823293 0.918130 0.817721 -0.248792
C28   C     C_R   0.176761 0.419324 0.182268 -0.248716
C29   C     C_R   0.918210 0.951212 0.751115 0.204163
C30   C     C_R   0.081629 0.447239 0.248903 0.204105
C31   C     C_R   0.613178 0.850479 0.680558 -0.062704
C32   C     C_R   0.386847 0.350987 0.319449 -0.062428
H1    H     H_    0.803874 0.908644 0.870762 0.109055
H2    H     H_    0.196298 0.412308 0.129213 0.108982
H3    H     H_    0.534802 0.773564 0.744658 0.103481
H4    H     H_    0.465548 0.278436 0.255082 0.103401
H5    H     H_    0.710582 0.818748 0.867579 0.104216
H6    H     H_    0.289776 0.323774 0.132085 0.104124
H7    H     H_    0.598528 0.760670 0.861291 0.118309
H8    H     H_    0.401997 0.268049 0.138263 0.118249
H9    H     H_    0.680289 0.955528 0.567838 0.140521
H10   H     H_    0.319296 0.450369 0.432633 0.139800
C33   C     C_1   0.864779 0.939015 0.132427 -0.151804
C34   C     C_1   0.135215 0.438955 0.867571 -0.151822
C35   C     C_1   0.822047 0.924970 0.176340 0.046433
C36   C     C_1   0.177947 0.424918 0.823657 0.046427
C37   C     C_1   0.771570 0.905849 0.228569 0.040739
C38   C     C_1   0.228425 0.405829 0.771425 0.040770
C39   C     C_1   0.729015 0.889204 0.272579 0.040587
C40   C     C_1   0.270981 0.389217 0.727415 0.040738
C41   C     C_1   0.678407 0.870047 0.324637 0.040316
C42   C     C_1   0.321592 0.370093 0.675358 0.040484
C43   C     C_1   0.635469 0.855952 0.368278 -0.175396
C44   C     C_1   0.364533 0.356008 0.631718 -0.175499
O11   O     O_R   0.058070 0.289240 0.940580 -0.515905
O12   O     O_R   0.941930 0.789240 0.059420 -0.516133
O13   O     O_R   0.058330 0.616740 0.085880 -0.529108
O14   O     O_R   0.941670 0.116740 0.914120 -0.529004
C45   C     C_R   0.071914 0.448643 0.111928 0.752320
C46   C     C_R   0.928089 0.948721 0.888066 0.752380
O15   O     O_R   0.065180 0.619040 0.942700 -0.520503
O16   O     O_R   0.934820 0.119040 0.057300 -0.520264
O17   O     O_R   0.948870 0.787780 0.915270 -0.525568
O18   O     O_R   0.051130 0.287780 0.084730 -0.525446
C47   C     C_R   0.083113 0.450331 0.920099 0.708550
C48   C     C_R   0.916884 0.950353 0.079900 0.708549
O19   O     O_3   0.961870 0.453310 0.991210 -0.369151
O20   O     O_3   0.038130 0.953310 0.008790 -0.369167
V3    V     V_3+5 0.007070 0.728770 0.001630 1.497853
V4    V     V_3+5 0.992930 0.228770 0.998370 1.498449
Br1   Br    Br    0.009700 0.969902 0.752437 -0.419682
Br2   Br    Br    0.990067 0.463394 0.247530 -0.419747
Br3   Br    Br    0.799052 0.082961 0.529904 -0.396269
Br4   Br    Br    0.200101 0.573628 0.471080 -0.395406
Br5   Br    Br    0.926717 0.900917 0.597127 -0.241710
Br6   Br    Br    0.073059 0.390699 0.402595 -0.242051

loop_
_geom_bond_atom_site_label_1
_geom_bond_atom_site_label_2
_ccdc_geom_bond_type
C12   H8    S    
C10   H4    S    
C41   C43   T    
O20   V3    S    
C15   C17   A    
O11   C47   A    
O2    C4    A    
C2    O7    A    
O5    C3    A    
O12   V3    S    
C23   C25   A    
C12   C14   A    
C4    C31   S    
C14   H6    S    
C45   O18   A    
C8    C28   A    
C35   C37   S    
C36   C38   S    
C29   Br1   S    
C18   C26   A    
C38   C40   T    
O13   C45   A    
C40   C42   S    
C9    C31   A    
C2    C43   S    
C10   C32   A    
C19   C27   A    
O1    C3    A    
C19   C21   A    
C8    C45   S    
C27   H1    S    
C25   H9    S    
O5    V1    S    
O6    V2    S    
C17   C31   A    
C18   C32   A    
C7    C46   S    
C5    C21   A    
O16   V4    S    
C46   O17   A    
O15   V3    S    
C13   H5    S    
C9    C11   A    
O12   C48   A    
C37   C39   T    
C15   C19   A    
C16   C20   A    
C30   Br2   S    
O4    C2    A    
O18   V4    S    
C33   C48   S    
O17   V3    S    
C24   Br4   S    
C6    Br6   S    
C34   C47   S    
C20   C22   A    
O4    V2    S    
C28   H2    S    
C11   H7    S    
C26   H10   S    
O6    C4    A    
C39   C41   S    
C3    C32   S    
O1    V2    S    
O2    V1    S    
C6    C22   A    
C7    C27   A    
C33   C35   T    
C10   C12   A    
C24   C26   A    
C20   C28   A    
O3    V1    S    
C5    Br5   S    
C1    C44   S    
O3    C1    A    
O19   V4    S    
C8    C30   A    
C13   C15   A    
C14   C16   A    
C6    C30   A    
O7    V1    S    
C1    O8    A    
O8    V2    S    
C23   Br3   S    
C16   C18   A    
C21   C23   A    
C34   C36   T    
C22   C24   A    
C11   C13   A    
O14   V4    S    
C5    C29   A    
O13   V3    S    
O11   V4    S    
O16   C48   A    
O9    V2    S    
C17   C25   A    
O15   C47   A    
O10   V1    S    
O14   C46   A    
C7    C29   A    
C42   C44   T    
C9    H3    S    
