data_mof_unit_57514.cif
_audit_creation_date              2012-12-10T17:11:27-0500
_audit_creation_method            fapswitch 2.2
_symmetry_space_group_name_H-M    P1
_symmetry_Int_Tables_number       1
_space_group_crystal_system       triclinic
_cell_length_a                    15.035534
_cell_length_b                    12.953276
_cell_length_c                    11.785223
_cell_angle_alpha                 99.198297
_cell_angle_beta                  91.916259
_cell_angle_gamma                 92.058694
_cell_volume                      2262.5191429

loop_
_atom_site_label
_atom_site_type_symbol
_atom_type_description
_atom_site_fract_x
_atom_site_fract_y
_atom_site_fract_z
_atom_type_partial_charge
C1    C     C_R   0.497716 0.299618 0.479199 0.810465
C2    C     C_R   0.502324 0.700382 0.520796 0.810125
C3    C     C_R   0.040665 0.310068 0.499114 0.170011
C4    C     C_R   0.960379 0.690819 0.501570 0.096855
C5    C     C_R   0.506737 0.813587 0.532158 -0.127160
C6    C     C_R   0.493412 0.186411 0.467805 -0.127042
C7    C     C_R   0.446601 0.017088 0.358763 0.461835
C8    C     C_R   0.553676 0.982899 0.641132 0.458359
C9    C     C_R   0.452659 0.126090 0.369498 -0.287755
C10   C     C_R   0.547554 0.873896 0.630430 -0.289772
C11   C     C_R   0.527539 0.138954 0.557154 -0.235206
C12   C     C_R   0.472673 0.861046 0.442777 -0.230945
C13   C     C_R   0.520808 0.030670 0.549829 0.017508
C14   C     C_R   0.479454 0.969323 0.450076 0.017726
C15   C     C_R   0.407559 0.409130 0.030569 0.374095
C16   C     C_R   0.592492 0.590814 0.969426 0.373243
C17   C     C_R   0.416789 0.419571 0.150735 -0.066152
C18   C     C_R   0.583230 0.580406 0.849261 -0.066652
C19   C     C_R   0.543909 0.534032 0.151759 0.308126
C20   C     C_R   0.456111 0.465951 0.848251 0.307800
C21   C     C_R   0.534578 0.531692 0.030814 -0.138551
C22   C     C_R   0.465453 0.468285 0.969191 -0.138630
C23   C     C_R   0.329668 0.499792 0.501795 0.797800
C24   C     C_R   0.670329 0.500219 0.498201 0.804526
C25   C     C_R   0.814523 0.595134 0.502560 0.076956
C26   C     C_R   0.185357 0.405216 0.498871 0.101640
C27   C     C_R   0.766409 0.499868 0.494349 -0.128268
C28   C     C_R   0.233648 0.500234 0.505626 -0.174905
C29   C     C_R   0.808051 0.404554 0.486962 0.081447
C30   C     C_R   0.191795 0.595311 0.511309 0.106397
C31   C     C_R   0.902170 0.403287 0.492785 0.069563
C32   C     C_R   0.097735 0.596210 0.506264 0.079896
C33   C     C_R   0.952608 0.499970 0.498400 -0.080358
C34   C     C_R   0.047159 0.500166 0.501568 -0.116593
C35   C     C_R   0.908620 0.596465 0.500878 0.072763
C36   C     C_R   0.091334 0.404296 0.499927 0.082804
C37   C     C_R   0.947735 0.309045 0.494830 0.094702
C38   C     C_R   0.053258 0.690323 0.504320 0.167397
Cu1   Cu    Cu3+1 0.506660 0.507730 0.615930 0.916579
Cu2   Cu    Cu3+1 0.493340 0.492270 0.384070 0.916494
H1    H     H_    0.441329 0.813098 0.367187 0.203117
H2    H     H_    0.558862 0.186912 0.632753 0.202492
H3    H     H_    0.576980 0.836133 0.697392 0.152003
H4    H     H_    0.423220 0.163839 0.302534 0.152477
H5    H     H_    0.628999 0.623227 0.803125 0.154265
H6    H     H_    0.371031 0.376732 0.196866 0.155077
N1    N     N_R   0.516670 0.519360 0.790130 -0.225016
N2    N     N_R   0.483330 0.480640 0.209870 -0.225120
O1    O     O_R   0.504720 0.354460 0.582000 -0.600517
O2    O     O_R   0.495280 0.645540 0.418000 -0.600727
O3    O     O_R   0.493480 0.341410 0.386200 -0.585242
O4    O     O_R   0.506520 0.658590 0.613800 -0.584612
O5    O     O_R   0.375880 0.506510 0.597910 -0.600974
O6    O     O_R   0.624120 0.493490 0.402090 -0.602187
O7    O     O_R   0.364640 0.493450 0.402110 -0.576305
O8    O     O_R   0.635360 0.506550 0.597890 -0.577688
N3    N     N_3   0.766588 0.690098 0.514915 -0.622025
H7    H     H_    0.722693 0.687825 0.443783 0.214704
H8    H     H_    0.730081 0.696152 0.589519 0.223228
N4    N     N_3   0.232577 0.309662 0.488490 -0.544052
H9    H     H_    0.269595 0.302415 0.414269 0.215993
H10   H     H_    0.276060 0.312651 0.560129 0.214266
O9    O     O_3   0.339365 0.343556 0.975512 -0.551379
C39   C     C_3   0.369362 0.240372 0.956142 0.065438
H11   H     H_    0.385457 0.212686 0.038954 0.121030
H12   H     H_    0.429195 0.235536 0.902622 0.150003
C40   C     C_3   0.296355 0.167636 0.891599 -0.750550
H13   H     H_    0.280594 0.191455 0.806959 0.254308
H14   H     H_    0.318820 0.086000 0.877259 0.186365
H15   H     H_    0.235357 0.170756 0.942435 0.253052
O10   O     O_3   0.660773 0.656263 0.024463 -0.552320
C41   C     C_3   0.630902 0.759499 0.043946 0.068950
H16   H     H_    0.571049 0.764387 0.097431 0.149954
H17   H     H_    0.614891 0.787295 0.961172 0.120646
C42   C     C_3   0.703970 0.832062 0.108613 -0.759913
H18   H     H_    0.764986 0.828903 0.057809 0.253411
H19   H     H_    0.681604 0.913739 0.123061 0.186255
H20   H     H_    0.719663 0.808112 0.193207 0.250018
N5    N     N_3   0.753418 0.309652 0.473380 -0.621762
H21   H     H_    0.713050 0.304339 0.398496 0.226527
H22   H     H_    0.712950 0.311395 0.544075 0.229718
N6    N     N_3   0.245724 0.690722 0.522178 -0.542601
H23   H     H_    0.286776 0.697582 0.596630 0.218946
H24   H     H_    0.285596 0.687833 0.450806 0.230121
N7    N     N_3   0.902717 0.209397 0.495462 -0.604453
H25   H     H_    0.863164 0.212830 0.567125 0.260644
H26   H     H_    0.866426 0.185661 0.417936 0.258428
N8    N     N_3   0.102221 0.787565 0.503279 -0.530542
H27   H     H_    0.085993 0.841184 0.574955 0.238409
H28   H     H_    0.083886 0.816939 0.428596 0.243316
N9    N     N_3   0.083296 0.213301 0.504733 -0.532668
H29   H     H_    0.063338 0.184414 0.578255 0.238315
H30   H     H_    0.063267 0.159066 0.432008 0.242324
N10   N     N_3   0.921839 0.790002 0.496581 -0.605434
H31   H     H_    0.888843 0.815042 0.572074 0.262077
H32   H     H_    0.880380 0.785108 0.422765 0.255311
O11   O     O_3   0.401212 0.957539 0.264896 -0.579028
C43   C     C_3   0.447979 0.963767 0.164048 0.049429
H33   H     H_    0.519446 0.946335 0.175786 0.132340
H34   H     H_    0.443098 0.042578 0.138880 0.136242
C44   C     C_3   0.406765 0.883813 0.066054 -0.795212
H35   H     H_    0.336428 0.901950 0.048847 0.259837
H36   H     H_    0.444353 0.885928 0.986916 0.178863
H37   H     H_    0.408804 0.803953 0.088853 0.244953
O12   O     O_3   0.599115 0.042444 0.734962 -0.583019
C45   C     C_3   0.552416 0.036219 0.835863 0.052191
H38   H     H_    0.557386 0.957433 0.861072 0.136316
H39   H     H_    0.480925 0.053571 0.824180 0.134230
C46   C     C_3   0.593625 0.116251 0.933787 -0.801152
H40   H     H_    0.591492 0.196090 0.910946 0.245070
H41   H     H_    0.556096 0.114127 0.012970 0.179569
H42   H     H_    0.663993 0.098203 0.950938 0.258895
N11   N     N_3   0.379169 0.411707 0.789484 -0.526855
H43   H     H_    0.395588 0.360956 0.716550 0.246062
H44   H     H_    0.332462 0.465525 0.772769 0.246273
N12   N     N_3   0.620872 0.588237 0.210534 -0.528487
H45   H     H_    0.604498 0.638962 0.283515 0.245834
H46   H     H_    0.667573 0.534390 0.227187 0.245424

loop_
_geom_bond_atom_site_label_1
_geom_bond_atom_site_label_2
_ccdc_geom_bond_type
C8    C13   A    
C27   C29   A    
N8    H28   S    
C17   N2    A    
C8    O12   S    
C6    C9    A    
O11   C43   S    
N7    H25   S    
C16   C21   A    
C3    C36   A    
C37   N7    S    
C19   C21   A    
C46   H41   S    
C20   N11   S    
N3    H8    S    
C45   H38   S    
C24   O6    A    
N12   H45   S    
C11   H2    S    
C3    N9    S    
Cu2   N2    S    
N6    H24   S    
C2    O2    A    
C15   C22   A    
C24   C27   S    
C32   C38   A    
C7    C14   A    
N9    H29   S    
Cu1   O4    S    
C4    C35   A    
C44   H36   S    
C21   C22   A    
C18   N1    A    
C16   O10   S    
C25   N3    S    
C41   C42   S    
C44   H35   S    
C23   O5    A    
N7    H26   S    
C40   H13   S    
C39   C40   S    
C17   H6    S    
C5    C12   A    
C41   H17   S    
C46   H42   S    
C6    C11   A    
N5    H22   S    
C19   N2    A    
O9    C39   S    
C31   C37   A    
C38   N8    S    
N4    H9    S    
C40   H14   S    
C39   H12   S    
C30   N6    S    
C42   H18   S    
C12   H1    S    
N9    H30   S    
C42   H19   S    
Cu1   O8    S    
C29   N5    S    
Cu2   O7    S    
C31   C33   A    
C33   C34   A    
C16   C18   A    
C23   C28   S    
N10   H32   S    
C1    O3    A    
C26   N4    S    
C2    O4    A    
C25   C35   A    
C4    N10   S    
C26   C36   A    
Cu1   O1    S    
C12   C14   A    
N6    H23   S    
C44   H37   S    
Cu2   O6    S    
C2    C5    S    
C24   O8    A    
C43   C44   S    
C18   H5    S    
Cu1   Cu2   S    
Cu1   N1    S    
N11   H43   S    
C15   C17   A    
C9    H4    S    
C7    O11   S    
C10   H3    S    
C43   H34   S    
C20   C22   A    
C41   H16   S    
C23   O7    A    
C25   C27   A    
Cu2   O3    S    
O12   C45   S    
C26   C28   A    
C40   H15   S    
C39   H11   S    
C28   C30   A    
O10   C41   S    
C29   C31   A    
C46   H40   S    
N4    H10   S    
C30   C32   A    
C11   C13   A    
N3    H7    S    
Cu1   O5    S    
C45   H39   S    
C19   N12   S    
Cu2   O2    S    
C33   C35   A    
N12   H46   S    
C34   C36   A    
N10   H31   S    
C42   H20   S    
C20   N1    A    
N5    H21   S    
C7    C9    A    
C5    C10   A    
N8    H27   S    
C3    C37   A    
C8    C10   A    
C43   H33   S    
C1    C6    S    
C15   O9    S    
C4    C38   A    
C13   C14   A    
C1    O1    A    
C32   C34   A    
N11   H44   S    
C45   C46   S    
