data_mof_unit_60510.cif
_audit_creation_date              2013-03-05T16:10:37-0500
_audit_creation_method            fapswitch 2.2
_symmetry_space_group_name_H-M    P1
_symmetry_Int_Tables_number       1
_space_group_crystal_system       triclinic
_cell_length_a                    25.530824
_cell_length_b                    25.531509
_cell_length_c                    51.409175
_cell_angle_alpha                 90.000109
_cell_angle_beta                  90.000154
_cell_angle_gamma                 89.99987
_cell_volume                      33510.5804205

loop_
_atom_site_label
_atom_site_type_symbol
_atom_site_description
_atom_site_fract_x
_atom_site_fract_y
_atom_site_fract_z
_atom_type_partial_charge
Zn1   Zn    Zn3+2 0.938390 0.500010 0.771740 0.974030
Zn2   Zn    Zn3+2 0.500010 0.061610 0.228260 0.974964
Zn3   Zn    Zn3+2 0.061610 0.499990 0.771740 0.976258
Zn4   Zn    Zn3+2 0.499990 0.938390 0.228260 0.975035
Zn5   Zn    Zn3+2 0.061610 0.500010 0.228260 0.976155
Zn6   Zn    Zn3+2 0.499990 0.061610 0.771740 0.974781
Zn7   Zn    Zn3+2 0.938390 0.499990 0.228260 0.976133
Zn8   Zn    Zn3+2 0.500010 0.938390 0.771740 0.976902
Zn9   Zn    Zn3+2 0.438390 0.000010 0.271740 0.976234
Zn10  Zn    Zn3+2 0.000010 0.561610 0.728260 0.975164
Zn11  Zn    Zn3+2 0.561610 0.999990 0.271740 0.976294
Zn12  Zn    Zn3+2 0.999990 0.438390 0.728260 0.974940
Zn13  Zn    Zn3+2 0.561610 0.000010 0.728260 0.976533
Zn14  Zn    Zn3+2 0.999990 0.561610 0.271740 0.975136
Zn15  Zn    Zn3+2 0.438390 0.999990 0.728260 0.976503
Zn16  Zn    Zn3+2 0.000010 0.438390 0.271740 0.975169
O1    O     O_3   0.000000 0.500000 0.750000 -0.475199
O2    O     O_3   0.500000 0.000000 0.250000 -0.475451
O3    O     O_3   0.000000 0.500000 0.250000 -0.475476
O4    O     O_3   0.500000 0.000000 0.750000 -0.475702
O5    O     O_R   0.999770 0.543030 0.691960 -0.643927
O6    O     O_R   0.543030 0.000230 0.308040 -0.644088
O7    O     O_R   0.000230 0.456970 0.691960 -0.643730
O8    O     O_R   0.456970 0.999770 0.308040 -0.644101
O9    O     O_R   0.000230 0.543030 0.308040 -0.643690
O10   O     O_R   0.456970 0.000230 0.691960 -0.644202
O11   O     O_R   0.999770 0.456970 0.308040 -0.643671
O12   O     O_R   0.543030 0.999770 0.691960 -0.643948
O13   O     O_R   0.499770 0.043030 0.191960 -0.643599
O14   O     O_R   0.043030 0.500230 0.808040 -0.644010
O15   O     O_R   0.500230 0.956970 0.191960 -0.643640
O16   O     O_R   0.956970 0.499770 0.808040 -0.643801
O17   O     O_R   0.500230 0.043030 0.808040 -0.643670
O18   O     O_R   0.956970 0.500230 0.191960 -0.644008
O19   O     O_R   0.499770 0.956970 0.808040 -0.643741
O20   O     O_R   0.043030 0.499770 0.191960 -0.644054
O21   O     O_R   0.939300 0.396520 0.734780 -0.633176
O22   O     O_R   0.396520 0.060700 0.265220 -0.631504
O23   O     O_R   0.060700 0.603480 0.734780 -0.633240
O24   O     O_R   0.603480 0.939300 0.265220 -0.631535
O25   O     O_R   0.060700 0.396520 0.265220 -0.633197
O26   O     O_R   0.603480 0.060700 0.734780 -0.631936
O27   O     O_R   0.939300 0.603480 0.265220 -0.633179
O28   O     O_R   0.396520 0.939300 0.734780 -0.632139
O29   O     O_R   0.439300 0.896520 0.234780 -0.633668
O30   O     O_R   0.896520 0.560700 0.765220 -0.633239
O31   O     O_R   0.560700 0.103480 0.234780 -0.633725
O32   O     O_R   0.103480 0.439300 0.765220 -0.631536
O33   O     O_R   0.560700 0.896520 0.765220 -0.631816
O34   O     O_R   0.103480 0.560700 0.234780 -0.631802
O35   O     O_R   0.439300 0.103480 0.765220 -0.633449
O36   O     O_R   0.896520 0.439300 0.234780 -0.631757
O37   O     O_R   0.103260 0.560510 0.765220 -0.638334
O38   O     O_R   0.560510 0.896740 0.234780 -0.639491
O39   O     O_R   0.896740 0.439490 0.765220 -0.639162
O40   O     O_R   0.439490 0.103260 0.234780 -0.639572
O41   O     O_R   0.896740 0.560510 0.234780 -0.637839
O42   O     O_R   0.439490 0.896740 0.765220 -0.639257
O43   O     O_R   0.103260 0.439490 0.234780 -0.637766
O44   O     O_R   0.560510 0.103260 0.765220 -0.639964
O45   O     O_R   0.603260 0.060510 0.265220 -0.637752
O46   O     O_R   0.060510 0.396740 0.734780 -0.639122
O47   O     O_R   0.396740 0.939490 0.265220 -0.637834
O48   O     O_R   0.939490 0.603260 0.734780 -0.637981
O49   O     O_R   0.396740 0.060510 0.734780 -0.637406
O50   O     O_R   0.939490 0.396740 0.265220 -0.639607
O51   O     O_R   0.603260 0.939490 0.734780 -0.638342
O52   O     O_R   0.060510 0.603260 0.265220 -0.639630
C1    C     C_R   0.999999 0.500000 0.679354 0.800366
C2    C     C_R   0.500000 0.000000 0.320646 0.799477
C3    C     C_R   0.000000 0.500000 0.320646 0.800804
C4    C     C_R   0.500000 0.000001 0.679354 0.799700
C5    C     C_R   0.500000 1.000000 0.179354 0.800931
C6    C     C_R   0.000000 0.500000 0.820646 0.799911
C7    C     C_R   0.500000 0.000000 0.820646 0.800661
C8    C     C_R   1.000000 0.500000 0.179354 0.799526
C9    C     C_R   0.900286 0.400381 0.750018 0.821372
C10   C     C_R   0.400376 0.099710 0.249980 0.822352
C11   C     C_R   0.099713 0.599620 0.750018 0.822174
C12   C     C_R   0.599624 0.900290 0.249980 0.822393
C13   C     C_R   0.099713 0.400380 0.249982 0.822344
C14   C     C_R   0.599624 0.099711 0.750020 0.821840
C15   C     C_R   0.900287 0.599620 0.249982 0.822298
C16   C     C_R   0.400375 0.900290 0.750020 0.822618
C17   C     C_R   0.400287 0.900379 0.250018 0.821935
C18   C     C_R   0.900379 0.599712 0.749982 0.822029
C19   C     C_R   0.599712 0.099621 0.250018 0.821933
C20   C     C_R   0.099625 0.400291 0.749980 0.822401
C21   C     C_R   0.599709 0.900375 0.749979 0.822695
C22   C     C_R   0.099625 0.599710 0.250020 0.821901
C23   C     C_R   0.400288 0.099621 0.749981 0.822448
C24   C     C_R   0.900375 0.400290 0.250020 0.821837
C25   C     C_3   0.804223 0.761237 0.734064 -0.510642
C26   C     C_3   0.761884 0.195136 0.265258 -0.510722
C27   C     C_3   0.194746 0.237620 0.735187 -0.514350
C28   C     C_3   0.237509 0.805471 0.264575 -0.510814
C29   C     C_3   0.194419 0.762707 0.264438 -0.514831
C30   C     C_3   0.237838 0.194858 0.735052 -0.510167
C31   C     C_3   0.804979 0.237895 0.265124 -0.514741
C32   C     C_3   0.761469 0.804337 0.734193 -0.513579
C33   C     C_3   0.306449 0.263575 0.236641 -0.515067
C34   C     C_3   0.264817 0.692202 0.761425 -0.511726
C35   C     C_3   0.693492 0.736366 0.236719 -0.514957
C36   C     C_3   0.736212 0.306769 0.762946 -0.512014
C37   C     C_3   0.693136 0.263991 0.762802 -0.515197
C38   C     C_3   0.736572 0.693592 0.236577 -0.510975
C39   C     C_3   0.307880 0.734992 0.761275 -0.515303
C40   C     C_3   0.263368 0.306348 0.236499 -0.510842
C41   C     C_3   0.773526 0.730550 0.777909 -0.369613
C42   C     C_3   0.729374 0.227649 0.222065 -0.370676
C43   C     C_3   0.228366 0.271234 0.777961 -0.372821
C44   C     C_3   0.271790 0.771186 0.222063 -0.370635
C45   C     C_3   0.228997 0.728134 0.222043 -0.373988
C46   C     C_3   0.271160 0.228183 0.777939 -0.369383
C47   C     C_3   0.772167 0.270700 0.222042 -0.374051
C48   C     C_3   0.730475 0.773344 0.777933 -0.372752
C49   C     C_3   0.269214 0.226346 0.277912 -0.372685
C50   C     C_3   0.223087 0.733936 0.722335 -0.370419
C51   C     C_3   0.730913 0.773781 0.277906 -0.372681
C52   C     C_3   0.774480 0.268497 0.722147 -0.370543
C53   C     C_3   0.731689 0.225443 0.722134 -0.373800
C54   C     C_3   0.773705 0.730728 0.277891 -0.369332
C55   C     C_3   0.265877 0.776990 0.722328 -0.373650
C56   C     C_3   0.226422 0.269399 0.277896 -0.369339
H1    H     H_    0.777648 0.840723 0.743014 0.211545
H2    H     H_    0.840987 0.222097 0.255766 0.210751
H3    H     H_    0.222470 0.158676 0.744420 0.211621
H4    H     H_    0.158810 0.778107 0.254556 0.210637
H5    H     H_    0.222354 0.841440 0.254923 0.211052
H6    H     H_    0.158917 0.222001 0.744785 0.211044
H7    H     H_    0.777428 0.158779 0.256130 0.211184
H8    H     H_    0.840951 0.777149 0.742653 0.211451
H9    H     H_    0.277884 0.341679 0.246942 0.210694
H10   H     H_    0.341485 0.721597 0.749186 0.210022
H11   H     H_    0.722103 0.658308 0.247075 0.210609
H12   H     H_    0.658528 0.278389 0.751739 0.209906
H13   H     H_    0.722037 0.341757 0.752110 0.209894
H14   H     H_    0.658583 0.721666 0.247445 0.210269
H15   H     H_    0.278008 0.658197 0.749560 0.210200
H16   H     H_    0.341406 0.278323 0.247312 0.210216
H17   H     H_    0.760446 0.696643 0.789853 0.217494
H18   H     H_    0.694975 0.241217 0.210611 0.216801
H19   H     H_    0.242521 0.305877 0.789051 0.218432
H20   H     H_    0.306651 0.757155 0.211102 0.216793
H21   H     H_    0.243399 0.693245 0.211224 0.217801
H22   H     H_    0.305772 0.241965 0.789169 0.217442
H23   H     H_    0.758223 0.305132 0.210726 0.217811
H24   H     H_    0.696526 0.759886 0.789743 0.218473
H25   H     H_    0.254151 0.190795 0.287948 0.218398
H26   H     H_    0.186433 0.749760 0.713657 0.216797
H27   H     H_    0.746022 0.809378 0.287886 0.218395
H28   H     H_    0.810334 0.253473 0.712364 0.216826
H29   H     H_    0.747069 0.189575 0.712502 0.217817
H30   H     H_    0.809283 0.745477 0.288019 0.217406
H31   H     H_    0.249711 0.813644 0.713808 0.217783
H32   H     H_    0.190890 0.254696 0.288080 0.217411
H33   H     H_    0.809630 0.746323 0.787183 0.167979
H34   H     H_    0.744749 0.191945 0.212259 0.167387
H35   H     H_    0.192899 0.256366 0.788162 0.167608
H36   H     H_    0.256830 0.806474 0.211741 0.167451
H37   H     H_    0.193762 0.742771 0.211564 0.166804
H38   H     H_    0.255972 0.192666 0.787981 0.168313
H39   H     H_    0.807824 0.255641 0.212076 0.166729
H40   H     H_    0.745941 0.809407 0.787372 0.167645
H41   H     H_    0.303759 0.240293 0.289161 0.167617
H42   H     H_    0.235964 0.700730 0.709845 0.167701
H43   H     H_    0.696420 0.759887 0.289210 0.167637
H44   H     H_    0.760564 0.302741 0.710664 0.167314
H45   H     H_    0.697512 0.239021 0.710502 0.166840
H46   H     H_    0.759476 0.696171 0.289043 0.168252
H47   H     H_    0.299002 0.764463 0.709698 0.167203
H48   H     H_    0.240701 0.304007 0.288994 0.168254
C57   C     C_1   0.639360 0.860685 0.749870 -0.141863
C58   C     C_1   0.860684 0.360640 0.250130 -0.143669
C59   C     C_1   0.360660 0.139329 0.749859 -0.149219
C60   C     C_1   0.139317 0.639359 0.250132 -0.143673
C61   C     C_1   0.360660 0.860672 0.250142 -0.150520
C62   C     C_1   0.139317 0.360642 0.749869 -0.142574
C63   C     C_1   0.639341 0.139327 0.250140 -0.150523
C64   C     C_1   0.860673 0.639341 0.749863 -0.149917
C65   C     C_1   0.139339 0.360671 0.249855 -0.149581
C66   C     C_1   0.360678 0.860647 0.750140 -0.143346
C67   C     C_1   0.860661 0.639329 0.249855 -0.149651
C68   C     C_1   0.639317 0.139358 0.750135 -0.143859
C69   C     C_1   0.860660 0.360672 0.750146 -0.151454
C70   C     C_1   0.639317 0.860642 0.249866 -0.142770
C71   C     C_1   0.139336 0.639333 0.750151 -0.150693
C72   C     C_1   0.360683 0.139358 0.249866 -0.142846
C73   C     C_3   0.785747 0.712693 0.749708 0.192796
C74   C     C_3   0.712699 0.214249 0.250311 0.194019
C75   C     C_3   0.214158 0.287188 0.749711 0.191867
C76   C     C_3   0.287298 0.785755 0.250331 0.194046
C77   C     C_3   0.214154 0.712816 0.250299 0.193300
C78   C     C_3   0.287302 0.214250 0.749680 0.192531
C79   C     C_3   0.785843 0.287186 0.250281 0.193269
C80   C     C_3   0.712810 0.785839 0.749735 0.191504
C81   C     C_3   0.285852 0.212822 0.249677 0.192439
C82   C     C_3   0.212723 0.714224 0.750414 0.194512
C83   C     C_3   0.714148 0.787177 0.249675 0.192397
C84   C     C_3   0.787284 0.285768 0.750373 0.194854
C85   C     C_3   0.714144 0.212827 0.750336 0.193770
C86   C     C_3   0.787290 0.714237 0.249639 0.193151
C87   C     C_3   0.285860 0.787168 0.750373 0.193596
C88   C     C_3   0.212710 0.285762 0.249641 0.193097
C89   C     C_3   0.691336 0.734936 0.736857 0.395467
C90   C     C_3   0.735493 0.308104 0.263900 0.396371
C91   C     C_3   0.307944 0.264592 0.735876 0.392113
C92   C     C_3   0.263927 0.692476 0.264639 0.396301
C93   C     C_3   0.307625 0.735727 0.264526 0.392991
C94   C     C_3   0.264249 0.307846 0.735762 0.395497
C95   C     C_3   0.691800 0.264848 0.263784 0.393020
C96   C     C_3   0.734598 0.691248 0.736979 0.392327
C97   C     C_3   0.193320 0.236671 0.234358 0.391928
C98   C     C_3   0.238983 0.804615 0.767740 0.395826
C99   C     C_3   0.806611 0.763259 0.234280 0.391942
C100  C     C_3   0.762467 0.193936 0.766298 0.396004
C101  C     C_3   0.806175 0.237178 0.766196 0.392928
C102  C     C_3   0.762905 0.806503 0.234175 0.395207
C103  C     C_3   0.195266 0.761382 0.767649 0.392744
C104  C     C_3   0.237025 0.193427 0.234253 0.395241
C105  C     C_1   0.672535 0.827142 0.749804 -0.042075
C106  C     C_1   0.827143 0.327464 0.250200 -0.043363
C107  C     C_1   0.327535 0.172921 0.749770 -0.051444
C108  C     C_1   0.172857 0.672535 0.250207 -0.043349
C109  C     C_1   0.327533 0.827081 0.250234 -0.052470
C110  C     C_1   0.172859 0.327466 0.749796 -0.042384
C111  C     C_1   0.672467 0.172919 0.250226 -0.052490
C112  C     C_1   0.827079 0.672465 0.749782 -0.051806
C113  C     C_1   0.172468 0.327082 0.249755 -0.051749
C114  C     C_1   0.327140 0.827467 0.750235 -0.043241
C115  C     C_1   0.827531 0.672917 0.249754 -0.051793
C116  C     C_1   0.672856 0.172537 0.750221 -0.043604
C117  C     C_1   0.827529 0.327085 0.750250 -0.053060
C118  C     C_1   0.672857 0.827464 0.249783 -0.042636
C119  C     C_1   0.172469 0.672917 0.750267 -0.052556
C120  C     C_1   0.327144 0.172536 0.249784 -0.042682
H49   H     H_    0.743871 0.682193 0.716157 -0.014097
H50   H     H_    0.683618 0.254705 0.284595 -0.015517
H51   H     H_    0.252947 0.315291 0.715027 -0.012396
H52   H     H_    0.314948 0.746730 0.285309 -0.015356
H53   H     H_    0.252160 0.685498 0.285349 -0.013973
H54   H     H_    0.315734 0.254057 0.715076 -0.013791
H55   H     H_    0.746403 0.315940 0.284651 -0.014128
H56   H     H_    0.682634 0.744977 0.716083 -0.012667
H57   H     H_    0.250105 0.187761 0.213638 -0.011997
H58   H     H_    0.191707 0.746617 0.788096 -0.014667
H59   H     H_    0.749731 0.812075 0.213568 -0.011971
H60   H     H_    0.811516 0.250163 0.786844 -0.015045
H61   H     H_    0.748725 0.188932 0.786848 -0.013642
H62   H     H_    0.812523 0.750845 0.213583 -0.013349
H63   H     H_    0.254498 0.807848 0.788066 -0.013287
H64   H     H_    0.187314 0.248991 0.213654 -0.013370
H65   H     H_    0.813175 0.749853 0.713643 0.184176
H66   H     H_    0.751355 0.185331 0.285695 0.183301
H67   H     H_    0.183952 0.247678 0.714814 0.184742
H68   H     H_    0.247194 0.816122 0.285012 0.183344
H69   H     H_    0.183167 0.753107 0.284805 0.183843
H70   H     H_    0.247982 0.184668 0.714613 0.184222
H71   H     H_    0.815389 0.248337 0.285499 0.183809
H72   H     H_    0.750177 0.813896 0.713827 0.184749
H73   H     H_    0.318993 0.255267 0.216321 0.184658
H74   H     H_    0.258843 0.677841 0.781651 0.183433
H75   H     H_    0.680856 0.744582 0.216403 0.184673
H76   H     H_    0.743944 0.319373 0.783314 0.183197
H77   H     H_    0.679938 0.256338 0.783084 0.183751
H78   H     H_    0.744869 0.681553 0.216180 0.184192
H79   H     H_    0.322828 0.740897 0.781401 0.183940
H80   H     H_    0.254979 0.318294 0.216098 0.184197
C121  C     C_R   0.518365 0.956965 0.554792 0.501712
C122  C     C_R   0.957040 0.518553 0.445202 0.501589
C123  C     C_R   0.481634 0.043043 0.554792 0.501691
C124  C     C_R   0.042959 0.481448 0.445203 0.501568
C125  C     C_R   0.518380 0.956970 0.445203 0.501569
C126  C     C_R   0.042964 0.481464 0.554791 0.501679
C127  C     C_R   0.481623 0.043037 0.445203 0.501586
C128  C     C_R   0.957030 0.518534 0.554791 0.501684
C129  C     C_R   0.018391 0.456976 0.054791 0.501757
C130  C     C_R   0.457148 0.018805 0.945203 0.501537
C131  C     C_R   0.981608 0.543031 0.054791 0.501740
C132  C     C_R   0.542847 0.981195 0.945203 0.501579
C133  C     C_R   0.018411 0.456986 0.945202 0.501568
C134  C     C_R   0.542854 0.981209 0.054791 0.501742
C135  C     C_R   0.981592 0.543026 0.945202 0.501555
C136  C     C_R   0.457142 0.018789 0.054791 0.501721
N1    N     N_R   0.499999 0.000004 0.567879 -0.355031
N2    N     N_R   1.000000 0.500001 0.432117 -0.355177
N3    N     N_R   0.500002 0.000003 0.432118 -0.355162
N4    N     N_R   0.999997 0.499999 0.567878 -0.355020
N5    N     N_R   0.999999 0.500003 0.067878 -0.355013
N6    N     N_R   0.499998 0.000000 0.932117 -0.355149
N7    N     N_R   0.000001 0.500006 0.932117 -0.355189
N8    N     N_R   0.499998 0.999999 0.067879 -0.354988
C137  C     C_R   0.481155 0.043881 0.527462 -0.016470
C138  C     C_R   0.043799 0.480972 0.472532 -0.016612
C139  C     C_R   0.518845 0.956126 0.527463 -0.016504
C140  C     C_R   0.956199 0.519028 0.472531 -0.016627
C141  C     C_R   0.481151 0.043879 0.472532 -0.016611
C142  C     C_R   0.956195 0.519020 0.527462 -0.016481
C143  C     C_R   0.518852 0.956128 0.472532 -0.016604
C144  C     C_R   0.043800 0.480979 0.527462 -0.016474
C145  C     C_R   0.981127 0.543870 0.027462 -0.016466
C146  C     C_R   0.543683 0.980711 0.972532 -0.016628
C147  C     C_R   0.018873 0.456138 0.027461 -0.016473
C148  C     C_R   0.456312 0.019289 0.972532 -0.016592
C149  C     C_R   0.981120 0.543869 0.972532 -0.016627
C150  C     C_R   0.456310 0.019282 0.027462 -0.016447
C151  C     C_R   0.018881 0.456142 0.972531 -0.016625
C152  C     C_R   0.543685 0.980717 0.027462 -0.016466
C153  C     C_R   0.500000 0.000004 0.513747 -0.019658
C154  C     C_R   0.999999 0.500000 0.486248 -0.019638
C155  C     C_R   0.500001 0.000004 0.486248 -0.019637
C156  C     C_R   0.999998 0.500000 0.513746 -0.019661
C157  C     C_R   0.000000 0.500004 0.013746 -0.019658
C158  C     C_R   0.499998 1.000000 0.986248 -0.019640
C159  C     C_R   0.000001 0.500005 0.986248 -0.019630
C160  C     C_R   0.499998 0.999999 0.013746 -0.019666
C161  C     C_R   0.462477 0.087464 0.513577 -0.161046
C162  C     C_R   0.087307 0.462120 0.486417 -0.160955
C163  C     C_R   0.537523 0.912543 0.513578 -0.161016
C164  C     C_R   0.912690 0.537880 0.486416 -0.160937
C165  C     C_R   0.462474 0.087463 0.486417 -0.160953
C166  C     C_R   0.912687 0.537874 0.513576 -0.161019
C167  C     C_R   0.537528 0.912545 0.486418 -0.160953
C168  C     C_R   0.087309 0.462126 0.513577 -0.161041
C169  C     C_R   0.962421 0.587441 0.013577 -0.161010
C170  C     C_R   0.587077 0.961596 0.986417 -0.160886
C171  C     C_R   0.037580 0.412568 0.013576 -0.161005
C172  C     C_R   0.412919 0.038404 0.986417 -0.160942
C173  C     C_R   0.962415 0.587439 0.986417 -0.160924
C174  C     C_R   0.412917 0.038399 0.013577 -0.161017
C175  C     C_R   0.037586 0.412571 0.986416 -0.160929
C176  C     C_R   0.587079 0.961600 0.013577 -0.160995
O53   O     O_2   0.535690 0.914943 0.568185 -0.562013
O54   O     O_2   0.915100 0.536073 0.431807 -0.561405
O55   O     O_2   0.464307 0.085065 0.568185 -0.562156
O56   O     O_2   0.084900 0.463928 0.431808 -0.561434
O57   O     O_2   0.535729 0.914959 0.431809 -0.561512
O58   O     O_2   0.084921 0.463975 0.568184 -0.562107
O59   O     O_2   0.464274 0.085047 0.431808 -0.561481
O60   O     O_2   0.915073 0.536023 0.568183 -0.562103
O61   O     O_2   0.035742 0.414963 0.068183 -0.562149
O62   O     O_2   0.415307 0.036565 0.931810 -0.561468
O63   O     O_2   0.964256 0.585043 0.068184 -0.562171
O64   O     O_2   0.584689 0.963435 0.931810 -0.561346
O65   O     O_2   0.035793 0.414990 0.931807 -0.561424
O66   O     O_2   0.584709 0.963474 0.068183 -0.562131
O67   O     O_2   0.964210 0.585023 0.931807 -0.561411
O68   O     O_2   0.415287 0.036524 0.068183 -0.562155
H81   H     H_    0.447795 0.121720 0.523639 0.190943
H82   H     H_    0.121504 0.447296 0.476355 0.191081
H83   H     H_    0.552205 0.878287 0.523640 0.190968
H84   H     H_    0.878494 0.552704 0.476354 0.191090
H85   H     H_    0.447789 0.121717 0.476355 0.191076
H86   H     H_    0.878489 0.552693 0.523638 0.190967
H87   H     H_    0.552213 0.878290 0.476355 0.191078
H88   H     H_    0.121507 0.447306 0.523640 0.190952
H89   H     H_    0.947716 0.621688 0.023640 0.190946
H90   H     H_    0.621182 0.946565 0.976355 0.191132
H91   H     H_    0.052283 0.378321 0.023638 0.190945
H92   H     H_    0.378813 0.053435 0.976355 0.191103
H93   H     H_    0.947708 0.621685 0.976355 0.191099
H94   H     H_    0.378810 0.053426 0.023639 0.190959
H95   H     H_    0.052294 0.378326 0.976353 0.191090
H96   H     H_    0.621186 0.946572 0.023639 0.190970
C177  C     C_R   0.952564 0.500231 0.890411 -0.108679
C178  C     C_R   0.499796 0.047435 0.109591 -0.108350
C179  C     C_R   0.047438 0.499781 0.890411 -0.108722
C180  C     C_R   0.500201 0.952564 0.109591 -0.108386
C181  C     C_R   0.047434 0.499503 0.109589 -0.108538
C182  C     C_R   0.500024 0.047436 0.890409 -0.108551
C183  C     C_R   0.952565 0.500500 0.109589 -0.108493
C184  C     C_R   0.499971 0.952564 0.890409 -0.108536
C185  C     C_R   0.452565 0.000311 0.390411 -0.108697
C186  C     C_R   0.999610 0.547434 0.609590 -0.108515
C187  C     C_R   0.547437 0.999693 0.390411 -0.108661
C188  C     C_R   0.000383 0.452565 0.609590 -0.108488
C189  C     C_R   0.547434 0.999493 0.609589 -0.108522
C190  C     C_R   0.999887 0.547436 0.390410 -0.108614
C191  C     C_R   0.452565 0.000515 0.609589 -0.108579
C192  C     C_R   0.000113 0.452565 0.390410 -0.108580
H97   H     H_    0.915704 0.500238 0.900831 0.145666
H98   H     H_    0.499818 0.084297 0.099174 0.146056
H99   H     H_    0.084298 0.499775 0.900830 0.145647
H100  H     H_    0.500179 0.915701 0.099175 0.146030
H101  H     H_    0.084296 0.499290 0.099171 0.145926
H102  H     H_    0.500217 0.084297 0.900827 0.145810
H103  H     H_    0.915703 0.500714 0.099171 0.145961
H104  H     H_    0.499778 0.915704 0.900827 0.145866
H105  H     H_    0.415704 0.000384 0.400830 0.145700
H106  H     H_    0.999486 0.584295 0.599172 0.145868
H107  H     H_    0.584298 0.999620 0.400830 0.145718
H108  H     H_    0.000508 0.415703 0.599172 0.145906
H109  H     H_    0.584295 0.999269 0.599171 0.145897
H110  H     H_    0.999970 0.584296 0.400830 0.145652
H111  H     H_    0.415703 0.000739 0.599171 0.145827
H112  H     H_    0.000031 0.415705 0.400830 0.145671
C193  C     C_R   0.952516 0.500214 0.863245 -0.215837
C194  C     C_R   0.499795 0.047482 0.136757 -0.215801
C195  C     C_R   0.047485 0.499794 0.863245 -0.215981
C196  C     C_R   0.500204 0.952517 0.136757 -0.215852
C197  C     C_R   0.047481 0.499508 0.136755 -0.216009
C198  C     C_R   0.500031 0.047484 0.863243 -0.215734
C199  C     C_R   0.952518 0.500494 0.136755 -0.215958
C200  C     C_R   0.499965 0.952517 0.863243 -0.215699
C201  C     C_R   0.452516 0.000296 0.363245 -0.215921
C202  C     C_R   0.999614 0.547481 0.636755 -0.216037
C203  C     C_R   0.547485 0.999706 0.363245 -0.215891
C204  C     C_R   0.000381 0.452518 0.636755 -0.215911
C205  C     C_R   0.547481 0.999498 0.636755 -0.215838
C206  C     C_R   0.999899 0.547484 0.363245 -0.215703
C207  C     C_R   0.452518 0.000508 0.636755 -0.216090
C208  C     C_R   0.000101 0.452517 0.363245 -0.215669
H113  H     H_    0.915329 0.500351 0.853114 0.168366
H114  H     H_    0.499673 0.084668 0.146888 0.168393
H115  H     H_    0.084672 0.499656 0.853114 0.168400
H116  H     H_    0.500326 0.915331 0.146888 0.168358
H117  H     H_    0.084667 0.499153 0.146886 0.168446
H118  H     H_    0.500090 0.084670 0.853112 0.168346
H119  H     H_    0.915332 0.500849 0.146886 0.168490
H120  H     H_    0.499907 0.915331 0.853112 0.168497
H121  H     H_    0.415330 0.000501 0.353114 0.168411
H122  H     H_    0.999348 0.584666 0.646886 0.168244
H123  H     H_    0.584671 0.999500 0.353114 0.168424
H124  H     H_    0.000648 0.415333 0.646887 0.168308
H125  H     H_    0.584667 0.999133 0.646886 0.168421
H126  H     H_    0.999850 0.584670 0.353113 0.168302
H127  H     H_    0.415332 0.000873 0.646886 0.168297
H128  H     H_    0.000150 0.415330 0.353114 0.168321
C209  C     C_R   0.000000 0.500003 0.849383 -0.016220
C210  C     C_R   0.499999 1.000000 0.150618 -0.016346
C211  C     C_R   1.000000 0.500001 0.150617 -0.016124
C212  C     C_R   0.499999 0.000000 0.849382 -0.016306
C213  C     C_R   0.500000 0.000001 0.349383 -0.016054
C214  C     C_R   0.999998 0.500000 0.650617 -0.016150
C215  C     C_R   0.500000 0.000002 0.650617 -0.016008
C216  C     C_R   0.000000 0.500000 0.349383 -0.016271
C217  C     C_R   0.000001 0.500007 0.904134 0.313137
C218  C     C_R   0.499998 0.999999 0.095865 0.312710
C219  C     C_R   0.999999 0.500002 0.095864 0.312932
C220  C     C_R   0.499997 0.000000 0.904133 0.312821
C221  C     C_R   0.500001 0.000003 0.404134 0.313091
C222  C     C_R   0.999997 0.499999 0.595864 0.312929
C223  C     C_R   0.499999 0.000004 0.595864 0.312999
C224  C     C_R   0.000000 0.500001 0.404133 0.313081
O69   O     O_3   0.716787 0.646690 0.751098 -0.555520
C225  C     C_3   0.716639 0.601498 0.735312 -0.285755
H129  H     H_    0.756845 0.591953 0.728470 0.151994
H130  H     H_    0.689728 0.606311 0.718474 0.143001
H131  H     H_    0.702382 0.567943 0.747044 0.195375
O70   O     O_3   0.646663 0.283233 0.250314 -0.555700
C226  C     C_3   0.602141 0.282712 0.266562 -0.286621
H132  H     H_    0.607665 0.308914 0.283620 0.143042
H133  H     H_    0.592878 0.242227 0.273086 0.151648
H134  H     H_    0.568104 0.297448 0.255329 0.195397
O71   O     O_3   0.282058 0.353944 0.748567 -0.558300
C227  C     C_3   0.295308 0.393124 0.730384 -0.258779
H135  H     H_    0.259738 0.407352 0.720082 0.144378
H136  H     H_    0.324878 0.378811 0.716177 0.146993
H137  H     H_    0.312640 0.426779 0.740968 0.191997
O72   O     O_3   0.353304 0.716798 0.251709 -0.555745
C228  C     C_3   0.397146 0.718001 0.268398 -0.286950
H138  H     H_    0.390916 0.692507 0.285660 0.143274
H139  H     H_    0.406146 0.758749 0.274601 0.151595
H140  H     H_    0.431637 0.702814 0.257666 0.195260
O73   O     O_3   0.282020 0.646094 0.252189 -0.558472
C229  C     C_3   0.294858 0.607326 0.270662 -0.259239
H141  H     H_    0.259059 0.593330 0.280844 0.144094
H142  H     H_    0.324110 0.621960 0.284951 0.146835
H143  H     H_    0.312425 0.573436 0.260362 0.192157
O74   O     O_3   0.353331 0.283228 0.749050 -0.555584
C230  C     C_3   0.397546 0.282397 0.732599 -0.286455
H144  H     H_    0.391701 0.308276 0.715446 0.143450
H145  H     H_    0.406687 0.241789 0.726221 0.151808
H146  H     H_    0.431792 0.297341 0.743605 0.195127
O75   O     O_3   0.717927 0.353958 0.250799 -0.558386
C231  C     C_3   0.704342 0.393480 0.268738 -0.258976
H147  H     H_    0.739719 0.407901 0.279136 0.144042
H148  H     H_    0.674505 0.379437 0.282873 0.146652
H149  H     H_    0.687212 0.426934 0.257918 0.192271
O76   O     O_3   0.646041 0.717934 0.750606 -0.558143
C232  C     C_3   0.605781 0.703609 0.733222 -0.258548
H150  H     H_    0.619237 0.673183 0.719257 0.146724
H151  H     H_    0.590920 0.738544 0.722611 0.144156
H152  H     H_    0.572788 0.686944 0.744559 0.192167
O77   O     O_3   0.218175 0.146287 0.245680 -0.558580
C233  C     C_3   0.206529 0.108720 0.226418 -0.258552
H153  H     H_    0.242962 0.095357 0.216586 0.144539
H154  H     H_    0.178192 0.124272 0.211916 0.147460
H155  H     H_    0.188333 0.074204 0.235902 0.191985
O78   O     O_3   0.147521 0.782378 0.757834 -0.556077
C234  C     C_3   0.106886 0.777955 0.776295 -0.287224
H156  H     H_    0.116328 0.800227 0.794282 0.144313
H157  H     H_    0.098889 0.736207 0.781021 0.151481
H158  H     H_    0.070647 0.794888 0.767879 0.195085
O79   O     O_3   0.781807 0.853694 0.245529 -0.558596
C235  C     C_3   0.793366 0.891173 0.226211 -0.258559
H159  H     H_    0.756889 0.904492 0.216405 0.144556
H160  H     H_    0.821638 0.875554 0.211695 0.147483
H161  H     H_    0.811606 0.925733 0.235637 0.191973
O80   O     O_3   0.853006 0.217096 0.754931 -0.555910
C236  C     C_3   0.895205 0.219941 0.772587 -0.286742
H162  H     H_    0.887303 0.196119 0.790264 0.143827
H163  H     H_    0.903649 0.261246 0.778028 0.151492
H164  H     H_    0.930666 0.203783 0.763050 0.195238
O81   O     O_3   0.781677 0.146437 0.755396 -0.558736
C237  C     C_3   0.792700 0.109497 0.775044 -0.259035
H165  H     H_    0.755955 0.096445 0.784692 0.144120
H166  H     H_    0.820570 0.125517 0.789644 0.147310
H167  H     H_    0.811195 0.074681 0.765980 0.192216
O82   O     O_3   0.853124 0.783023 0.245999 -0.555782
C238  C     C_3   0.895807 0.780659 0.228615 -0.286436
H168  H     H_    0.888392 0.804966 0.211049 0.144088
H169  H     H_    0.904403 0.739506 0.222952 0.151729
H170  H     H_    0.930999 0.796548 0.238502 0.195020
O83   O     O_3   0.218892 0.852997 0.758284 -0.558978
C239  C     C_3   0.209600 0.888184 0.778921 -0.259387
H171  H     H_    0.247153 0.900425 0.788049 0.144318
H172  H     H_    0.183003 0.870880 0.793743 0.147676
H173  H     H_    0.190366 0.923733 0.771013 0.192101
O84   O     O_3   0.146860 0.216961 0.246151 -0.555775
C240  C     C_3   0.104098 0.219246 0.228812 -0.286395
H174  H     H_    0.111434 0.194860 0.211265 0.144061
H175  H     H_    0.095477 0.260373 0.223112 0.151729
H176  H     H_    0.068951 0.203402 0.238755 0.195036

loop_
_geom_bond_atom_site_label_1
_geom_bond_atom_site_label_2
_geom_bond_distance
_ccdc_geom_bond_type
C3    C216  1.477340 S    
C69   C117  1.204503 T    
C43   C75   1.551316 S    
C182  H102  1.082843 S    
O79   C235  1.410307 S    
C58   C106  1.204486 T    
C93   H52   1.120417 S    
C127  N3    1.371079 A    
O76   C232  1.410309 S    
C231  H148  1.112164 S    
C194  C210  1.406238 A    
C183  H103  1.082841 S    
Zn12  O7    1.925508 S    
C181  H101  1.082841 S    
Zn2   O13   1.925506 S    
Zn15  O28   1.912078 S    
C26   H66   1.113048 S    
C199  C211  1.406253 A    
Zn1   O30   1.912073 S    
Zn5   O20   1.925503 S    
C31   C79   1.550724 S    
Zn3   O32   1.912073 S    
C179  C217  1.401602 A    
C97   H64   1.120414 S    
C29   C77   1.550726 S    
C186  C202  1.396572 A    
C47   C79   1.551316 S    
C225  H131  1.109136 S    
C142  C156  1.408430 A    
O34   C22   1.271033 A    
C85   C116  1.472882 S    
C136  N8    1.371143 A    
C54   H46   1.113172 S    
C91   C94   1.569755 S    
O52   C22   1.271251 A    
C34   H74   1.113051 S    
C169  C173  1.396273 A    
C89   H56   1.120542 S    
C44   H36   1.113177 S    
C89   O76   1.423145 S    
C96   H49   1.120417 S    
C167  H87   1.083075 S    
C202  C214  1.406246 A    
Zn4   O2    1.929619 S    
C30   H70   1.113051 S    
C185  H105  1.082843 S    
C176  H96   1.083075 S    
C77   C92   1.558189 S    
C131  O63   1.349390 S    
O47   C17   1.271243 A    
C163  H83   1.083077 S    
C234  H157  1.112141 S    
C83   C102  1.558176 S    
C122  N2    1.371071 A    
C36   C37   1.549975 S    
C81   C120  1.472873 S    
C207  C215  1.406251 A    
C32   C80   1.550724 S    
Zn10  O5    1.925506 S    
Zn15  O4    1.929584 S    
C163  C167  1.396273 A    
C92   H53   1.120540 S    
C182  C198  1.396556 A    
O41   C15   1.271236 A    
C180  C218  1.401686 A    
O22   C10   1.271036 A    
C237  H165  1.112247 S    
O46   C20   1.271255 A    
C42   C74   1.551444 S    
C235  H161  1.109138 S    
C187  H107  1.082843 S    
C32   H1    1.113221 S    
C188  H108  1.082842 S    
Zn8   O19   1.925506 S    
C26   C74   1.550957 S    
C174  H94   1.083076 S    
Zn12  O46   1.905400 S    
C144  C156  1.408425 A    
C56   H48   1.113170 S    
C28   H5    1.113233 S    
C15   C67   1.432278 S    
C94   O71   1.423137 S    
C132  O64   1.349390 S    
C25   C32   1.549975 S    
C68   C116  1.204488 T    
C133  N7    1.371065 A    
C134  N8    1.371145 A    
C30   H3    1.113224 S    
Zn7   O3    1.929584 S    
C192  C208  1.396577 A    
C125  N3    1.371077 A    
C230  H146  1.109127 S    
C126  N4    1.371126 A    
O78   C234  1.410632 S    
C51   H43   1.113149 S    
C190  C224  1.401611 A    
O11   C3    1.275534 A    
Zn7   O18   1.925505 S    
C52   H44   1.113176 S    
C5    C210  1.477315 S    
O49   C23   1.271244 A    
C225  H130  1.111968 S    
C46   C78   1.551448 S    
Zn13  O4    1.929587 S    
Zn14  O3    1.929614 S    
C239  H171  1.112248 S    
C149  C159  1.408449 A    
C137  C161  1.405396 A    
C170  H90   1.083075 S    
Zn2   O31   1.912059 S    
C139  C163  1.405395 A    
C133  O65   1.349387 S    
C140  C164  1.405385 A    
Zn6   O17   1.925508 S    
C55   C87   1.551311 S    
C24   C58   1.432375 S    
C102  H59   1.120544 S    
C180  C196  1.396551 A    
C16   C66   1.432379 S    
C165  H85   1.083072 S    
C40   H9    1.113221 S    
C185  C221  1.401615 A    
C171  C175  1.396268 A    
C54   C86   1.551444 S    
C102  O79   1.423131 S    
C50   H42   1.113174 S    
Zn3   O1    1.929579 S    
C125  O57   1.349382 S    
C34   H15   1.113225 S    
C122  O54   1.349386 S    
C191  C223  1.401654 A    
C233  H153  1.112251 S    
C121  C139  1.405193 A    
C46   H38   1.113174 S    
C122  C140  1.405193 A    
C178  C218  1.401688 A    
C229  H141  1.112253 S    
C98   H63   1.120542 S    
C59   C107  1.204504 T    
C49   H25   1.112647 S    
C36   H76   1.113050 S    
C158  C160  1.413649 A    
Zn7   O41   1.905418 S    
C127  C141  1.405193 A    
O31   C19   1.271011 A    
C86   C115  1.472589 S    
C202  H122  1.082894 S    
Zn11  O2    1.929579 S    
C47   H23   1.112649 S    
O27   C15   1.271019 A    
Zn13  O26   1.912076 S    
C90   H55   1.120546 S    
C41   H33   1.113178 S    
O8    C2    1.275513 A    
C228  H138  1.111970 S    
C78   C91   1.559918 S    
O18   C8    1.275517 A    
C151  C175  1.405384 A    
Zn7   O36   1.912078 S    
C39   H10   1.113211 S    
C82   C119  1.472593 S    
C230  H145  1.112143 S    
O16   C6    1.275513 A    
O14   C6    1.275514 A    
C33   C81   1.550720 S    
C98   O83   1.423127 S    
C157  C159  1.413660 A    
C129  N5    1.371113 A    
C189  H109  1.082843 S    
C14   C68   1.432378 S    
Zn12  O21   1.912061 S    
O40   C10   1.271249 A    
O80   C236  1.410636 S    
C206  H126  1.082895 S    
C233  H155  1.109134 S    
C40   H80   1.113051 S    
O45   C19   1.271244 A    
C126  O58   1.349392 S    
C136  C150  1.405178 A    
C66   C114  1.204488 T    
C77   C108  1.472877 S    
C197  C211  1.406252 A    
C100  H61   1.120539 S    
C198  C212  1.406250 A    
N5    C219  1.438727 S    
C27   H6    1.113215 S    
N6    C220  1.438655 S    
O9    C3    1.275534 A    
C196  H116  1.082897 S    
C25   H8    1.113235 S    
C43   H19   1.112648 S    
C226  H134  1.109126 S    
Zn8   O42   1.905403 S    
Zn16  O11   1.925506 S    
C238  H170  1.109117 S    
C236  H162  1.111966 S    
C193  C209  1.406266 A    
C36   C84   1.550962 S    
O69   C225  1.410639 S    
C194  H114  1.082897 S    
C29   H4    1.113221 S    
C22   C60   1.432375 S    
C201  C213  1.406262 A    
C31   H2    1.113217 S    
Zn4   O29   1.912061 S    
C153  C155  1.413665 A    
C187  C203  1.396577 A    
C188  C204  1.396572 A    
C84   C117  1.472592 S    
C28   H68   1.113046 S    
C99   C102  1.569757 S    
C204  C214  1.406247 A    
O74   C230  1.410637 S    
O50   C24   1.271255 A    
C131  N5    1.371117 A    
C45   H37   1.113155 S    
O5    C1    1.275534 A    
C164  C166  1.396268 A    
C133  C151  1.405198 A    
C85   C100  1.558191 S    
C39   C87   1.550722 S    
O77   C233  1.410304 S    
C134  C152  1.405173 A    
C189  C223  1.401653 A    
C37   C85   1.550732 S    
C56   H32   1.112653 S    
C31   H71   1.113049 S    
C235  H160  1.112164 S    
C232  H150  1.112162 S    
C103  H58   1.120411 S    
C34   C39   1.549968 S    
C136  O68   1.349395 S    
C240  H175  1.112143 S    
C147  C171  1.405394 A    
C177  H97   1.082838 S    
C76   C109  1.472593 S    
C179  H99   1.082842 S    
C86   C99   1.559910 S    
C149  C173  1.405385 A    
C144  C168  1.405395 A    
C151  C159  1.408447 A    
C195  C209  1.406264 A    
O83   C239  1.410305 S    
C50   C82   1.551438 S    
C67   C115  1.204505 T    
C52   C53   1.549781 S    
C228  H140  1.109130 S    
C12   C70   1.432371 S    
C60   C108  1.204487 T    
Zn9   O47   1.905420 S    
Zn10  O48   1.905400 S    
Zn11  O45   1.905423 S    
C73   C96   1.559923 S    
C188  C222  1.401665 A    
C87   C114  1.472881 S    
C128  C142  1.405193 A    
C20   C62   1.432370 S    
C25   C73   1.550954 S    
C161  H81   1.083073 S    
Zn1   O1    1.929586 S    
C162  C168  1.396268 A    
C94   H51   1.120544 S    
C28   C76   1.550957 S    
C162  H82   1.083083 S    
Zn1   O39   1.905420 S    
Zn2   O40   1.905400 S    
C170  C176  1.396268 A    
Zn3   O37   1.905423 S    
C79   C90   1.558186 S    
C197  H117  1.082895 S    
C237  H167  1.109165 S    
C227  H137  1.109148 S    
C203  H123  1.082894 S    
Zn8   O33   1.912056 S    
Zn9   O22   1.912073 S    
C91   O74   1.424015 S    
C63   C111  1.204504 T    
Zn11  O24   1.912073 S    
C146  C170  1.405384 A    
C97   O84   1.424011 S    
C61   C109  1.204505 T    
C226  H132  1.111973 S    
C48   C80   1.551324 S    
C207  H127  1.082895 S    
Zn9   O2    1.929586 S    
C6    C209  1.477351 S    
C236  H164  1.109138 S    
C196  C210  1.406237 A    
C142  C166  1.405393 A    
Zn14  O27   1.912055 S    
C41   H17   1.112650 S    
C129  C147  1.405203 A    
Zn16  O25   1.912056 S    
O6    C2    1.275514 A    
C99   O82   1.424008 S    
C238  H168  1.111973 S    
C124  C138  1.405193 A    
C78   C107  1.472588 S    
C138  C162  1.405382 A    
C104  H57   1.120549 S    
C175  H95   1.083089 S    
C1    C214  1.477345 S    
O10   C4    1.275517 A    
C130  C148  1.405178 A    
C82   C103  1.559916 S    
C21   C57   1.432375 S    
C57   C105  1.204488 T    
C205  C215  1.406250 A    
C186  C222  1.401666 A    
C55   H31   1.112650 S    
C145  C157  1.408428 A    
C53   H29   1.112652 S    
C51   C83   1.551317 S    
C49   C56   1.549784 S    
C93   O72   1.424016 S    
C206  C216  1.406265 A    
C25   H65   1.113043 S    
C203  C213  1.406260 A    
C237  H166  1.112159 S    
Zn15  O49   1.905418 S    
C191  H111  1.082843 S    
C232  H152  1.109163 S    
C36   H13   1.113241 S    
C30   C78   1.550952 S    
C190  H110  1.082841 S    
C45   H21   1.112649 S    
C88   C113  1.472592 S    
C50   H26   1.112655 S    
C43   H35   1.113153 S    
C123  C137  1.405193 A    
C41   C48   1.549791 S    
O35   C23   1.271009 A    
C7    C212  1.477315 S    
C8    C211  1.477351 S    
C123  O55   1.349383 S    
C49   H41   1.113147 S    
C92   C93   1.569753 S    
Zn12  O1    1.929619 S    
O32   C20   1.271025 A    
Zn13  O12   1.925503 S    
C90   O75   1.423141 S    
O38   C12   1.271246 A    
C80   C105  1.472876 S    
C42   H34   1.113176 S    
C137  C153  1.408427 A    
C33   C40   1.549974 S    
O71   C227  1.410309 S    
C146  C158  1.408432 A    
C84   C101  1.559920 S    
O12   C4    1.275516 A    
C148  C172  1.405386 A    
O48   C18   1.271245 A    
C231  H147  1.112249 S    
C97   C104  1.569753 S    
C48   H40   1.113155 S    
C154  C156  1.413660 A    
C130  N6    1.371101 A    
C38   H78   1.113053 S    
C145  C169  1.405394 A    
C164  H84   1.083087 S    
C239  H172  1.112164 S    
C35   H14   1.113207 S    
C192  C224  1.401610 A    
C4    C215  1.477351 S    
C135  N7    1.371066 A    
O21   C9    1.271025 A    
C64   C112  1.204502 T    
C132  N6    1.371102 A    
Zn10  O23   1.912059 S    
C124  O56   1.349390 S    
O23   C11   1.271024 A    
C230  H144  1.111968 S    
C125  C143  1.405193 A    
C126  C144  1.405194 A    
C44   C76   1.551443 S    
C190  C206  1.396577 A    
C173  H93   1.083088 S    
C184  H104  1.082845 S    
C121  O53   1.349384 S    
O25   C13   1.271020 A    
N3    C221  1.438624 S    
C95   O70   1.424017 S    
C95   H50   1.120417 S    
C200  C212  1.406253 A    
C233  H154  1.112164 S    
C11   C71   1.432285 S    
C193  H113  1.082898 S    
C75   C110  1.472872 S    
C140  C154  1.408441 A    
C128  O60   1.349393 S    
C234  H158  1.109119 S    
Zn5   O34   1.912076 S    
C91   H54   1.120414 S    
C73   C112  1.472585 S    
Zn16  O50   1.905403 S    
C48   H24   1.112644 S    
C128  N4    1.371125 A    
C171  H91   1.083088 S    
C45   C77   1.551318 S    
O43   C13   1.271239 A    
C100  O81   1.423143 S    
O28   C16   1.271042 A    
C79   C106  1.472877 S    
C141  C165  1.405389 A    
Zn5   O3    1.929587 S    
C169  H89   1.083085 S    
C134  O66   1.349396 S    
C229  H143  1.109154 S    
Zn6   O4    1.929614 S    
C26   H7    1.113229 S    
C89   C96   1.569755 S    
C132  C146  1.405173 A    
C166  H86   1.083088 S    
C34   C82   1.550956 S    
C208  C216  1.406263 A    
C103  O78   1.424008 S    
C239  H173  1.109137 S    
C181  C219  1.401655 A    
Zn16  O3    1.929620 S    
C182  C220  1.401638 A    
C184  C220  1.401640 A    
C52   C84   1.551443 S    
C43   C46   1.549786 S    
C50   C55   1.549777 S    
Zn14  O9    1.925508 S    
C76   C93   1.559921 S    
Zn4   O15   1.925508 S    
C161  C165  1.396278 A    
O13   C5    1.275523 A    
O72   C228  1.410638 S    
C17   C61   1.432283 S    
Zn14  O52   1.905405 S    
C185  C201  1.396577 A    
C37   H77   1.113055 S    
C42   C47   1.549788 S    
C231  H149  1.109150 S    
C55   H47   1.113151 S    
C226  H133  1.112141 S    
C53   H45   1.113155 S    
C32   H72   1.113049 S    
C225  H129  1.112143 S    
C131  C145  1.405204 A    
C33   H73   1.113057 S    
C238  H169  1.112143 S    
Zn2   O2    1.929621 S    
C9    C69   1.432284 S    
O7    C1    1.275534 A    
C87   C98   1.558178 S    
O26   C14   1.271041 A    
C101  H60   1.120413 S    
C13   C65   1.432280 S    
C74   C95   1.559918 S    
C187  C221  1.401614 A    
C27   C30   1.549975 S    
C29   H69   1.113047 S    
C191  C207  1.396577 A    
C198  H118  1.082896 S    
O19   C7    1.275523 A    
O81   C237  1.410312 S    
Zn8   O4    1.929620 S    
C189  C205  1.396577 A    
C56   C88   1.551442 S    
N7    C217  1.438609 S    
C121  N1    1.371118 A    
O37   C11   1.271232 A    
C98   C103  1.569768 S    
C150  C174  1.405394 A    
O39   C9    1.271231 A    
O15   C5    1.275523 A    
C147  C157  1.408431 A    
Zn10  O1    1.929621 S    
C124  N2    1.371073 A    
C183  C199  1.396582 A    
O51   C21   1.271263 A    
C178  C194  1.396551 A    
C181  C197  1.396582 A    
C80   C89   1.558194 S    
C42   H18   1.112654 S    
C141  C155  1.408439 A    
O20   C8    1.275516 A    
O44   C14   1.271245 A    
C90   C95   1.569748 S    
C65   C113  1.204505 T    
O84   C240  1.410632 S    
C99   H62   1.120414 S    
C234  H156  1.111967 S    
O24   C12   1.271034 A    
C2    C213  1.477345 S    
C135  O67   1.349386 S    
Zn6   O35   1.912055 S    
C152  C160  1.408417 A    
C240  H174  1.111969 S    
C186  H106  1.082842 S    
C179  C195  1.396582 A    
O70   C226  1.410636 S    
C101  O80   1.424019 S    
C96   O69   1.424018 S    
C54   H30   1.112653 S    
C127  O59   1.349381 S    
C44   C45   1.549784 S    
C204  H124  1.082893 S    
C33   H16   1.113207 S    
O17   C7    1.275523 A    
C123  N1    1.371117 A    
C228  H139  1.112139 S    
C51   H27   1.112649 S    
C129  O61   1.349389 S    
C52   H28   1.112653 S    
C62   C110  1.204485 T    
Zn5   O43   1.905418 S    
C74   C111  1.472591 S    
C200  H120  1.082896 S    
Zn6   O44   1.905405 S    
C201  H121  1.082894 S    
C100  C101  1.569762 S    
C46   H22   1.112654 S    
C172  C174  1.396263 A    
C83   C118  1.472873 S    
C41   C73   1.551445 S    
O75   C231  1.410308 S    
C184  C200  1.396551 A    
C227  H135  1.112254 S    
Zn15  O10   1.925505 S    
C172  H92   1.083074 S    
C88   C97   1.559911 S    
C208  H128  1.082893 S    
Zn1   O16   1.925503 S    
N1    C223  1.438706 S    
N2    C224  1.438619 S    
Zn3   O14   1.925505 S    
O29   C17   1.271014 A    
C168  H88   1.083086 S    
O82   C238  1.410633 S    
O42   C16   1.271243 A    
C38   C86   1.550955 S    
C138  C154  1.408439 A    
C28   C29   1.549975 S    
C18   C64   1.432275 S    
O73   C229  1.410307 S    
C23   C59   1.432281 S    
C35   C83   1.550723 S    
C104  O77   1.423128 S    
C178  H98   1.082844 S    
C37   H12   1.113225 S    
C143  C155  1.408440 A    
C38   H11   1.113223 S    
C236  H163  1.112141 S    
C39   H79   1.113058 S    
C10   C72   1.432369 S    
C81   C104  1.558175 S    
C27   H67   1.113050 S    
C49   C81   1.551317 S    
Zn13  O51   1.905418 S    
C51   C54   1.549783 S    
C177  C217  1.401602 A    
Zn4   O38   1.905400 S    
C192  H112  1.082841 S    
O33   C21   1.271025 A    
C92   O73   1.423140 S    
C152  C176  1.405394 A    
C72   C120  1.204485 T    
C183  C219  1.401656 A    
Zn9   O8    1.925503 S    
C148  C158  1.408430 A    
C27   C75   1.550721 S    
Zn11  O6    1.925505 S    
C229  H142  1.112164 S    
C195  H115  1.082899 S    
C227  H136  1.112164 S    
N4    C222  1.438737 S    
C150  C160  1.408417 A    
C44   H20   1.112653 S    
C40   C88   1.550954 S    
C47   H39   1.113152 S    
C199  H119  1.082895 S    
C53   C85   1.551315 S    
C139  C153  1.408428 A    
C26   C31   1.549975 S    
C235  H159  1.112251 S    
C232  H151  1.112257 S    
C35   C38   1.549975 S    
C130  O62   1.349387 S    
C240  H176  1.109118 S    
C180  H100  1.082844 S    
O36   C24   1.271029 A    
C75   C94   1.558187 S    
C19   C63   1.432286 S    
N8    C218  1.438753 S    
C143  C167  1.405387 A    
C205  H125  1.082897 S    
C35   H75   1.113054 S    
C177  C193  1.396582 A    
C70   C118  1.204485 T    
C71   C119  1.204505 T    
C135  C149  1.405198 A    
O30   C18   1.271009 A    
