data_mof_unit_11886.cif
_audit_creation_date              2012-12-10T17:13:43-0500
_audit_creation_method            fapswitch 2.2
_symmetry_space_group_name_H-M    P1
_symmetry_Int_Tables_number       1
_space_group_crystal_system       triclinic
_cell_length_a                    27.634905
_cell_length_b                    10.768112
_cell_length_c                    10.054766
_cell_angle_alpha                 89.557643
_cell_angle_beta                  90.472469
_cell_angle_gamma                 90.999326
_cell_volume                      2991.41185419

loop_
_atom_site_label
_atom_site_type_symbol
_atom_type_description
_atom_site_fract_x
_atom_site_fract_y
_atom_site_fract_z
_atom_type_partial_charge
C1    C     C_R   0.498419 0.263141 0.500162 0.957178
C2    C     C_R   0.973670 0.360314 0.522190 0.021414
C3    C     C_R   0.976098 0.569821 0.615851 -0.065569
C4    C     C_R   0.406204 0.496578 0.499661 1.022115
C5    C     C_R   0.949364 0.465678 0.568631 0.022788
C6    C     C_R   0.947865 0.245445 0.512447 -0.079813
C7    C     C_R   0.896628 0.245697 0.509848 -0.061974
C8    C     C_R   0.872239 0.359859 0.524456 -0.046715
C9    C     C_R   0.898463 0.467366 0.565059 -0.054468
C10   C     C_R   0.873851 0.577001 0.599307 -0.194805
C11   C     C_R   0.822872 0.573364 0.595361 0.565492
C12   C     C_R   0.278759 0.396235 0.591342 -0.139731
C13   C     C_R   0.822223 0.370868 0.501082 0.630014
C14   C     C_R   0.718463 0.416055 0.612736 0.681096
C15   C     C_R   0.668698 0.424332 0.604592 0.528867
C16   C     C_R   0.499417 0.737362 0.499400 0.776577
C17   C     C_R   0.676161 0.560214 0.409143 -0.167502
C18   C     C_R   0.727250 0.553471 0.419903 -0.089004
C19   C     C_R   0.747659 0.480191 0.522146 -0.033330
C20   C     C_R   0.023530 0.373387 0.492092 -0.064407
C21   C     C_R   0.050778 0.469101 0.553182 0.026957
C22   C     C_R   0.027113 0.561984 0.625500 0.004134
C23   C     C_R   0.252794 0.483378 0.514176 0.047983
C24   C     C_R   0.046222 0.297578 0.398488 0.503240
C25   C     C_R   0.105334 0.644096 0.698529 0.695711
C26   C     C_R   0.951461 0.680257 0.643839 0.628038
C27   C     C_R   0.900914 0.685225 0.635033 -0.167539
C28   C     C_R   0.593999 0.500623 0.500641 0.911280
C29   C     C_R   0.055202 0.643610 0.704182 -0.183633
C30   C     C_2   0.497979 0.939276 0.391728 -0.334204
C31   C     C_2   0.488231 0.866114 0.497311 0.475417
C32   C     C_2   0.481567 0.065124 0.398077 0.007334
C33   C     C_2   0.499993 0.131909 0.499070 -0.187482
C34   C     C_R   0.101646 0.473232 0.540616 -0.130978
C35   C     C_2   0.532463 0.557066 0.927949 0.034813
C36   C     C_2   0.525737 0.575725 0.074166 0.708871
C37   C     C_R   0.175603 0.402032 0.441042 0.655521
C38   C     C_R   0.179332 0.564691 0.601344 0.709805
C39   C     C_R   0.276782 0.567156 0.429742 0.632001
C40   C     C_R   0.326819 0.567791 0.422323 0.531916
C41   C     C_R   0.329759 0.396184 0.583279 -0.204589
C42   C     C_2   0.357657 0.303887 0.662195 0.567481
C43   C     C_2   0.653006 0.633727 0.301381 0.658973
C44   C     C_2   0.878272 0.808370 0.650746 0.671821
C45   C     C_R   0.124971 0.389293 0.455098 -0.090438
C46   C     C_2   0.760436 0.624490 0.330262 0.596119
C47   C     C_2   0.532775 0.908146 0.285649 0.505744
C48   C     C_2   0.445657 0.108173 0.297295 0.655757
C49   C     C_2   0.252846 0.302283 0.675876 0.543657
C50   C     C_2   0.577253 0.611547 0.872302 0.492353
C51   C     C_2   0.116859 0.204257 0.297049 0.656404
C52   C     C_2   0.869023 0.126170 0.506045 0.600705
C53   C     C_2   0.974962 0.127357 0.531342 0.595946
C54   C     C_R   0.096488 0.300435 0.383772 -0.158121
C55   C     C_R   0.128965 0.562245 0.613441 -0.178080
C56   C     C_R   0.353539 0.484763 0.500096 -0.264036
C57   C     C_R   0.647038 0.496290 0.504108 -0.357024
F1    F     F_    0.251191 0.648974 0.355074 -0.562304
F2    F     F_    0.019244 0.224060 0.315852 -0.654194
F3    F     F_    0.349423 0.652906 0.342838 -0.575345
F4    F     F_    0.130277 0.726179 0.776059 -0.563791
F5    F     F_    0.976471 0.788888 0.660976 -0.618941
F6    F     F_    0.461328 0.908299 0.600355 -0.587991
F7    F     F_    0.455937 0.489207 0.902213 -0.488992
F8    F     F_    0.549484 0.672219 0.132627 -0.705316
F9    F     F_    0.490778 0.388958 0.097212 -0.513760
F10   F     F_    0.641501 0.359096 0.693858 -0.599204
F11   F     F_    0.738767 0.346842 0.711157 -0.559732
H1    H     H_    0.038959 0.705135 0.774728 0.237750
H2    H     H_    0.611793 0.590601 0.918627 0.121450
H3    H     H_    0.102969 0.192674 0.196549 0.102470
H4    H     H_    0.875639 0.059159 0.428632 0.098118
H5    H     H_    0.009125 0.129099 0.585437 0.080696
H6    H     H_    0.522555 0.089371 0.575529 0.178926
H7    H     H_    0.346629 0.279186 0.762404 0.080430
H8    H     H_    0.622619 0.692019 0.323659 0.049050
H9    H     H_    0.848899 0.836235 0.585526 0.095526
H10   H     H_    0.795670 0.587773 0.306968 0.040374
H11   H     H_    0.558695 0.835305 0.301317 0.113197
H12   H     H_    0.440904 0.056996 0.205424 0.108679
H13   H     H_    0.269228 0.213698 0.698265 0.079165
N1    N     N_R   0.201178 0.484517 0.517685 -0.319435
N2    N     N_R   0.798971 0.474936 0.539280 -0.328830
N3    N     N_2   0.500520 0.501330 0.852150 0.165134
N4    N     N_2   0.500540 0.501360 0.147810 0.149005
O1    O     O_R   0.499990 0.319060 0.613040 -0.570589
O2    O     O_R   0.571240 0.499960 0.613080 -0.568427
O3    O     O_R   0.571250 0.500000 0.386950 -0.638686
O4    O     O_2   0.199562 0.334705 0.351226 -0.489007
O5    O     O_2   0.392257 0.251816 0.614532 -0.513945
O6    O     O_2   0.666485 0.626057 0.186440 -0.500493
O7    O     O_2   0.892753 0.880754 0.735733 -0.457941
O8    O     O_2   0.750023 0.726952 0.287095 -0.495311
O9    O     O_2   0.534094 0.967524 0.181749 -0.482370
O10   O     O_2   0.419331 0.195641 0.318403 -0.504543
O11   O     O_2   0.213266 0.322763 0.723167 -0.534063
O12   O     O_2   0.796906 0.280465 0.437752 -0.499828
O13   O     O_2   0.575846 0.687918 0.782309 -0.513609
O14   O     O_2   0.146571 0.131403 0.340400 -0.465781
O15   O     O_2   0.838933 0.101520 0.590964 -0.472921
O16   O     O_2   0.960811 0.028949 0.484427 -0.519356
O17   O     O_2   0.206644 0.645653 0.672661 -0.414441
O18   O     O_2   0.796910 0.665679 0.647657 -0.531489
O19   O     O_R   0.500010 0.319100 0.386900 -0.573157
O20   O     O_R   0.428750 0.500000 0.613050 -0.572404
O21   O     O_R   0.428760 0.500040 0.386920 -0.539365
O22   O     O_R   0.499990 0.680900 0.613100 -0.528988
O23   O     O_R   0.500010 0.680940 0.386960 -0.650052
Zn1   Zn    Zn3+2 0.499990 0.499970 0.650990 1.185824
Zn2   Zn    Zn3+2 0.500010 0.500030 0.349010 1.158721

loop_
_geom_bond_atom_site_label_1
_geom_bond_atom_site_label_2
_ccdc_geom_bond_type
C10   C27   A    
C30   C32   S    
C8    C13   A    
C40   F3    S    
C23   N1    S    
C32   C48   S    
C41   C42   S    
C35   C36   S    
C47   H11   S    
F9    N4    S    
C12   C49   S    
C1    C33   S    
C7    C8    A    
C28   C57   S    
C16   C31   S    
C12   C23   A    
C42   H7    S    
C44   H9    S    
C22   C29   A    
C7    C52   S    
C30   C31   D    
C24   C54   A    
C1    O1    A    
C18   C19   A    
C49   H13   S    
F7    N3    S    
C16   O22   A    
C27   C44   S    
C38   C55   A    
C20   C24   A    
C53   O16   D    
C8    C9    A    
C40   C56   A    
C28   O3    A    
C9    C10   A    
C44   O7    D    
O3    Zn2   S    
C34   C55   A    
C21   C22   A    
C4    C56   S    
C25   C29   A    
C15   C57   A    
C2    C6    A    
C51   H3    S    
C35   C50   S    
C19   N2    S    
C18   C46   S    
C13   O12   S    
C29   H1    S    
C51   O14   D    
C50   O13   D    
C2    C20   A    
C31   F6    S    
C30   C47   S    
O1    Zn1   S    
N4    Zn2   S    
C48   O10   D    
C39   C40   A    
C46   H10   S    
C36   F8    S    
C21   C34   A    
C11   N2    A    
C39   F1    S    
C4    O21   A    
C52   O15   D    
C43   O6    D    
C42   O5    D    
C17   C43   S    
C41   C56   A    
C5    C9    A    
C12   C41   A    
C52   H4    S    
C15   F10   S    
C28   O2    A    
C17   C18   A    
C26   C27   A    
C34   C45   A    
C25   F4    S    
C1    O19   A    
C45   C54   A    
C37   N1    A    
C2    C5    A    
C6    C53   S    
C37   C45   A    
O21   Zn2   S    
C43   H8    S    
O20   Zn1   S    
C14   C19   A    
C3    C26   A    
C53   H5    S    
C25   C55   A    
C3    C5    A    
C35   N3    D    
C6    C7    A    
O2    Zn1   S    
C36   N4    D    
C4    O20   A    
C13   N2    A    
N3    Zn1   S    
C37   O4    S    
C51   C54   S    
C32   C33   D    
C48   H12   S    
C26   F5    S    
C38   O17   S    
O19   Zn2   S    
O22   Zn1   S    
C46   O8    D    
C24   F2    S    
C23   C39   A    
C47   O9    D    
O23   Zn2   S    
C49   O11   D    
C50   H2    S    
C10   C11   A    
C16   O23   A    
C33   H6    S    
C20   C21   A    
C14   F11   S    
C14   C15   A    
C3    C22   A    
C11   O18   S    
C38   N1    A    
C17   C57   A    
