data_mof_unit_56810.cif
_audit_creation_date              2013-03-05T16:09:57-0500
_audit_creation_method            fapswitch 2.2
_symmetry_space_group_name_H-M    P1
_symmetry_Int_Tables_number       1
_space_group_crystal_system       triclinic
_cell_length_a                    10.712988
_cell_length_b                    9.948459
_cell_length_c                    10.59212
_cell_angle_alpha                 90.000475
_cell_angle_beta                  91.244622
_cell_angle_gamma                 89.950698
_cell_volume                      1128.61726438

loop_
_atom_site_label
_atom_site_type_symbol
_atom_site_description
_atom_site_fract_x
_atom_site_fract_y
_atom_site_fract_z
_atom_type_partial_charge
O1    O     O_R   0.316770 0.614620 0.499990 -0.651260
O2    O     O_R   0.683230 0.614620 0.500010 -0.651855
O3    O     O_R   0.316800 0.385290 0.500000 -0.607599
O4    O     O_R   0.683200 0.385290 0.500000 -0.606634
C1    C     C_R   0.260218 0.499989 0.500316 0.866391
C2    C     C_R   0.739776 0.499912 0.500336 0.866626
O5    O     O_R   0.500010 0.614690 0.316770 -0.658349
O6    O     O_R   0.499990 0.614690 0.683230 -0.658040
O7    O     O_R   0.500040 0.385360 0.316770 -0.588101
O8    O     O_R   0.499960 0.385360 0.683230 -0.589430
C3    C     C_R   0.516563 0.499457 0.260611 0.874164
C4    C     C_R   0.483238 0.499483 0.739315 0.873043
Zn1   Zn    Zn3+2 0.500000 0.653120 0.500000 0.951840
Zn2   Zn    Zn3+2 0.500000 0.346880 0.500000 1.015394
C5    C     C_R   0.588681 0.738774 0.099353 -0.069294
C6    C     C_R   0.410243 0.738715 0.900280 -0.072530
C7    C     C_R   0.553870 0.858383 0.037557 0.104460
C8    C     C_R   0.444891 0.858362 0.961933 0.104550
C9    C     C_R   0.467253 0.617607 0.941968 -0.044418
C10   C     C_R   0.531786 0.617618 0.057836 -0.044716
C11   C     C_R   0.538175 0.496249 0.125112 -0.127658
C12   C     C_R   0.461110 0.496294 0.874705 -0.127694
C13   C     C_R   0.524221 0.372483 0.061343 -0.099915
C14   C     C_R   0.474851 0.372546 0.938489 -0.099236
C15   C     C_R   0.064240 0.377746 0.511012 -0.126206
C16   C     C_R   0.936396 0.377698 0.510851 -0.127512
H1    H     H_    0.112924 0.282439 0.518674 0.195624
H2    H     H_    0.888211 0.282386 0.518584 0.191000
C17   C     C_R   0.872414 0.499887 0.500888 -0.062721
C18   C     C_R   0.127584 0.500009 0.501497 -0.065393
C19   C     C_R   0.935779 0.622135 0.491837 -0.138989
C20   C     C_R   0.063566 0.622219 0.492742 -0.137703
H3    H     H_    0.887179 0.717409 0.483672 0.211462
H4    H     H_    0.111603 0.717578 0.486072 0.210236
C21   C     C_R   0.588701 0.072697 0.566037 0.000152
C22   C     C_R   0.411418 0.072898 0.433829 -0.000171
H5    H     H_    0.658579 0.128429 0.619619 0.164972
H6    H     H_    0.341667 0.128821 0.380141 0.167977
C23   C     C_R   0.589391 0.929477 0.567171 0.055763
C24   C     C_R   0.410780 0.929686 0.432591 0.060754
N1    N     N_R   0.500000 0.857200 0.500000 -0.161578
N2    N     N_R   0.500000 0.142810 0.500000 -0.117683
C25   C     C_2   0.563788 0.244465 0.121965 0.483209
H7    H     H_    0.507779 0.154853 0.111241 0.060135
O9    O     O_2   0.660554 0.238887 0.185011 -0.503868
C26   C     C_2   0.435159 0.244708 0.877762 0.483095
H8    H     H_    0.490963 0.154871 0.888590 0.060143
O10   O     O_2   0.338554 0.239563 0.814436 -0.507965
C27   C     C_2   0.695383 0.736913 0.191570 0.533077
H9    H     H_    0.744780 0.643742 0.211524 0.036869
O11   O     O_2   0.726636 0.838339 0.248938 -0.523386
C28   C     C_2   0.303704 0.736774 0.807869 0.536884
H10   H     H_    0.254432 0.643602 0.787982 0.037994
O12   O     O_2   0.272468 0.838108 0.750257 -0.520817
I1    I     I_    0.701302 0.985225 0.979322 -0.228527
I2    I     I_    0.297359 0.985683 0.019488 -0.224684
C29   C     C_2   0.687674 0.861159 0.643116 0.426372
H11   H     H_    0.673619 0.761919 0.680585 0.132065
O13   O     O_2   0.787096 0.916826 0.666445 -0.554097
C30   C     C_2   0.312953 0.861686 0.355921 0.417880
H12   H     H_    0.326544 0.761840 0.319714 0.132266
O14   O     O_2   0.214388 0.918336 0.330487 -0.556368

loop_
_geom_bond_atom_site_label_1
_geom_bond_atom_site_label_2
_geom_bond_distance
_ccdc_geom_bond_type
C18   C20   1.397474 A    
O7    Zn2   1.978202 S    
C19   H3    1.083569 S    
O6    Zn1   1.978098 S    
C24   C30   1.476393 S    
O6    C4    1.305267 A    
C15   H1    1.083940 S    
C25   O9    1.222091 D    
C7    I1    2.124435 S    
C16   H2    1.083955 S    
C19   C20   1.368808 A    
C8    I2    2.124253 S    
Zn2   N2    2.030183 S    
C14   C26   1.483584 S    
C9    C12   1.402341 A    
C9    C10   1.395468 A    
C22   H6    1.082640 S    
C7    C8    1.401436 A    
C21   N2    1.359694 A    
C23   N1    1.382708 A    
C28   H10   1.085440 S    
C30   O14   1.221395 D    
O5    C3    1.305261 A    
O7    C3    1.295580 A    
C29   H11   1.075999 S    
O2    C2    1.291501 A    
O3    Zn2   1.999151 S    
O8    C4    1.295485 A    
C25   H7    1.079662 S    
C6    C9    1.416568 A    
O1    C1    1.291846 A    
Zn1   N1    2.030282 S    
C24   N1    1.382960 A    
C21   H5    1.082666 S    
C28   O12   1.221156 D    
C1    C18   1.421234 S    
C12   C14   1.410357 A    
C5    C27   1.487468 S    
C11   C13   1.410864 A    
O4    Zn2   1.999795 S    
C21   C23   1.424883 A    
C26   O10   1.222114 D    
C29   O13   1.221392 D    
O4    C2    1.291809 A    
O1    Zn1   2.000281 S    
C13   C14   1.393980 A    
C23   C29   1.476353 S    
C4    C12   1.458947 S    
O5    Zn1   1.978093 S    
C2    C17   1.420834 S    
C13   C25   1.483666 S    
C10   C11   1.402899 A    
C16   C17   1.397869 A    
C6    C8    1.404025 A    
C27   H9    1.085435 S    
O8    Zn2   1.978195 S    
C15   C18   1.398035 A    
C5    C7    1.404309 A    
O2    Zn1   1.999633 S    
C26   H8    1.079546 S    
C30   H12   1.075689 S    
C22   C24   1.424817 A    
O3    C1    1.291663 A    
C15   C16   1.369550 A    
C17   C19   1.397622 A    
C22   N2    1.359330 A    
C3    C11   1.459083 S    
C6    C28   1.487502 S    
C5    C10   1.416791 A    
C27   O11   1.221154 D    
C20   H4    1.082694 S    
