data_mof_unit_66672.cif
_audit_creation_date              2012-12-11T17:44:27-0500
_audit_creation_method            fapswitch 2.2
_symmetry_space_group_name_H-M    P1
_symmetry_Int_Tables_number       1
_space_group_crystal_system       triclinic
_cell_length_a                    8.166477
_cell_length_b                    12.644621
_cell_length_c                    14.876991
_cell_angle_alpha                 96.833758
_cell_angle_beta                  97.60816
_cell_angle_gamma                 98.512235
_cell_volume                      1490.80503324

loop_
_atom_site_label
_atom_site_type_symbol
_atom_type_description
_atom_site_fract_x
_atom_site_fract_y
_atom_site_fract_z
_atom_type_partial_charge
Ba1   Ba    Ba6+2 0.843760 0.550230 0.455610 1.645056
Ba2   Ba    Ba6+2 0.346080 0.449860 0.544400 1.660972
Br1   Br    Br    0.683738 0.057923 0.792717 -0.668688
C1    C     C_3   0.519313 0.911947 0.184133 -0.415610
C2    C     C_R   0.109449 0.470133 0.207225 0.060257
C3    C     C_R   0.919556 0.473667 0.765950 -0.283855
C4    C     C_3   0.070565 0.773108 0.203149 0.366409
C5    C     C_R   0.818880 0.436563 0.828263 -0.022519
C6    C     C_R   0.881528 0.452031 0.921649 -0.158908
C7    C     C_R   0.049167 0.501229 0.954715 0.019543
C8    C     C_R   0.146571 0.546616 0.890992 -0.019958
C9    C     C_R   0.122139 0.507864 0.049120 0.006264
C10   C     C_R   0.290335 0.561846 0.078248 -0.025719
C11   C     C_R   0.378914 0.610054 0.014980 -0.111025
C12   C     C_3   0.583774 0.831718 0.242705 0.338266
C13   C     C_R   0.307650 0.604473 0.924194 -0.048679
C14   C     C_R   0.035665 0.459964 0.115208 -0.133359
C15   C     C_R   0.272076 0.524900 0.234105 -0.292161
C16   C     C_3   0.032652 0.801280 0.106748 -0.364338
C17   C     C_R   0.080021 0.532656 0.795674 0.039106
C18   C     C_R   0.774277 0.180804 0.533793 -0.252782
C19   C     C_R   0.419377 0.808727 0.463113 -0.293187
C20   C     C_R   0.388438 0.986851 0.429385 -0.108190
C21   C     C_R   0.321921 0.878802 0.425498 -0.009125
C22   C     C_R   0.579723 0.847459 0.511892 0.065255
C23   C     C_3   0.412245 0.285488 0.264930 0.309327
C24   C     C_R   0.647267 0.959183 0.520202 -0.035967
C25   C     C_R   0.550333 0.028932 0.476787 -0.053516
C26   C     C_R   0.616168 0.139705 0.483956 0.056961
C27   C     C_R   0.873634 0.112915 0.572736 -0.011128
C28   C     C_3   0.268721 0.782323 0.654307 0.258246
C29   C     C_R   0.808687 0.003520 0.569085 -0.019095
C30   C     C_3   0.272913 0.903432 0.673176 -0.285129
C31   C     C_3   0.929792 0.217574 0.345568 0.276819
C32   C     C_3   0.915650 0.095934 0.324195 -0.348347
C33   C     C_3   0.774832 0.698948 0.731764 0.324485
C34   C     C_3   0.363918 0.252399 0.161999 -0.399994
C35   C     C_3   0.812386 0.733441 0.834972 -0.366808
C36   C     C_3   0.104632 0.230926 0.794410 0.385801
C37   C     C_3   0.125526 0.205389 0.892237 -0.358995
C38   C     C_3   0.657939 0.195322 0.857297 0.587891
C39   C     C_3   0.609453 0.179100 0.950663 -0.340285
C40   C     C_R   0.365346 0.567320 0.170650 -0.005992
H1    H     H_    0.685629 0.875221 0.297244 0.074975
H2    H     H_    0.888460 0.676501 0.707143 0.003142
H3    H     H_    0.672153 0.628347 0.716891 0.055408
H4    H     H_    0.473615 0.975576 0.227580 0.103839
H5    H     H_    0.918989 0.801688 0.851948 0.140336
H6    H     H_    0.845393 0.665534 0.870339 0.048477
H7    H     H_    0.700502 0.759282 0.860324 0.134454
H8    H     H_    0.479215 0.796775 0.276567 -0.049926
H9    H     H_    0.414800 0.869447 0.130743 0.114112
H10   H     H_    0.301708 0.308750 0.293231 0.017822
H11   H     H_    0.515386 0.355866 0.277439 0.061622
H12   H     H_    0.352720 0.936992 0.739512 0.185992
H13   H     H_    0.255561 0.185244 0.147344 0.129162
H14   H     H_    0.329047 0.321771 0.129002 0.060170
H15   H     H_    0.471318 0.225383 0.132562 0.125906
H16   H     H_    0.620621 0.950059 0.149695 0.134017
H17   H     H_    0.060444 0.737013 0.056183 0.070158
H18   H     H_    0.188342 0.308126 0.793028 0.080247
H19   H     H_    0.972790 0.240951 0.773721 -0.041668
H20   H     H_    0.085377 0.269157 0.938187 0.060861
H21   H     H_    0.048738 0.126342 0.895938 0.153396
H22   H     H_    0.258760 0.202543 0.916333 0.128486
H23   H     H_    0.323642 0.943314 0.618030 0.100105
H24   H     H_    0.782628 0.245604 0.868492 -0.073517
H25   H     H_    0.585465 0.256489 0.985955 0.065518
H26   H     H_    0.712985 0.151970 0.993513 0.096174
H27   H     H_    0.988104 0.696292 0.207264 0.094485
H28   H     H_    0.495228 0.117074 0.942967 0.135692
H29   H     H_    0.329185 0.530173 0.304724 0.073586
H30   H     H_    0.505473 0.653029 0.034519 0.106176
H31   H     H_    0.911833 0.413008 0.097459 0.085076
H32   H     H_    0.868994 0.461662 0.693842 0.072613
H33   H     H_    0.796263 0.423967 0.966346 0.062445
H34   H     H_    0.144538 0.920515 0.677029 0.119494
H35   H     H_    0.383088 0.645414 0.880460 0.104753
H36   H     H_    0.309399 0.037065 0.397056 0.096837
H37   H     H_    0.886735 0.954780 0.603748 0.101681
H38   H     H_    0.824260 0.265720 0.537843 0.052746
H39   H     H_    0.203244 0.761655 0.215350 -0.074637
H40   H     H_    0.366359 0.724302 0.458791 0.070833
H41   H     H_    0.898489 0.808612 0.090736 0.153934
H42   H     H_    0.110670 0.879134 0.100827 0.112926
H43   H     H_    0.393259 0.766429 0.641677 0.020019
H44   H     H_    0.173842 0.750089 0.592832 0.065599
H45   H     H_    0.811511 0.237517 0.365065 -0.001964
H46   H     H_    0.033301 0.246732 0.403319 0.072499
H47   H     H_    0.815135 0.064611 0.265482 0.118280
H48   H     H_    0.885321 0.057241 0.384180 0.072423
H49   H     H_    0.036103 0.075293 0.306547 0.141657
O1    O     O_2   0.827930 0.435360 0.277760 -0.459824
O2    O     O_2   0.217938 0.118793 0.569562 -0.468896
O3    O     O_3   0.147565 0.147067 0.735944 -0.564041
O4    O     O_3   0.100310 0.439010 0.391180 -0.500206
O5    O     O_3   0.587770 0.631830 0.546230 -0.496040
O6    O     O_2   0.332600 0.233710 0.456170 -0.468585
O7    O     O_3   0.464010 0.198035 0.304047 -0.653605
O8    O     O_2   0.475802 0.436410 0.823441 -0.500175
O9    O     O_3   0.531425 0.237028 0.805233 -0.553701
O10   O     O_3   0.625610 0.634200 0.333270 -0.475698
O11   O     O_2   0.706748 0.556479 0.173606 -0.494959
O12   O     O_3   0.728467 0.786014 0.690563 -0.603795
O13   O     O_3   0.958629 0.262715 0.266749 -0.635394
O14   O     O_3   0.648777 0.755083 0.187056 -0.598053
O15   O     O_2   0.857120 0.766320 0.543890 -0.478766
O16   O     O_3   0.056570 0.691100 0.379020 -0.487265
O17   O     O_2   0.985428 0.882242 0.436114 -0.495128
O18   O     O_3   0.040383 0.856915 0.266569 -0.599109
O19   O     O_2   0.361790 0.564680 0.722290 -0.471662
O20   O     O_3   0.089410 0.561080 0.608830 -0.497929
O21   O     O_3   0.564100 0.365890 0.666740 -0.442262
O22   O     O_3   0.230501 0.737544 0.731933 -0.636120
O23   O     O_3   0.601940 0.368260 0.453780 -0.480514
O24   O     O_3   0.133140 0.308990 0.620990 -0.489918
P1    P     P_3+3 0.998770 0.403620 0.291990 0.978125
P2    P     P_3+3 0.687370 0.751000 0.571300 0.988075
P3    P     P_3+3 0.101785 0.829141 0.377478 0.947058
P4    P     P_3+3 0.190950 0.596470 0.708020 0.972685
P5    P     P_3+3 0.092356 0.169797 0.622972 0.994610
P6    P     P_3+3 0.586491 0.625897 0.214447 0.950867
P7    P     P_3+3 0.506862 0.233166 0.423175 0.936592
P8    P     P_3+3 0.601218 0.369477 0.785139 0.979916

loop_
_geom_bond_atom_site_label_1
_geom_bond_atom_site_label_2
_ccdc_geom_bond_type
C30   H12   S    
C38   C39   S    
C10   C40   A    
C22   P2    S    
C4    H27   S    
C3    H32   S    
C38   H24   S    
C35   H6    S    
Ba2   O20   S    
C37   H20   S    
C1    H9    S    
C12   O14   S    
C25   C26   A    
C12   H1    S    
Ba1   Ba2   S    
Ba1   O20   S    
Ba2   O21   S    
C2    C14   A    
C31   C32   S    
Ba2   O23   S    
O5    P2    S    
C34   H13   S    
Ba2   O24   S    
Ba2   O5    S    
C5    C6    A    
C19   C22   A    
C9    C14   A    
C20   C21   A    
C28   C30   S    
C33   H3    S    
C6    H33   S    
C12   H8    S    
C6    C7    A    
O15   P2    D    
C35   H5    S    
C34   H15   S    
C23   O7    S    
C32   H49   S    
O3    P5    S    
C28   H43   S    
C10   C11   A    
C39   H25   S    
O16   P3    S    
O13   P1    S    
O1    P1    D    
C23   H11   S    
C30   H23   S    
O12   P2    S    
C15   H29   S    
O6    P7    D    
C36   H18   S    
C8    C17   A    
O9    P8    S    
O23   P7    S    
O24   P5    S    
C11   H30   S    
O4    P1    S    
C28   H44   S    
Ba1   O5    S    
C36   C37   S    
O20   P4    S    
Ba2   P4    S    
C5    P8    S    
C31   H45   S    
C2    C15   A    
C18   C26   A    
C39   H26   S    
C2    P1    S    
O19   P4    D    
O8    P8    D    
O2    P5    D    
C29   H37   S    
C8    C13   A    
C27   P5    S    
O14   P6    S    
C33   H2    S    
Ba1   P1    S    
C20   C25   A    
C40   P6    S    
C36   O3    S    
C7    C9    A    
Ba1   O15   S    
C18   H38   S    
C4    C16   S    
C37   H22   S    
C14   H31   S    
C19   C21   A    
C16   H41   S    
C23   H10   S    
C17   P4    S    
O17   P3    D    
C13   H35   S    
O7    P7    S    
C36   H19   S    
Br1   C38   S    
C21   P3    S    
C28   O22   S    
C24   C29   A    
C31   O13   S    
Ba2   O19   S    
C16   H42   S    
O18   P3    S    
C3    C5    A    
C23   C34   S    
C35   H7    S    
C16   H17   S    
C22   C24   A    
C3    C17   A    
C18   C27   A    
C37   H21   S    
C4    O18   S    
C33   O12   S    
C19   H40   S    
C1    C12   S    
Ba2   O4    S    
C31   H46   S    
C15   C40   A    
C27   C29   A    
C30   H34   S    
O21   P8    S    
Ba1   O4    S    
C26   P7    S    
C1    H16   S    
C33   C35   S    
C39   H28   S    
C38   O9    S    
C11   C13   A    
Ba1   P2    S    
O22   P4    S    
C7    C8    A    
Ba1   O16   S    
C32   H47   S    
C4    H39   S    
C9    C10   A    
Ba2   O6    S    
Ba1   O1    S    
C24   C25   A    
Ba1   O23   S    
C20   H36   S    
O10   P6    S    
O11   P6    D    
Ba1   O10   S    
C34   H14   S    
C1    H4    S    
C32   H48   S    
