data_mof_unit_62716.cif
_audit_creation_date              2012-12-10T17:50:03-0500
_audit_creation_method            fapswitch 2.2
_symmetry_space_group_name_H-M    P1
_symmetry_Int_Tables_number       1
_space_group_crystal_system       triclinic
_cell_length_a                    27.792743
_cell_length_b                    36.185011
_cell_length_c                    27.772303
_cell_angle_alpha                 90.013974
_cell_angle_beta                  90.0046
_cell_angle_gamma                 89.995726
_cell_volume                      27930.0684336

loop_
_atom_site_label
_atom_site_type_symbol
_atom_type_description
_atom_site_fract_x
_atom_site_fract_y
_atom_site_fract_z
_atom_type_partial_charge
C1    C     C_R   0.499970 0.650319 0.249989 0.814891
C2    C     C_R   0.500030 0.650339 0.750029 0.813428
C3    C     C_R   0.499997 0.349656 0.750039 0.824198
C4    C     C_R   0.500002 0.349684 0.249991 0.822770
C5    C     C_R   0.499967 0.150317 0.750000 0.817297
C6    C     C_R   0.500031 0.150339 0.250030 0.813585
C7    C     C_R   0.499997 0.849655 0.250036 0.824521
C8    C     C_R   0.500020 0.849689 0.749965 0.823171
C9    C     C_R   0.999966 0.650318 0.750001 0.817294
C10   C     C_R   0.000032 0.650339 0.250031 0.813643
C11   C     C_R   0.999997 0.349655 0.250037 0.824514
C12   C     C_R   0.000019 0.349689 0.749966 0.823201
C13   C     C_R   0.999994 0.150318 0.249968 0.817349
C14   C     C_R   0.000041 0.150339 0.750045 0.813207
C15   C     C_R   0.000008 0.849657 0.750052 0.824148
C16   C     C_R   0.000004 0.849684 0.249977 0.823278
C17   C     C_3   0.473390 0.978088 0.302609 0.389820
C18   C     C_3   0.469407 0.977004 0.700370 0.422985
C19   C     C_3   0.472413 0.021768 0.698705 0.330446
C20   C     C_3   0.468760 0.022697 0.298691 0.381581
C21   C     C_3   0.474243 0.478106 0.803106 0.389699
C22   C     C_3   0.478391 0.476708 0.195117 0.443394
C23   C     C_3   0.482117 0.521538 0.193351 0.345404
C24   C     C_3   0.469562 0.522716 0.799246 0.381055
C25   C     C_3   0.975214 0.978089 0.803717 0.389592
C26   C     C_3   0.972653 0.976713 0.197712 0.417187
C27   C     C_3   0.976038 0.021535 0.195572 0.361191
C28   C     C_3   0.970455 0.022701 0.799955 0.381178
C29   C     C_3   0.973192 0.478086 0.302506 0.389789
C30   C     C_3   0.969558 0.477005 0.700276 0.422959
C31   C     C_3   0.972570 0.521768 0.698621 0.330429
C32   C     C_3   0.968581 0.522696 0.298572 0.381589
C33   C     C_1   0.999998 0.610783 0.250309 -0.147153
C34   C     C_1   0.999966 0.610728 0.749452 -0.155500
C35   C     C_1   0.000189 0.389294 0.749389 -0.134981
C36   C     C_1   0.000373 0.389191 0.250989 -0.159402
C37   C     C_1   0.000084 0.110783 0.750437 -0.147073
C38   C     C_1   0.000463 0.110735 0.248903 -0.163904
C39   C     C_1   0.000342 0.889274 0.249195 -0.135303
C40   C     C_1   0.000484 0.889192 0.751119 -0.158985
C41   C     C_1   0.500001 0.610783 0.750315 -0.146954
C42   C     C_1   0.500370 0.610739 0.248976 -0.164876
C43   C     C_1   0.500359 0.389277 0.249276 -0.134700
C44   C     C_1   0.500395 0.389192 0.751023 -0.159273
C45   C     C_1   0.499992 0.110782 0.250305 -0.147105
C46   C     C_1   0.499964 0.110728 0.749453 -0.155520
C47   C     C_1   0.500187 0.889293 0.749389 -0.135005
C48   C     C_1   0.500374 0.889191 0.250987 -0.159382
C49   C     C_3   0.499524 0.963186 0.254950 -0.142665
C50   C     C_3   0.498848 0.963374 0.746312 -0.145031
C51   C     C_3   0.498502 0.036595 0.746251 -0.080837
C52   C     C_3   0.498085 0.036764 0.252476 -0.130882
C53   C     C_3   0.499598 0.463188 0.755031 -0.142772
C54   C     C_3   0.499732 0.463338 0.245437 -0.152909
C55   C     C_3   0.499750 0.536619 0.244663 -0.097158
C56   C     C_3   0.498126 0.536766 0.752548 -0.130908
C57   C     C_3   0.999812 0.963187 0.755242 -0.142680
C58   C     C_3   0.999520 0.963327 0.245304 -0.149770
C59   C     C_3   0.999592 0.036612 0.244503 -0.097154
C60   C     C_3   0.998293 0.036766 0.752820 -0.131056
C61   C     C_3   0.999514 0.463186 0.254951 -0.142694
C62   C     C_3   0.998859 0.463374 0.746308 -0.145058
C63   C     C_3   0.998514 0.536595 0.746247 -0.080832
C64   C     C_3   0.998089 0.536764 0.252474 -0.130794
C65   C     C_3   0.971768 0.521603 0.206099 0.105616
C66   C     C_3   0.972082 0.522268 0.792351 0.085352
C67   C     C_3   0.972511 0.479220 0.792428 0.126101
C68   C     C_3   0.970670 0.478292 0.209820 0.183228
C69   C     C_3   0.970326 0.021601 0.707424 0.105768
C70   C     C_3   0.970578 0.022465 0.289153 0.106104
C71   C     C_3   0.970923 0.979459 0.289808 0.123959
C72   C     C_3   0.969366 0.978293 0.711179 0.183087
C73   C     C_3   0.470863 0.521592 0.706730 0.105651
C74   C     C_3   0.465809 0.522453 0.285663 0.098085
C75   C     C_3   0.466247 0.479438 0.286427 0.122182
C76   C     C_3   0.469846 0.478283 0.710487 0.183071
C77   C     C_3   0.471580 0.021601 0.206207 0.105654
C78   C     C_3   0.472211 0.022268 0.792435 0.085390
C79   C     C_3   0.472640 0.979220 0.792512 0.126072
C80   C     C_3   0.470499 0.978290 0.209934 0.183169
C81   C     C_1   0.999405 0.577514 0.251019 0.131387
C82   C     C_1   0.999392 0.577439 0.748051 0.119930
C83   C     C_1   0.999858 0.422587 0.748246 0.103985
C84   C     C_1   0.000162 0.422451 0.252736 0.083287
C85   C     C_1   0.999546 0.077515 0.751268 0.131429
C86   C     C_1   0.000274 0.077456 0.246904 0.078082
C87   C     C_1   0.000218 0.922557 0.247745 0.101766
C88   C     C_1   0.000369 0.922451 0.752967 0.083240
C89   C     C_1   0.499418 0.577515 0.751046 0.131410
C90   C     C_1   0.500224 0.577461 0.247019 0.096120
C91   C     C_1   0.500304 0.422562 0.247908 0.112394
C92   C     C_1   0.500209 0.422453 0.752801 0.083263
C93   C     C_1   0.499397 0.077514 0.251016 0.131444
C94   C     C_1   0.499385 0.077439 0.748052 0.119933
C95   C     C_1   0.499853 0.922587 0.748247 0.103994
C96   C     C_1   0.500165 0.922451 0.252734 0.083346
C97   C     C_1   0.499980 0.750016 0.431105 -0.146420
C98   C     C_1   0.499986 0.750008 0.568894 -0.144979
C99   C     C_1   0.499982 0.249978 0.568896 -0.145547
C100  C     C_1   0.499995 0.249992 0.431106 -0.144597
C101  C     C_1   0.499983 0.250019 0.931105 -0.145852
C102  C     C_1   0.499990 0.250013 0.068894 -0.144418
C103  C     C_1   0.499981 0.749980 0.068896 -0.143929
C104  C     C_1   0.499995 0.749992 0.931106 -0.143300
C105  C     C_1   0.999980 0.750016 0.931105 -0.145933
C106  C     C_1   0.999987 0.750008 0.068894 -0.144673
C107  C     C_1   0.999981 0.249979 0.068896 -0.144673
C108  C     C_1   0.999995 0.249992 0.931106 -0.143455
C109  C     C_1   0.999980 0.250016 0.431105 -0.146503
C110  C     C_1   0.999986 0.250008 0.568894 -0.145009
C111  C     C_1   0.999982 0.749978 0.568896 -0.145457
C112  C     C_1   0.999995 0.749992 0.431106 -0.144288
C113  C     C_1   0.499979 0.750020 0.474551 0.000575
C114  C     C_1   0.499982 0.750016 0.525448 0.000888
C115  C     C_1   0.499985 0.249974 0.525450 0.002010
C116  C     C_1   0.499992 0.249981 0.474552 0.002333
C117  C     C_1   0.499983 0.250026 0.974551 0.001187
C118  C     C_1   0.499986 0.250023 0.025448 0.001628
C119  C     C_1   0.499984 0.749976 0.025449 0.003474
C120  C     C_1   0.499991 0.749982 0.974552 0.003705
C121  C     C_1   0.999980 0.750020 0.974551 0.000938
C122  C     C_1   0.999983 0.750016 0.025448 0.001243
C123  C     C_1   0.999984 0.249975 0.025449 0.002974
C124  C     C_1   0.999991 0.249981 0.974552 0.003432
C125  C     C_1   0.999979 0.250020 0.474551 0.000472
C126  C     C_1   0.999982 0.250016 0.525448 0.000818
C127  C     C_1   0.999986 0.749974 0.525450 0.002163
C128  C     C_1   0.999993 0.749981 0.474552 0.002577
C129  C     C_R   0.499986 0.749996 0.120630 0.821884
C130  C     C_R   0.499992 0.750002 0.879371 0.823574
C131  C     C_R   0.499987 0.250003 0.879371 0.818583
C132  C     C_R   0.499991 0.250000 0.120628 0.818324
C133  C     C_R   0.499987 0.249996 0.620630 0.822537
C134  C     C_R   0.499992 0.250002 0.379371 0.823006
C135  C     C_R   0.499987 0.750002 0.379371 0.818617
C136  C     C_R   0.499989 0.749998 0.620628 0.817903
C137  C     C_R   0.999987 0.749996 0.620630 0.822542
C138  C     C_R   0.999992 0.750002 0.379371 0.823298
C139  C     C_R   0.999987 0.250002 0.379371 0.818599
C140  C     C_R   0.999989 0.249998 0.620628 0.817867
C141  C     C_R   0.999986 0.249996 0.120630 0.821848
C142  C     C_R   0.999992 0.250002 0.879371 0.823566
C143  C     C_R   0.999987 0.750002 0.879371 0.818550
C144  C     C_R   0.999989 0.749998 0.120628 0.818122
C145  C     C_R   0.370614 0.750000 0.250000 0.825663
C146  C     C_R   0.370616 0.750000 0.749997 0.823236
C147  C     C_R   0.370614 0.250000 0.750000 0.826098
C148  C     C_R   0.370616 0.250000 0.249997 0.822720
C149  C     C_R   0.870614 0.750000 0.750000 0.826097
C150  C     C_R   0.870616 0.750000 0.249997 0.823206
C151  C     C_R   0.870614 0.250000 0.250000 0.826192
C152  C     C_R   0.870616 0.250000 0.749997 0.823184
C153  C     C_R   0.629376 0.749996 0.249999 0.819062
C154  C     C_R   0.629379 0.750001 0.749998 0.821858
C155  C     C_R   0.629376 0.249996 0.749998 0.819631
C156  C     C_R   0.629379 0.250002 0.249998 0.822403
C157  C     C_R   0.129376 0.749996 0.749998 0.819587
C158  C     C_R   0.129379 0.750002 0.249998 0.821919
C159  C     C_R   0.129376 0.249999 0.250001 0.819184
C160  C     C_R   0.129379 0.250001 0.749999 0.821805
C161  C     C_1   0.681110 0.749990 0.249999 -0.144495
C162  C     C_1   0.681113 0.750003 0.749998 -0.143252
C163  C     C_1   0.681110 0.249989 0.749997 -0.144171
C164  C     C_1   0.681112 0.250005 0.249995 -0.143443
C165  C     C_1   0.181110 0.749989 0.749997 -0.144167
C166  C     C_1   0.181113 0.750004 0.249997 -0.143570
C167  C     C_1   0.181111 0.249996 0.250002 -0.144804
C168  C     C_1   0.181113 0.250003 0.749998 -0.143267
C169  C     C_1   0.724547 0.749990 0.249997 0.004671
C170  C     C_1   0.724549 0.750003 0.749997 0.006295
C171  C     C_1   0.724547 0.249989 0.749994 0.004891
C172  C     C_1   0.724549 0.250007 0.249995 0.006217
C173  C     C_1   0.224547 0.749989 0.749994 0.004912
C174  C     C_1   0.224549 0.750005 0.249996 0.005923
C175  C     C_1   0.224548 0.249997 0.249999 0.004287
C176  C     C_1   0.224549 0.250003 0.749997 0.006287
C177  C     C_1   0.775444 0.749993 0.249994 0.007669
C178  C     C_1   0.775444 0.750002 0.749998 0.009004
C179  C     C_1   0.775444 0.249992 0.749991 0.007775
C180  C     C_1   0.775444 0.250005 0.249996 0.008950
C181  C     C_1   0.275444 0.749992 0.749991 0.007829
C182  C     C_1   0.275444 0.750004 0.249997 0.008566
C183  C     C_1   0.275444 0.249999 0.249995 0.007265
C184  C     C_1   0.275444 0.250002 0.749998 0.009016
C185  C     C_1   0.818881 0.749998 0.249993 -0.137130
C186  C     C_1   0.818880 0.750001 0.749999 -0.137384
C187  C     C_1   0.818881 0.249997 0.749991 -0.137047
C188  C     C_1   0.818880 0.250003 0.249997 -0.137492
C189  C     C_1   0.318881 0.749997 0.749991 -0.136966
C190  C     C_1   0.318880 0.750002 0.249998 -0.137836
C191  C     C_1   0.318881 0.250001 0.249994 -0.137479
C192  C     C_1   0.318880 0.250001 0.749999 -0.137362
C193  C     C_3   0.552620 0.977977 0.253883 0.267489
C194  C     C_3   0.551871 0.978989 0.742649 0.342934
C195  C     C_3   0.551399 0.021923 0.747880 0.364748
C196  C     C_3   0.551366 0.020933 0.249602 0.267339
C197  C     C_3   0.552670 0.477976 0.753095 0.267581
C198  C     C_3   0.552656 0.478878 0.250449 0.338038
C199  C     C_3   0.551476 0.521824 0.255372 0.353411
C200  C     C_3   0.551350 0.520930 0.748807 0.267631
C201  C     C_3   0.052846 0.977978 0.752479 0.267588
C202  C     C_3   0.052736 0.978801 0.244333 0.365171
C203  C     C_3   0.052191 0.021776 0.249173 0.326298
C204  C     C_3   0.051455 0.020935 0.748244 0.267487
C205  C     C_3   0.052615 0.477977 0.254097 0.267622
C206  C     C_3   0.051894 0.478989 0.742808 0.342836
C207  C     C_3   0.051406 0.521922 0.748038 0.364727
C208  C     C_3   0.051380 0.520933 0.249811 0.267089
H1    H     H_    0.432475 0.972616 0.219383 0.152601
H2    H     H_    0.434326 0.972294 0.788039 0.164700
H3    H     H_    0.434036 0.031696 0.789635 0.111130
H4    H     H_    0.433399 0.030537 0.206185 0.138044
H5    H     H_    0.431982 0.472608 0.720555 0.152236
H6    H     H_    0.429197 0.472399 0.275832 0.162411
H7    H     H_    0.428712 0.531784 0.275950 0.106919
H8    H     H_    0.432686 0.530527 0.707340 0.137826
H9    H     H_    0.931664 0.972616 0.721839 0.152316
H10   H     H_    0.932890 0.972511 0.283427 0.163003
H11   H     H_    0.932637 0.031877 0.283823 0.105251
H12   H     H_    0.932164 0.030535 0.708626 0.137901
H13   H     H_    0.932608 0.472618 0.219118 0.152655
H14   H     H_    0.934210 0.472294 0.787839 0.164740
H15   H     H_    0.933915 0.531696 0.789434 0.111181
H16   H     H_    0.933587 0.530541 0.205923 0.138162
H17   H     H_    0.569656 0.966426 0.221018 0.027187
H18   H     H_    0.574007 0.968565 0.772902 -0.093889
H19   H     H_    0.565977 0.029146 0.784159 0.070133
H20   H     H_    0.561805 0.025418 0.211541 0.149671
H21   H     H_    0.569171 0.466412 0.719964 0.027201
H22   H     H_    0.569539 0.468504 0.283953 -0.088369
H23   H     H_    0.559633 0.529120 0.293587 0.076006
H24   H     H_    0.561159 0.525399 0.710577 0.149508
H25   H     H_    0.068824 0.966428 0.719084 0.027182
H26   H     H_    0.073260 0.968474 0.275755 -0.098394
H27   H     H_    0.064845 0.029140 0.286173 0.057626
H28   H     H_    0.060675 0.025423 0.709870 0.149509
H29   H     H_    0.069783 0.466424 0.221300 0.027070
H30   H     H_    0.073937 0.468564 0.773128 -0.093747
H31   H     H_    0.065873 0.529145 0.784362 0.070155
H32   H     H_    0.061970 0.525417 0.211792 0.149636
O1    O     O_3   0.499990 0.750000 0.250000 -0.482310
O2    O     O_3   0.499990 0.750000 0.750000 -0.484098
O3    O     O_3   0.499990 0.250000 0.750000 -0.482228
O4    O     O_3   0.499990 0.250000 0.250000 -0.483823
O5    O     O_3   0.999990 0.750000 0.750000 -0.482247
O6    O     O_3   0.999990 0.750000 0.250000 -0.483938
O7    O     O_3   0.999990 0.250000 0.250000 -0.482255
O8    O     O_3   0.999990 0.250000 0.750000 -0.484087
O9    O     O_R   0.527870 0.668020 0.277880 -0.633068
O10   O     O_R   0.527870 0.668020 0.722120 -0.635643
O11   O     O_R   0.527870 0.331980 0.722120 -0.637232
O12   O     O_R   0.527870 0.331980 0.277880 -0.647323
O13   O     O_R   0.527870 0.168020 0.777880 -0.633184
O14   O     O_R   0.527870 0.168020 0.222120 -0.635779
O15   O     O_R   0.527870 0.831980 0.222120 -0.636877
O16   O     O_R   0.527870 0.831980 0.777880 -0.645545
O17   O     O_R   0.027870 0.668020 0.777880 -0.633173
O18   O     O_R   0.027870 0.668020 0.222120 -0.635864
O19   O     O_R   0.027870 0.331980 0.222120 -0.636853
O20   O     O_R   0.027870 0.331980 0.777880 -0.645531
O21   O     O_R   0.027870 0.168020 0.277880 -0.632394
O22   O     O_R   0.027870 0.168020 0.722120 -0.635502
O23   O     O_R   0.027870 0.831980 0.722120 -0.637402
O24   O     O_R   0.027870 0.831980 0.277880 -0.646272
O25   O     O_R   0.472130 0.728510 0.143730 -0.632005
O26   O     O_R   0.472130 0.728510 0.856270 -0.630989
O27   O     O_R   0.472130 0.271490 0.856270 -0.634086
O28   O     O_R   0.472130 0.271490 0.143730 -0.631406
O29   O     O_R   0.472130 0.228510 0.643730 -0.633448
O30   O     O_R   0.472130 0.228510 0.356270 -0.631486
O31   O     O_R   0.472130 0.771490 0.356270 -0.634548
O32   O     O_R   0.472130 0.771490 0.643730 -0.632195
O33   O     O_R   0.972130 0.728510 0.643730 -0.633438
O34   O     O_R   0.972130 0.728510 0.356270 -0.631584
O35   O     O_R   0.972130 0.271490 0.356270 -0.634532
O36   O     O_R   0.972130 0.271490 0.643730 -0.632192
O37   O     O_R   0.972130 0.228510 0.143730 -0.632995
O38   O     O_R   0.972130 0.228510 0.856270 -0.631082
O39   O     O_R   0.972130 0.771490 0.856270 -0.634130
O40   O     O_R   0.972130 0.771490 0.143730 -0.631786
O41   O     O_R   0.393720 0.728520 0.222140 -0.629111
O42   O     O_R   0.393720 0.728520 0.777860 -0.630578
O43   O     O_R   0.393720 0.271480 0.777860 -0.628824
O44   O     O_R   0.393720 0.271480 0.222140 -0.630042
O45   O     O_R   0.393720 0.228520 0.722140 -0.629610
O46   O     O_R   0.393720 0.228520 0.277860 -0.630906
O47   O     O_R   0.393720 0.771480 0.277860 -0.629009
O48   O     O_R   0.393720 0.771480 0.722140 -0.629968
O49   O     O_R   0.893720 0.728520 0.722140 -0.629567
O50   O     O_R   0.893720 0.728520 0.277860 -0.630891
O51   O     O_R   0.893720 0.271480 0.277860 -0.629092
O52   O     O_R   0.893720 0.271480 0.722140 -0.629934
O53   O     O_R   0.893720 0.228520 0.222140 -0.628849
O54   O     O_R   0.893720 0.228520 0.777860 -0.630656
O55   O     O_R   0.893720 0.771480 0.777860 -0.628880
O56   O     O_R   0.893720 0.771480 0.222140 -0.629785
O57   O     O_R   0.606280 0.728500 0.277860 -0.633583
O58   O     O_R   0.606280 0.728500 0.722140 -0.629901
O59   O     O_R   0.606280 0.271500 0.722140 -0.635131
O60   O     O_R   0.606280 0.271500 0.277860 -0.636225
O61   O     O_R   0.606280 0.228500 0.777860 -0.632880
O62   O     O_R   0.606280 0.228500 0.222140 -0.629705
O63   O     O_R   0.606280 0.771500 0.222140 -0.634903
O64   O     O_R   0.606280 0.771500 0.777860 -0.636200
O65   O     O_R   0.106280 0.728500 0.777860 -0.632864
O66   O     O_R   0.106280 0.728500 0.222140 -0.629861
O67   O     O_R   0.106280 0.271500 0.222140 -0.634969
O68   O     O_R   0.106280 0.271500 0.777860 -0.636158
O69   O     O_R   0.106280 0.228500 0.277860 -0.633857
O70   O     O_R   0.106280 0.228500 0.722140 -0.629929
O71   O     O_R   0.106280 0.771500 0.722140 -0.635151
O72   O     O_R   0.106280 0.771500 0.277860 -0.636303
O73   O     O_R   0.527850 0.771500 0.143710 -0.632959
O74   O     O_R   0.527850 0.771500 0.856290 -0.633719
O75   O     O_R   0.527850 0.228500 0.856290 -0.633646
O76   O     O_R   0.527850 0.228500 0.143710 -0.635543
O77   O     O_R   0.527850 0.271500 0.643710 -0.632715
O78   O     O_R   0.527850 0.271500 0.356290 -0.634196
O79   O     O_R   0.527850 0.728500 0.356290 -0.633283
O80   O     O_R   0.527850 0.728500 0.643710 -0.635440
O81   O     O_R   0.027850 0.771500 0.643710 -0.632680
O82   O     O_R   0.027850 0.771500 0.356290 -0.633789
O83   O     O_R   0.027850 0.228500 0.356290 -0.633597
O84   O     O_R   0.027850 0.228500 0.643710 -0.635416
O85   O     O_R   0.027850 0.271500 0.143710 -0.632676
O86   O     O_R   0.027850 0.271500 0.856290 -0.633653
O87   O     O_R   0.027850 0.728500 0.856290 -0.633603
O88   O     O_R   0.027850 0.728500 0.143710 -0.635484
O89   O     O_R   0.472140 0.668020 0.222150 -0.631086
O90   O     O_R   0.472140 0.668020 0.777850 -0.623496
O91   O     O_R   0.472140 0.331980 0.777850 -0.630297
O92   O     O_R   0.472140 0.331980 0.222150 -0.617309
O93   O     O_R   0.472140 0.168020 0.722150 -0.632488
O94   O     O_R   0.472140 0.168020 0.277850 -0.623662
O95   O     O_R   0.472140 0.831980 0.277850 -0.630679
O96   O     O_R   0.472140 0.831980 0.722150 -0.618293
O97   O     O_R   0.972140 0.668020 0.722150 -0.632454
O98   O     O_R   0.972140 0.668020 0.277850 -0.623665
O99   O     O_R   0.972140 0.331980 0.277850 -0.630800
O100  O     O_R   0.972140 0.331980 0.722150 -0.618273
O101  O     O_R   0.972140 0.168020 0.222150 -0.632983
O102  O     O_R   0.972140 0.168020 0.777850 -0.623550
O103  O     O_R   0.972140 0.831980 0.777850 -0.630010
O104  O     O_R   0.972140 0.831980 0.222150 -0.617845
Zn1   Zn    Zn3+2 0.539790 0.780710 0.210180 0.980888
Zn2   Zn    Zn3+2 0.539790 0.780710 0.789820 0.979972
Zn3   Zn    Zn3+2 0.539790 0.219290 0.789820 0.981330
Zn4   Zn    Zn3+2 0.539790 0.219290 0.210180 0.984194
Zn5   Zn    Zn3+2 0.539790 0.280710 0.710180 0.980998
Zn6   Zn    Zn3+2 0.539790 0.280710 0.289820 0.978579
Zn7   Zn    Zn3+2 0.539790 0.719290 0.289820 0.979640
Zn8   Zn    Zn3+2 0.539790 0.719290 0.710180 0.983738
Zn9   Zn    Zn3+2 0.039790 0.780710 0.710180 0.980922
Zn10  Zn    Zn3+2 0.039790 0.780710 0.289820 0.979228
Zn11  Zn    Zn3+2 0.039790 0.219290 0.289820 0.980689
Zn12  Zn    Zn3+2 0.039790 0.219290 0.710180 0.983734
Zn13  Zn    Zn3+2 0.039790 0.280710 0.210180 0.980932
Zn14  Zn    Zn3+2 0.039790 0.280710 0.789820 0.980030
Zn15  Zn    Zn3+2 0.039790 0.719290 0.789820 0.981342
Zn16  Zn    Zn3+2 0.039790 0.719290 0.210180 0.983762
Zn17  Zn    Zn3+2 0.460190 0.719300 0.210200 0.991997
Zn18  Zn    Zn3+2 0.460190 0.719300 0.789800 0.995100
Zn19  Zn    Zn3+2 0.460190 0.280700 0.789800 0.991556
Zn20  Zn    Zn3+2 0.460190 0.280700 0.210200 0.997470
Zn21  Zn    Zn3+2 0.460190 0.219300 0.710200 0.990510
Zn22  Zn    Zn3+2 0.460190 0.219300 0.289800 0.993858
Zn23  Zn    Zn3+2 0.460190 0.780700 0.289800 0.990825
Zn24  Zn    Zn3+2 0.460190 0.780700 0.710200 0.996801
Zn25  Zn    Zn3+2 0.960190 0.719300 0.710200 0.990573
Zn26  Zn    Zn3+2 0.960190 0.719300 0.289800 0.994129
Zn27  Zn    Zn3+2 0.960190 0.280700 0.289800 0.990864
Zn28  Zn    Zn3+2 0.960190 0.280700 0.710200 0.996811
Zn29  Zn    Zn3+2 0.960190 0.219300 0.210200 0.990941
Zn30  Zn    Zn3+2 0.960190 0.219300 0.789800 0.994896
Zn31  Zn    Zn3+2 0.960190 0.780700 0.789800 0.991588
Zn32  Zn    Zn3+2 0.960190 0.780700 0.210200 0.997477
O105  O     O_3   0.090030 0.540385 0.272277 -0.619859
C209  C     C_3   0.086011 0.546020 0.322224 0.260202
H33   H     H_    0.072027 0.521512 0.341518 0.252213
H34   H     H_    0.063577 0.570815 0.329159 0.183670
C210  C     C_3   0.135685 0.554349 0.342468 -0.905047
H35   H     H_    0.150185 0.579988 0.325947 0.267691
H36   H     H_    0.133363 0.558256 0.382066 0.213213
H37   H     H_    0.160661 0.531182 0.334673 0.267285
O106  O     O_3   0.079479 0.538968 0.711367 -0.528348
C211  C     C_3   0.127790 0.544263 0.725899 0.126254
H38   H     H_    0.150895 0.542209 0.693396 0.176623
H39   H     H_    0.140845 0.522759 0.751507 0.105486
C212  C     C_3   0.134122 0.582724 0.747427 -0.871552
H40   H     H_    0.112580 0.585519 0.780889 0.257092
H41   H     H_    0.172610 0.587431 0.756204 0.231354
H42   H     H_    0.122201 0.604003 0.721188 0.258494
O107  O     O_3   0.073359 0.469208 0.698006 -0.482579
C213  C     C_3   0.110349 0.442794 0.703639 0.148093
H43   H     H_    0.097174 0.417905 0.723114 0.123465
H44   H     H_    0.141165 0.455050 0.723624 0.114159
C214  C     C_3   0.127791 0.430823 0.654170 -0.783623
H45   H     H_    0.141697 0.455085 0.634012 0.254665
H46   H     H_    0.157072 0.410154 0.658009 0.198438
H47   H     H_    0.097662 0.418231 0.633629 0.260853
O108  O     O_3   0.078392 0.466225 0.295502 -0.572877
C215  C     C_3   0.125807 0.455213 0.284056 0.110994
H48   H     H_    0.146107 0.478463 0.267465 0.179273
H49   H     H_    0.125457 0.431171 0.259010 0.134575
C216  C     C_3   0.151395 0.443401 0.329941 -0.836862
H50   H     H_    0.133161 0.418913 0.345680 0.243910
H51   H     H_    0.189312 0.436082 0.321717 0.219734
H52   H     H_    0.150913 0.466199 0.356683 0.258226
O109  O     O_3   0.090883 0.040385 0.769313 -0.619275
C217  C     C_3   0.088642 0.046028 0.819369 0.257998
H53   H     H_    0.075361 0.021518 0.839153 0.252197
H54   H     H_    0.066461 0.070820 0.827093 0.183735
C218  C     C_3   0.139002 0.054367 0.837827 -0.899041
H55   H     H_    0.152896 0.080007 0.820793 0.268389
H56   H     H_    0.138090 0.058280 0.877482 0.212674
H57   H     H_    0.163691 0.031204 0.829152 0.268176
O110  O     O_3   0.082134 0.038400 0.213776 -0.545086
C219  C     C_3   0.128989 0.044537 0.231750 0.114640
H58   H     H_    0.143833 0.019334 0.249311 0.125158
H59   H     H_    0.128516 0.067666 0.258162 0.138178
C220  C     C_3   0.161884 0.054994 0.190217 -0.780674
H60   H     H_    0.148330 0.080394 0.172321 0.241732
H61   H     H_    0.198808 0.060214 0.203894 0.210597
H62   H     H_    0.163157 0.032140 0.163531 0.263148
O111  O     O_3   0.076402 0.968777 0.200737 -0.479541
C221  C     C_3   0.112187 0.941648 0.208191 0.154643
H63   H     H_    0.097149 0.916857 0.226452 0.121036
H64   H     H_    0.142125 0.953116 0.230182 0.117074
C222  C     C_3   0.132240 0.929782 0.159681 -0.781084
H65   H     H_    0.148056 0.953959 0.140798 0.253718
H66   H     H_    0.160618 0.908563 0.164952 0.198600
H67   H     H_    0.103051 0.917906 0.137157 0.260268
O112  O     O_3   0.080095 0.966222 0.792927 -0.573292
C223  C     C_3   0.127076 0.955230 0.779778 0.110425
H68   H     H_    0.146753 0.978491 0.762476 0.180526
H69   H     H_    0.125842 0.931192 0.754753 0.134951
C224  C     C_3   0.154304 0.943419 0.824709 -0.831978
H70   H     H_    0.136662 0.918921 0.841085 0.243218
H71   H     H_    0.191906 0.936114 0.815122 0.222025
H72   H     H_    0.154769 0.966211 0.851458 0.257983
O113  O     O_3   0.590454 0.540389 0.770461 -0.619313
C225  C     C_3   0.587465 0.546043 0.820476 0.257916
H73   H     H_    0.573878 0.521543 0.840071 0.252173
H74   H     H_    0.565181 0.570842 0.827857 0.183743
C226  C     C_3   0.637546 0.554375 0.839685 -0.899100
H75   H     H_    0.651706 0.580006 0.822849 0.268294
H76   H     H_    0.636041 0.558300 0.879320 0.212959
H77   H     H_    0.662353 0.531203 0.831393 0.268080
O114  O     O_3   0.585395 0.538674 0.223896 -0.549439
C227  C     C_3   0.630590 0.543887 0.246373 0.126081
H78   H     H_    0.658838 0.541776 0.218241 0.180863
H79   H     H_    0.639069 0.522360 0.273810 0.106429
C228  C     C_3   0.633347 0.582341 0.268678 -0.867376
H80   H     H_    0.606527 0.585183 0.298065 0.256575
H81   H     H_    0.669840 0.586979 0.283779 0.231601
H82   H     H_    0.626048 0.603644 0.240829 0.259487
O115  O     O_3   0.580957 0.468939 0.209688 -0.488258
C229  C     C_3   0.616406 0.442415 0.221284 0.145747
H83   H     H_    0.600162 0.417670 0.238632 0.125500
H84   H     H_    0.643776 0.454667 0.245788 0.115825
C230  C     C_3   0.641336 0.430107 0.175292 -0.774994
H85   H     H_    0.658564 0.454184 0.157466 0.255838
H86   H     H_    0.669389 0.409271 0.183867 0.199683
H87   H     H_    0.614698 0.417608 0.150297 0.260699
O116  O     O_3   0.579274 0.466234 0.793979 -0.573227
C231  C     C_3   0.626447 0.455215 0.781580 0.110340
H88   H     H_    0.646408 0.478458 0.764564 0.180454
H89   H     H_    0.625588 0.431163 0.756563 0.134886
C232  C     C_3   0.652959 0.443420 0.826944 -0.832198
H90   H     H_    0.635045 0.418941 0.843067 0.243306
H91   H     H_    0.690701 0.436094 0.817955 0.221758
H92   H     H_    0.653024 0.466230 0.853673 0.258087
O117  O     O_3   0.590103 0.040386 0.271915 -0.619495
C233  C     C_3   0.586282 0.046020 0.321877 0.259087
H93   H     H_    0.572372 0.021512 0.341226 0.252188
H94   H     H_    0.563877 0.070815 0.328902 0.183704
C234  C     C_3   0.636035 0.054347 0.341925 -0.902125
H95   H     H_    0.650471 0.079986 0.325347 0.268015
H96   H     H_    0.633870 0.058253 0.381532 0.212922
H97   H     H_    0.660979 0.031180 0.334029 0.267736
O118  O     O_3   0.579358 0.038968 0.711122 -0.528291
C235  C     C_3   0.627714 0.044263 0.725504 0.126264
H98   H     H_    0.650718 0.042210 0.692930 0.176512
H99   H     H_    0.640848 0.022759 0.751071 0.105324
C236  C     C_3   0.634111 0.082724 0.747014 -0.871989
H100  H     H_    0.612675 0.085518 0.780543 0.257125
H101  H     H_    0.672627 0.087432 0.755669 0.231163
H102  H     H_    0.622107 0.104003 0.720813 0.258526
O119  O     O_3   0.573200 0.969208 0.697782 -0.482552
C237  C     C_3   0.610204 0.942792 0.703302 0.148028
H103  H     H_    0.597089 0.917905 0.722822 0.123414
H104  H     H_    0.641084 0.955049 0.723188 0.113975
C238  C     C_3   0.627488 0.930817 0.653779 -0.783671
H105  H     H_    0.641332 0.955076 0.633575 0.254671
H106  H     H_    0.656779 0.910146 0.657528 0.198366
H107  H     H_    0.597294 0.918224 0.633336 0.260908
O120  O     O_3   0.578563 0.966225 0.295184 -0.573126
C239  C     C_3   0.625932 0.955216 0.283546 0.110963
H108  H     H_    0.646164 0.978468 0.266876 0.180035
H109  H     H_    0.625484 0.931175 0.258498 0.134737
C240  C     C_3   0.651705 0.943400 0.329326 -0.834805
H110  H     H_    0.633535 0.918910 0.345133 0.243553
H111  H     H_    0.689589 0.936083 0.320947 0.220830
H112  H     H_    0.651329 0.966196 0.356072 0.258106
I1    I     I_    0.401436 0.951920 0.311559 -0.415109
I2    I     I_    0.395904 0.951751 0.703796 -0.411888
I3    I     I_    0.399364 0.047019 0.694146 -0.461945
I4    I     I_    0.394239 0.045815 0.292387 -0.443238
I5    I     I_    0.402442 0.451945 0.813231 -0.411769
I6    I     I_    0.405407 0.451456 0.186641 -0.391516
I7    I     I_    0.411671 0.546382 0.174393 -0.430583
I8    I     I_    0.394947 0.545837 0.794154 -0.439326
I9    I     I_    0.903592 0.951913 0.814970 -0.412813
I10   I     I_    0.898962 0.951542 0.197551 -0.408952
I11   I     I_    0.903858 0.046351 0.185039 -0.431501
I12   I     I_    0.895765 0.045808 0.796017 -0.439612
I13   I     I_    0.901200 0.451923 0.311167 -0.415614
I14   I     I_    0.896044 0.451753 0.703480 -0.411567
I15   I     I_    0.899536 0.547020 0.693837 -0.461732
I16   I     I_    0.894088 0.545819 0.291977 -0.442951
O121  O     O_3   0.502041 0.970820 0.344534 -0.550317
C241  C     C_3   0.503842 0.933733 0.361167 0.210437
H113  H     H_    0.540904 0.922997 0.356303 0.179786
H114  H     H_    0.479668 0.914120 0.342708 0.147578
C242  C     C_3   0.492329 0.932798 0.414720 -0.874830
H115  H     H_    0.456009 0.944544 0.421297 0.271959
H116  H     H_    0.493067 0.903821 0.427858 0.220924
H117  H     H_    0.519401 0.949032 0.435122 0.249998
O122  O     O_3   0.492505 0.961300 0.659085 -0.507970
C243  C     C_3   0.465777 0.964446 0.615823 0.230979
H118  H     H_    0.442462 0.989408 0.614676 0.152882
H119  H     H_    0.442865 0.939547 0.611200 0.155231
C244  C     C_3   0.500402 0.965774 0.573423 -0.799677
H120  H     H_    0.521882 0.939911 0.571969 0.247073
H121  H     H_    0.479956 0.968709 0.539274 0.194067
H122  H     H_    0.525255 0.989562 0.577208 0.282669
O123  O     O_3   0.502609 0.030891 0.658522 -0.506758
C245  C     C_3   0.490753 0.063570 0.633312 0.172448
H123  H     H_    0.480514 0.086645 0.657410 0.157919
H124  H     H_    0.461009 0.057876 0.607618 0.149547
C246  C     C_3   0.534305 0.076281 0.604584 -0.796238
H125  H     H_    0.545550 0.054502 0.578800 0.246203
H126  H     H_    0.525184 0.101690 0.584105 0.198008
H127  H     H_    0.564673 0.082495 0.629287 0.276914
O124  O     O_3   0.489522 0.039978 0.339856 -0.620588
C247  C     C_3   0.461983 0.036996 0.382642 0.230156
H128  H     H_    0.440202 0.011274 0.384482 0.188877
H129  H     H_    0.437497 0.061144 0.385671 0.169342
C248  C     C_3   0.495722 0.038047 0.425778 -0.874647
H130  H     H_    0.515127 0.064870 0.426783 0.246390
H131  H     H_    0.474811 0.034800 0.459586 0.214288
H132  H     H_    0.522520 0.015415 0.423290 0.277453
O125  O     O_3   0.503564 0.470844 0.844566 -0.550334
C249  C     C_3   0.505597 0.433762 0.861194 0.210772
H133  H     H_    0.542611 0.423051 0.855885 0.179679
H134  H     H_    0.481224 0.414130 0.843033 0.147327
C250  C     C_3   0.494730 0.432830 0.914882 -0.874988
H135  H     H_    0.458451 0.444504 0.921887 0.273108
H136  H     H_    0.495725 0.403862 0.928040 0.221017
H137  H     H_    0.521988 0.449132 0.934937 0.249140
O126  O     O_3   0.507358 0.459971 0.158441 -0.514103
C251  C     C_3   0.491361 0.466253 0.110585 0.249944
H138  H     H_    0.519636 0.481980 0.091173 0.184702
H139  H     H_    0.457549 0.482536 0.107788 0.156142
C252  C     C_3   0.485449 0.429447 0.084649 -0.862851
H140  H     H_    0.457563 0.412369 0.102569 0.285434
H141  H     H_    0.474499 0.434367 0.046726 0.216168
H142  H     H_    0.520067 0.414105 0.084895 0.256267
O127  O     O_3   0.517807 0.529915 0.157736 -0.535817
C253  C     C_3   0.519597 0.566676 0.140159 0.214421
H143  H     H_    0.555424 0.578427 0.148999 0.181823
H144  H     H_    0.492666 0.585885 0.155234 0.145138
C254  C     C_3   0.514326 0.566289 0.085614 -0.894923
H145  H     H_    0.478936 0.554398 0.075399 0.266262
H146  H     H_    0.516740 0.594916 0.071421 0.225951
H147  H     H_    0.543413 0.549418 0.069217 0.254628
O128  O     O_3   0.491021 0.540002 0.840048 -0.621190
C255  C     C_3   0.464168 0.537103 0.883276 0.229918
H148  H     H_    0.442467 0.511362 0.885564 0.189538
H149  H     H_    0.439700 0.561239 0.886601 0.170662
C256  C     C_3   0.498586 0.538302 0.925865 -0.869954
H150  H     H_    0.518060 0.565104 0.926365 0.247108
H151  H     H_    0.478206 0.535241 0.960027 0.217242
H152  H     H_    0.525291 0.515620 0.923117 0.275825
O129  O     O_3   0.005195 0.970826 0.844701 -0.550242
C257  C     C_3   0.007521 0.933741 0.861276 0.210722
H153  H     H_    0.044429 0.923025 0.855298 0.179731
H154  H     H_    0.982823 0.914116 0.843547 0.147058
C258  C     C_3   0.997628 0.932807 0.915153 -0.875549
H155  H     H_    0.961510 0.944529 0.922824 0.272282
H156  H     H_    0.998796 0.903832 0.928271 0.220844
H157  H     H_    0.025282 0.949063 0.934724 0.249768
O130  O     O_3   0.997880 0.960500 0.158022 -0.510308
C259  C     C_3   0.973635 0.963167 0.113266 0.240117
H158  H     H_    0.950835 0.988312 0.110161 0.169783
H159  H     H_    0.950611 0.938409 0.107977 0.150675
C260  C     C_3   0.010655 0.963508 0.072898 -0.795023
H160  H     H_    0.030811 0.937004 0.072531 0.242022
H161  H     H_    0.992358 0.967129 0.037656 0.194315
H162  H     H_    0.036553 0.986466 0.078269 0.289325
O131  O     O_3   0.006899 0.029947 0.155624 -0.517020
C261  C     C_3   0.007821 0.067115 0.139361 0.215184
H163  H     H_    0.044103 0.078745 0.146393 0.181028
H164  H     H_    0.981712 0.085925 0.156570 0.143771
C262  C     C_3   0.999157 0.068034 0.085270 -0.874553
H165  H     H_    0.963711 0.055501 0.076688 0.269289
H166  H     H_    0.999443 0.097078 0.072366 0.221005
H167  H     H_    0.027895 0.052530 0.066242 0.252658
O132  O     O_3   0.992508 0.039978 0.840451 -0.620849
C263  C     C_3   0.966314 0.037011 0.884084 0.230050
H168  H     H_    0.944636 0.011274 0.886629 0.189033
H169  H     H_    0.941903 0.061143 0.887844 0.170139
C264  C     C_3   0.001359 0.038125 0.926169 -0.873319
H170  H     H_    0.020788 0.064946 0.926512 0.247031
H171  H     H_    0.981495 0.034938 0.960619 0.216938
H172  H     H_    0.028062 0.015483 0.922920 0.276843
O133  O     O_3   0.001672 0.470814 0.344546 -0.550305
C265  C     C_3   0.003417 0.433723 0.361172 0.210480
H173  H     H_    0.040489 0.422982 0.356413 0.179805
H174  H     H_    0.979290 0.414118 0.342637 0.147638
C266  C     C_3   0.991748 0.432782 0.414690 -0.874862
H175  H     H_    0.955412 0.444532 0.421164 0.271985
H176  H     H_    0.992440 0.403802 0.427822 0.220941
H177  H     H_    0.018766 0.449007 0.435175 0.249920
O134  O     O_3   0.992780 0.461301 0.659060 -0.507972
C267  C     C_3   0.966181 0.464447 0.615718 0.230999
H178  H     H_    0.942868 0.489408 0.614502 0.152851
H179  H     H_    0.943284 0.439548 0.611026 0.155190
C268  C     C_3   0.000932 0.465777 0.573422 -0.799830
H180  H     H_    0.022419 0.439916 0.572031 0.247042
H181  H     H_    0.980587 0.468711 0.539211 0.194012
H182  H     H_    0.025771 0.489568 0.577280 0.282688
O135  O     O_3   0.002889 0.530891 0.658531 -0.506740
C269  C     C_3   0.991114 0.563571 0.633285 0.172488
H183  H     H_    0.980795 0.586645 0.657351 0.157862
H184  H     H_    0.961453 0.557877 0.607494 0.149511
C270  C     C_3   0.034757 0.576285 0.604700 -0.796332
H185  H     H_    0.046092 0.554505 0.578955 0.246212
H186  H     H_    0.025700 0.601691 0.584188 0.197941
H187  H     H_    0.065043 0.582503 0.629502 0.276911
O136  O     O_3   0.989183 0.539974 0.339819 -0.620636
C271  C     C_3   0.961477 0.536992 0.382497 0.230171
H188  H     H_    0.939684 0.511272 0.384250 0.188884
H189  H     H_    0.936984 0.561142 0.385433 0.169313
C272  C     C_3   0.995049 0.538037 0.425765 -0.874661
H190  H     H_    0.014458 0.564856 0.426846 0.246370
H191  H     H_    0.974005 0.534793 0.459491 0.214339
H192  H     H_    0.021849 0.515399 0.423382 0.277422
O137  O     O_3   0.474486 0.957581 0.166243 -0.572934
C273  C     C_3   0.517169 0.962047 0.139101 0.245826
H193  H     H_    0.543428 0.981917 0.153568 0.137459
H194  H     H_    0.506890 0.972549 0.102980 0.169040
C274  C     C_3   0.541566 0.924748 0.132128 -0.893397
H195  H     H_    0.515736 0.904582 0.116607 0.275701
H196  H     H_    0.572517 0.927776 0.107158 0.216463
H197  H     H_    0.555083 0.914024 0.166988 0.252564
O138  O     O_3   0.481398 0.962303 0.838150 -0.572027
C275  C     C_3   0.529959 0.959841 0.852317 0.194307
H198  H     H_    0.549982 0.985888 0.846196 0.165951
H199  H     H_    0.547515 0.936260 0.833751 0.128141
C276  C     C_3   0.531900 0.951612 0.905980 -0.820841
H200  H     H_    0.514002 0.924797 0.913602 0.258933
H201  H     H_    0.569944 0.950028 0.918036 0.204303
H202  H     H_    0.513334 0.973742 0.926481 0.255513
O139  O     O_3   0.494685 0.036875 0.834355 -0.592273
C277  C     C_3   0.460313 0.046663 0.869577 0.170074
H203  H     H_    0.438869 0.022109 0.880636 0.176754
H204  H     H_    0.435817 0.068585 0.855738 0.130859
C278  C     C_3   0.486168 0.061942 0.913541 -0.836838
H205  H     H_    0.506587 0.087194 0.903578 0.261510
H206  H     H_    0.459548 0.069115 0.941856 0.205540
H207  H     H_    0.511574 0.041083 0.928086 0.254555
O140  O     O_3   0.494510 0.034014 0.163240 -0.626548
C279  C     C_3   0.467519 0.061172 0.138331 0.130293
H208  H     H_    0.492993 0.078130 0.116892 0.166190
H209  H     H_    0.448481 0.080671 0.162838 0.131798
C280  C     C_3   0.432072 0.043051 0.103677 -0.837164
H210  H     H_    0.405709 0.025896 0.123713 0.262967
H211  H     H_    0.412280 0.064706 0.083435 0.209858
H212  H     H_    0.451705 0.025295 0.077655 0.252411
O141  O     O_3   0.473124 0.457566 0.666744 -0.573113
C281  C     C_3   0.515358 0.462030 0.638908 0.245928
H213  H     H_    0.541850 0.481900 0.652944 0.137444
H214  H     H_    0.504492 0.472529 0.602958 0.168652
C282  C     C_3   0.539639 0.424731 0.631541 -0.895213
H215  H     H_    0.513557 0.404563 0.616451 0.275395
H216  H     H_    0.570174 0.427756 0.606064 0.215997
H217  H     H_    0.553728 0.414010 0.666174 0.252889
O142  O     O_3   0.467378 0.462897 0.333118 -0.571666
C283  C     C_3   0.512929 0.460632 0.355157 0.194772
H218  H     H_    0.533681 0.486651 0.352036 0.164358
H219  H     H_    0.533290 0.436902 0.340118 0.126386
C284  C     C_3   0.505987 0.452896 0.408529 -0.823842
H220  H     H_    0.487025 0.426146 0.413510 0.258182
H221  H     H_    0.541522 0.451437 0.426722 0.202278
H222  H     H_    0.484346 0.475209 0.425343 0.256412
O143  O     O_3   0.480497 0.537359 0.330749 -0.590000
C285  C     C_3   0.440423 0.547470 0.359106 0.171748
H223  H     H_    0.417313 0.523006 0.366560 0.175571
H224  H     H_    0.418825 0.569242 0.340765 0.130870
C286  C     C_3   0.458070 0.563194 0.406718 -0.840276
H225  H     H_    0.480060 0.588321 0.400133 0.259967
H226  H     H_    0.426849 0.570693 0.429675 0.206209
H227  H     H_    0.480363 0.542472 0.425948 0.254189
O144  O     O_3   0.493076 0.533998 0.663384 -0.626627
C287  C     C_3   0.465653 0.561129 0.638900 0.130217
H228  H     H_    0.490748 0.578070 0.616998 0.166063
H229  H     H_    0.447037 0.580648 0.663704 0.131735
C288  C     C_3   0.429615 0.542972 0.604892 -0.836876
H230  H     H_    0.403597 0.525840 0.625405 0.262533
H231  H     H_    0.409480 0.564606 0.584953 0.210196
H232  H     H_    0.448797 0.525186 0.578569 0.252212
O145  O     O_3   0.971958 0.957588 0.667377 -0.573073
C289  C     C_3   0.013753 0.962057 0.638886 0.246072
H233  H     H_    0.040461 0.981925 0.652509 0.137353
H234  H     H_    0.002328 0.972561 0.603114 0.168791
C290  C     C_3   0.037917 0.924760 0.631128 -0.895176
H235  H     H_    0.011600 0.904590 0.616454 0.275428
H236  H     H_    0.068042 0.927788 0.605166 0.216134
H237  H     H_    0.052559 0.914037 0.665530 0.252762
O146  O     O_3   0.977232 0.962870 0.336056 -0.571979
C291  C     C_3   0.024965 0.960480 0.352819 0.195167
H238  H     H_    0.045322 0.986470 0.347450 0.165419
H239  H     H_    0.043434 0.936747 0.335513 0.127730
C292  C     C_3   0.024039 0.952649 0.406610 -0.823384
H240  H     H_    0.005685 0.925914 0.413608 0.258822
H241  H     H_    0.061386 0.951105 0.420687 0.203307
H242  H     H_    0.004479 0.974955 0.425820 0.255906
O147  O     O_3   0.990409 0.037300 0.332266 -0.588079
C293  C     C_3   0.953896 0.047412 0.365093 0.170328
H243  H     H_    0.931725 0.022970 0.375088 0.175157
H244  H     H_    0.930390 0.069252 0.349431 0.130979
C294  C     C_3   0.976941 0.063014 0.410407 -0.837317
H245  H     H_    0.998054 0.088146 0.401422 0.261459
H246  H     H_    0.948589 0.070473 0.436851 0.205512
H247  H     H_    0.001278 0.042234 0.426849 0.254021
O148  O     O_3   0.991867 0.034016 0.663743 -0.626610
C295  C     C_3   0.964059 0.061140 0.639683 0.129739
H248  H     H_    0.988809 0.078089 0.617401 0.165756
H249  H     H_    0.945814 0.080652 0.664770 0.131795
C296  C     C_3   0.927516 0.042974 0.606230 -0.836975
H250  H     H_    0.901833 0.025823 0.627137 0.262749
H251  H     H_    0.907056 0.064604 0.586618 0.209937
H252  H     H_    0.946304 0.025206 0.579605 0.252306
O149  O     O_3   0.974829 0.457583 0.166144 -0.572864
C297  C     C_3   0.017620 0.462047 0.139174 0.245818
H253  H     H_    0.043823 0.481914 0.153747 0.137431
H254  H     H_    0.007488 0.472548 0.103012 0.169099
C298  C     C_3   0.042042 0.424746 0.132300 -0.893123
H255  H     H_    0.016271 0.404581 0.116678 0.275776
H256  H     H_    0.073091 0.427771 0.107452 0.216557
H257  H     H_    0.055420 0.414022 0.167213 0.252485
O150  O     O_3   0.981129 0.462302 0.838093 -0.571999
C299  C     C_3   0.029646 0.459841 0.852410 0.194216
H258  H     H_    0.049687 0.485888 0.846351 0.165980
H259  H     H_    0.047260 0.436260 0.833898 0.128167
C300  C     C_3   0.031423 0.451611 0.906079 -0.820452
H260  H     H_    0.013503 0.424795 0.913646 0.258935
H261  H     H_    0.069430 0.450028 0.918253 0.204402
H262  H     H_    0.012793 0.473741 0.926524 0.255512
O151  O     O_3   0.994427 0.536875 0.834340 -0.592306
C301  C     C_3   0.959947 0.546661 0.869458 0.170149
H263  H     H_    0.938469 0.522107 0.880449 0.176858
H264  H     H_    0.935493 0.568584 0.855545 0.130923
C302  C     C_3   0.985667 0.561938 0.913502 -0.836666
H265  H     H_    0.006118 0.587191 0.903605 0.261474
H266  H     H_    0.958960 0.569111 0.941737 0.205647
H267  H     H_    0.011028 0.541079 0.928125 0.254554
O152  O     O_3   0.994871 0.534014 0.163225 -0.626598
C303  C     C_3   0.967986 0.561175 0.138207 0.130050
H268  H     H_    0.993551 0.578138 0.116882 0.166275
H269  H     H_    0.948840 0.580670 0.162636 0.131981
C304  C     C_3   0.932692 0.543057 0.103396 -0.836135
H270  H     H_    0.906248 0.525895 0.123314 0.263131
H271  H     H_    0.912981 0.564713 0.083077 0.210044
H272  H     H_    0.952439 0.525309 0.077451 0.252283

loop_
_geom_bond_atom_site_label_1
_geom_bond_atom_site_label_2
_ccdc_geom_bond_type
C287  H229  S    
C62   C83   S    
C196  H20   S    
C148  O46   A    
O66   Zn16  S    
C278  H205  S    
C247  C248  S    
O125  C249  S    
C52   C196  S    
C39   C87   T    
C171  C179  S    
C50   C79   S    
O42   Zn18  S    
C150  C185  S    
C108  C142  S    
O140  C279  S    
C67   O150  S    
C231  H88   S    
O2    Zn18  S    
C232  H90   S    
O5    Zn9   S    
C218  H55   S    
C289  H234  S    
C296  H252  S    
C138  O34   A    
O58   Zn8   S    
O2    Zn24  S    
O14   Zn4   S    
C102  C132  S    
C279  H208  S    
C266  H175  S    
C268  H181  S    
O77   Zn5   S    
C292  H242  S    
C287  C288  S    
C131  O27   A    
C265  H173  S    
C2    C41   S    
C301  H264  S    
C264  H172  S    
C32   I16   S    
C243  H118  S    
O129  C257  S    
C17   I1    S    
C199  H23   S    
C55   C74   S    
C193  O120  S    
C76   H5    S    
C55   C199  S    
C252  H142  S    
O6    Zn16  S    
C71   O146  S    
C289  C290  S    
C26   I10   S    
C157  O71   A    
O72   Zn10  S    
C251  C252  S    
C277  H204  S    
C44   C92   T    
O83   Zn11  S    
C1    O89   A    
C148  C191  S    
C222  H66   S    
O7    Zn29  S    
C201  O112  S    
C149  C186  S    
O92   Zn20  S    
C258  H155  S    
O10   Zn8   S    
C77   O140  S    
C140  O84   A    
O70   Zn12  S    
C297  H254  S    
C108  C124  T    
C152  C187  S    
C32   O136  S    
C223  H68   S    
C279  H209  S    
O5    Zn31  S    
C151  C188  S    
C15   O103  A    
C166  C174  T    
C202  C203  S    
C21   I5    S    
O31   Zn23  S    
C4    O12   A    
C277  C278  S    
C79   O138  S    
C143  O39   A    
C74   C75   S    
C274  H197  S    
C16   O104  A    
O7    Zn13  S    
C206  C207  S    
C160  O68   A    
C250  H135  S    
C254  H145  S    
C8    O16   A    
C291  H238  S    
O69   Zn11  S    
C153  C161  S    
C297  C298  S    
C11   O19   A    
C254  H147  S    
C211  H39   S    
C256  H150  S    
C231  H89   S    
C205  O108  S    
C202  H26   S    
C279  C280  S    
C261  H164  S    
O43   Zn19  S    
C119  C120  S    
C65   C68   S    
O68   Zn14  S    
C135  O31   A    
C239  H108  S    
C245  H123  S    
C206  H30   S    
C244  H121  S    
O11   Zn5   S    
C31   O135  S    
O135  C269  S    
C49   C193  S    
O13   Zn3   S    
C170  C178  S    
C164  C172  T    
C278  H207  S    
C235  H99   S    
C300  H261  S    
C270  H185  S    
C276  H202  S    
C211  C212  S    
O67   Zn13  S    
C237  H103  S    
C285  H224  S    
C52   C77   S    
C263  C264  S    
C111  C137  S    
C261  C262  S    
C175  C183  S    
C275  H198  S    
O133  C265  S    
C250  H137  S    
C153  O57   A    
C176  C184  S    
C23   O127  S    
C56   C73   S    
C48   C96   T    
C151  O53   A    
O110  C219  S    
O124  C247  S    
O12   Zn6   S    
C61   C84   S    
O86   Zn14  S    
C23   C55   S    
C4    C43   S    
O95   Zn23  S    
O4    Zn4   S    
C235  C236  S    
C20   C52   S    
C5    C46   S    
O8    Zn12  S    
C2    O90   A    
C49   C80   S    
C195  H19   S    
C53   C197  S    
C7    C48   S    
C132  O76   A    
C285  C286  S    
C214  H46   S    
C271  H188  S    
O117  C233  S    
C8    C47   S    
O81   Zn9   S    
C29   C32   S    
C204  H28   S    
C51   C195  S    
C276  H200  S    
C296  H251  S    
O39   Zn31  S    
C40   C88   T    
C233  H93   S    
C281  H214  S    
O59   Zn5   S    
C159  C167  S    
C27   O131  S    
C25   O129  S    
C160  C168  S    
C226  H75   S    
C19   O123  S    
C228  H82   S    
C51   C78   S    
C15   O23   A    
C213  H43   S    
C273  C274  S    
C133  O77   A    
C178  C186  T    
C58   C202  S    
C234  H96   S    
O142  C283  S    
C21   C24   S    
C196  O117  S    
O3    Zn21  S    
C22   C23   S    
C202  O111  S    
C182  C190  T    
O109  C217  S    
C216  H50   S    
C253  H144  S    
C62   C206  S    
C65   H16   S    
C72   O145  S    
C56   C200  S    
C281  C282  S    
O5    Zn25  S    
C79   H2    S    
C41   C89   T    
C280  H210  S    
C73   O144  S    
C145  C190  S    
C69   C72   S    
C69   H12   S    
C65   O152  S    
C18   C50   S    
C45   C93   T    
C223  H69   S    
C174  C182  S    
C198  O115  S    
C283  H218  S    
C261  H163  S    
O36   Zn28  S    
C123  C124  S    
C22   C54   S    
C222  H65   S    
C234  H95   S    
C294  H245  S    
C71   H10   S    
C141  O85   A    
C38   C86   T    
O45   Zn21  S    
C3    O11   A    
C18   C19   S    
C55   C90   S    
C304  H270  S    
O6    Zn32  S    
C227  C228  S    
C194  O119  S    
C115  C116  S    
C215  C216  S    
C294  H246  S    
O15   Zn1   S    
C288  H231  S    
O152  C303  S    
C5    O13   A    
O121  C241  S    
C286  H226  S    
O1    Zn7   S    
O37   Zn29  S    
C14   O22   A    
C133  O29   A    
C60   C204  S    
C255  C256  S    
C257  C258  S    
O20   Zn14  S    
C212  H42   S    
C73   H8    S    
C107  C141  S    
C27   I11   S    
C134  O30   A    
C161  C169  T    
C66   C67   S    
C136  O32   A    
C240  H110  S    
C139  O35   A    
C152  O52   A    
C25   C57   S    
C18   I2    S    
O61   Zn3   S    
O101  Zn29  S    
C169  C177  S    
C100  C134  S    
C203  H27   S    
O118  C235  S    
C219  H59   S    
C155  O61   A    
C282  H216  S    
O4    Zn6   S    
C29   C61   S    
C3    C44   S    
C70   O147  S    
C197  O116  S    
C229  H83   S    
C63   C82   S    
O78   Zn6   S    
C31   C63   S    
O60   Zn6   S    
C32   C64   S    
C273  H193  S    
C216  H52   S    
C17   C49   S    
O28   Zn20  S    
C59   C70   S    
C155  C163  S    
C9    O97   A    
C42   C90   T    
C130  O26   A    
C256  H152  S    
C303  H269  S    
C236  H100  S    
C24   I8    S    
C219  C220  S    
C239  H109  S    
C46   C94   T    
C260  H160  S    
O35   Zn27  S    
C193  C196  S    
O96   Zn24  S    
C142  O86   A    
O3    Zn19  S    
O146  C291  S    
C158  O66   A    
O7    Zn11  S    
C52   C93   S    
O94   Zn22  S    
C12   C35   S    
C217  H53   S    
C241  H114  S    
C24   O128  S    
C110  C126  T    
C22   O126  S    
C21   O125  S    
C20   O124  S    
C56   C89   S    
C290  H237  S    
C263  H168  S    
C280  H212  S    
C291  H239  S    
O27   Zn19  S    
C150  O50   A    
C200  O113  S    
C238  H107  S    
C303  C304  S    
C97   C135  S    
C269  H184  S    
C210  H37   S    
C212  H41   S    
C215  H48   S    
O8    Zn28  S    
C222  H67   S    
C109  C125  T    
C168  C176  T    
O115  C229  S    
O89   Zn17  S    
O23   Zn9   S    
O56   Zn32  S    
C154  C162  S    
C66   H15   S    
C28   I12   S    
C146  O42   A    
C304  H272  S    
C29   I13   S    
C78   O139  S    
C129  O73   A    
C220  H62   S    
C98   C114  T    
C200  H24   S    
C70   H11   S    
C18   O122  S    
C101  C117  T    
C269  C270  S    
C242  H116  S    
O131  C261  S    
C117  C118  S    
C135  O79   A    
C293  H243  S    
C265  H174  S    
C60   C69   S    
C136  O80   A    
C246  H125  S    
C287  H228  S    
C10   C33   S    
C243  H119  S    
C64   C81   S    
C284  H222  S    
C301  C302  S    
C299  H258  S    
C241  H113  S    
C302  H266  S    
C54   C75   S    
C147  O45   A    
C12   O100  A    
C204  O109  S    
O53   Zn29  S    
C154  O58   A    
C218  H56   S    
O114  C227  S    
C298  H257  S    
C57   C201  S    
C295  H248  S    
C267  H178  S    
C157  O65   A    
C34   C82   T    
C30   I14   S    
C225  H73   S    
C238  H105  S    
C225  H74   S    
C268  H180  S    
C10   O98   A    
C224  H70   S    
C159  O67   A    
C265  C266  S    
C28   O132  S    
C130  O74   A    
O91   Zn19  S    
C264  H170  S    
C6    C45   S    
C9    O17   A    
C74   H7    S    
C258  H157  S    
C243  C244  S    
O63   Zn1   S    
C227  H79   S    
C100  C116  T    
C107  C123  T    
C156  O62   A    
C142  O38   A    
O138  C275  S    
O41   Zn17  S    
O6    Zn10  S    
C25   C28   S    
O1    Zn17  S    
C26   C27   S    
C220  H60   S    
C249  H134  S    
C167  C175  T    
C13   C38   S    
C219  H58   S    
C294  H247  S    
C274  H196  S    
C99   C115  T    
C30   C31   S    
C58   C71   S    
C230  H87   S    
C179  C187  T    
C221  H63   S    
C155  O59   A    
O100  Zn28  S    
C17   C20   S    
C177  C185  T    
C193  H17   S    
O38   Zn30  S    
C247  H128  S    
O141  C281  S    
C228  H81   S    
O29   Zn21  S    
C180  C188  T    
C77   H4    S    
C33   C81   T    
C181  C189  T    
C232  H92   S    
O3    Zn5   S    
C298  H256  S    
C282  H217  S    
C272  H190  S    
C251  H139  S    
C184  C192  T    
C146  C189  S    
O51   Zn27  S    
C70   C71   S    
C298  H255  S    
C163  C171  T    
C144  O88   A    
C259  C260  S    
C207  H31   S    
C74   O143  S    
C262  H167  S    
C172  C180  S    
C224  H71   S    
C194  C195  S    
C66   O151  S    
C173  C181  S    
C278  H206  S    
O111  C221  S    
C104  C130  S    
C244  H120  S    
O148  C295  S    
C29   O133  S    
C255  H149  S    
C290  H236  S    
C237  H104  S    
C253  C254  S    
O108  C215  S    
C275  H199  S    
C292  H241  S    
C260  H162  S    
C210  H36   S    
C4    O92   A    
C299  C300  S    
C22   I6    S    
C289  H233  S    
C239  C240  S    
O99   Zn27  S    
C8    O96   A    
O80   Zn8   S    
O97   Zn25  S    
C214  H47   S    
C35   C83   T    
C253  H143  S    
C252  H140  S    
O7    Zn27  S    
C157  C165  S    
C183  C191  T    
O34   Zn26  S    
C237  C238  S    
O22   Zn12  S    
C197  C200  S    
C271  H189  S    
C106  C122  T    
C148  O44   A    
C248  H130  S    
C112  C138  S    
C302  H267  S    
C275  C276  S    
C147  O43   A    
C153  O63   A    
C201  H25   S    
C162  C170  T    
C154  O64   A    
C26   O130  S    
O75   Zn3   S    
C205  H29   S    
C26   C58   S    
O98   Zn26  S    
C277  H203  S    
C257  H154  S    
C209  H33   S    
C101  C131  S    
C286  H227  S    
C160  O70   A    
C139  O83   A    
C284  H221  S    
C197  H21   S    
C299  H259  S    
C30   C62   S    
C125  C126  S    
C73   C76   S    
C268  H182  S    
C53   C76   S    
O50   Zn26  S    
C249  H133  S    
C209  H34   S    
C127  C128  S    
C291  C292  S    
O4    Zn22  S    
C266  H177  S    
C129  O25   A    
C158  C166  S    
C233  C234  S    
C31   I15   S    
O134  C267  S    
C77   C80   S    
O113  C225  S    
O30   Zn22  S    
O87   Zn15  S    
C17   O121  S    
C7    O15   A    
O106  C211  S    
O49   Zn25  S    
C292  H240  S    
C213  C214  S    
C258  H156  S    
C283  H219  S    
C60   C85   S    
O85   Zn13  S    
C248  H132  S    
C231  C232  S    
C3    O91   A    
C260  H161  S    
C149  O55   A    
C25   I9    S    
C64   C65   S    
C194  H18   S    
C209  C210  S    
C276  H201  S    
C211  H38   S    
C301  H263  S    
C150  O56   A    
C54   C91   S    
C14   C37   S    
C50   C194  S    
O3    Zn3   S    
O143  C285  S    
C302  H265  S    
O44   Zn20  S    
O55   Zn31  S    
O54   Zn30  S    
C110  C140  S    
C9    C34   S    
C137  O81   A    
C57   C72   S    
O5    Zn15  S    
C286  H225  S    
C145  O47   A    
C15   C40   S    
C199  O114  S    
C283  C284  S    
C146  O48   A    
C16   C39   S    
C207  O106  S    
C59   C203  S    
C1    C42   S    
O62   Zn4   S    
C246  H126  S    
O144  C287  S    
C300  H262  S    
O8    Zn14  S    
C272  H191  S    
O47   Zn23  S    
C244  H122  S    
C285  H223  S    
C214  H45   S    
C165  C173  T    
C78   H3    S    
C249  C250  S    
O6    Zn26  S    
C80   H1    S    
C104  C120  T    
C242  H117  S    
O79   Zn7   S    
O4    Zn20  S    
C288  H232  S    
C151  O51   A    
C143  O87   A    
O145  C289  S    
C68   H13   S    
C270  H187  S    
C24   C56   S    
C254  H146  S    
C226  H77   S    
C58   C87   S    
C208  H32   S    
O130  C259  S    
C264  H171  S    
O33   Zn25  S    
C238  H106  S    
O57   Zn7   S    
C290  H235  S    
O103  Zn31  S    
C72   H9    S    
C64   C208  S    
C6    O14   A    
O151  C301  S    
C296  H250  S    
C229  H84   S    
C62   C67   S    
O46   Zn22  S    
C37   C85   T    
C11   C36   S    
C210  H35   S    
O150  C299  S    
C234  H97   S    
C240  H112  S    
C266  H176  S    
C50   C95   S    
C216  H51   S    
O90   Zn18  S    
C281  H213  S    
C5    O93   A    
C80   O137  S    
O16   Zn2   S    
C99   C133  S    
C7    O95   A    
O120  C239  S    
C246  H127  S    
C256  H151  S    
O24   Zn10  S    
C98   C136  S    
C230  H86   S    
C113  C114  S    
O25   Zn17  S    
C233  H94   S    
O21   Zn11  S    
C112  C128  T    
C229  C230  S    
C131  O75   A    
C10   O18   A    
C198  C199  S    
O18   Zn16  S    
O104  Zn32  S    
O149  C297  S    
O17   Zn15  S    
C259  H158  S    
C217  H54   S    
C102  C118  T    
O19   Zn13  S    
C255  H148  S    
C262  H166  S    
C63   C66   S    
O8    Zn30  S    
O40   Zn32  S    
C19   I3    S    
C76   O141  S    
C103  C129  S    
C284  H220  S    
O1    Zn1   S    
C251  H138  S    
C250  H136  S    
C215  H49   S    
O76   Zn4   S    
C259  H159  S    
O126  C251  S    
C149  O49   A    
C257  H153  S    
O2    Zn2   S    
C252  H141  S    
C223  C224  S    
C206  O107  S    
C217  C218  S    
O102  Zn30  S    
C105  C143  S    
C13   O101  A    
C304  H271  S    
C78   C79   S    
C1    O9    A    
O88   Zn16  S    
O132  C263  S    
O147  C293  S    
C235  H98   S    
C43   C91   T    
C63   C207  S    
C16   O24   A    
C67   H14   S    
C152  O54   A    
O84   Zn12  S    
C20   I4    S    
C230  H85   S    
C132  O28   A    
C2    O10   A    
O74   Zn2   S    
C280  H211  S    
C293  H244  S    
C147  C192  S    
C203  O110  S    
O123  C245  S    
C53   C92   S    
O122  C243  S    
O116  C231  S    
C121  C122  S    
C105  C121  T    
C144  O40   A    
C248  H131  S    
O93   Zn21  S    
C14   O102  A    
O105  C209  S    
C28   C60   S    
C213  H44   S    
C23   I7    S    
O64   Zn2   S    
O112  C223  S    
C295  H249  S    
C208  O105  S    
C240  H111  S    
C6    O94   A    
C111  C127  T    
C201  C204  S    
O26   Zn18  S    
C97   C113  T    
O52   Zn28  S    
C293  C294  S    
O136  C271  S    
O119  C237  S    
C205  C208  S    
C272  H192  S    
C282  H215  S    
O48   Zn24  S    
C158  O72   A    
C288  H230  S    
C156  O60   A    
C103  C119  T    
C245  H124  S    
C241  C242  S    
C69   O148  S    
O65   Zn15  S    
C267  H179  S    
C198  H22   S    
C262  H165  S    
C106  C144  S    
C300  H260  S    
C270  H186  S    
C218  H57   S    
C295  C296  S    
C226  H76   S    
O137  C273  S    
C75   H6    S    
C263  H169  S    
C54   C198  S    
C57   C88   S    
C109  C139  S    
O2    Zn8   S    
C232  H91   S    
C140  O36   A    
C225  C226  S    
C138  O82   A    
C303  H268  S    
C269  H183  S    
C59   C86   S    
C141  O37   A    
C236  H102  S    
C236  H101  S    
C27   C59   S    
C274  H195  S    
C159  O69   A    
C21   C53   S    
C61   C68   S    
O127  C253  S    
C212  H40   S    
C221  H64   S    
C36   C84   T    
C137  O33   A    
C224  H72   S    
C145  O41   A    
C227  H78   S    
C247  H129  S    
C49   C96   S    
O9    Zn7   S    
C228  H80   S    
C75   O142  S    
O32   Zn24  S    
C267  C268  S    
C68   O149  S    
C195  O118  S    
C51   C94   S    
C271  C272  S    
C19   C51   S    
O82   Zn10  S    
O1    Zn23  S    
C134  O78   A    
C156  C164  S    
C245  C246  S    
C220  H61   S    
O128  C255  S    
C297  H253  S    
C61   C205  S    
O71   Zn9   S    
O73   Zn1   S    
C47   C95   T    
C273  H194  S    
C12   O20   A    
C11   O99   A    
O139  C277  S    
C242  H115  S    
C13   O21   A    
O107  C213  S    
C221  C222  S    
C30   O134  S    
