data_mof_unit_15081.cif
_audit_creation_date              2012-12-11T15:50:44-0500
_audit_creation_method            fapswitch 2.2
_symmetry_space_group_name_H-M    P1
_symmetry_Int_Tables_number       1
_space_group_crystal_system       triclinic
_cell_length_a                    19.139447
_cell_length_b                    11.010959
_cell_length_c                    18.572479
_cell_angle_alpha                 90.063035
_cell_angle_beta                  90.5231
_cell_angle_gamma                 90.165754
_cell_volume                      3913.85032989

loop_
_atom_site_label
_atom_site_type_symbol
_atom_type_description
_atom_site_fract_x
_atom_site_fract_y
_atom_site_fract_z
_atom_type_partial_charge
C1    C     C_R   0.290401 0.995972 0.860596 0.565550
C2    C     C_R   0.709681 0.996262 0.139403 0.564283
C3    C     C_R   0.790401 0.495973 0.860595 0.565552
C4    C     C_R   0.209681 0.496261 0.139403 0.564282
C5    C     C_3   0.528199 0.728683 0.970574 -0.127502
C6    C     C_3   0.471794 0.728135 0.029107 -0.127799
C7    C     C_3   0.028206 0.228691 0.970572 -0.127505
C8    C     C_3   0.971801 0.228128 0.029104 -0.127798
C9    C     C_R   0.218302 0.509668 0.061619 0.006249
C10   C     C_R   0.781744 0.509152 0.938401 0.006049
C11   C     C_R   0.718302 0.009667 0.061619 0.006251
C12   C     C_R   0.281744 0.009153 0.938401 0.006047
C13   C     C_R   0.273046 0.455914 0.023397 0.017247
C14   C     C_R   0.726446 0.455997 0.976293 0.017654
C15   C     C_R   0.773047 0.955916 0.023397 0.017248
C16   C     C_R   0.226446 0.955997 0.976293 0.017653
C17   C     C_R   0.284549 0.485739 0.951752 0.020595
C18   C     C_R   0.714877 0.485800 0.047955 0.019974
C19   C     C_R   0.784549 0.985739 0.951752 0.020595
C20   C     C_R   0.214877 0.985800 0.047955 0.019974
C21   C     C_R   0.177408 0.598353 0.949671 -0.162090
C22   C     C_R   0.822797 0.597253 0.050666 -0.162415
C23   C     C_R   0.677409 0.098354 0.949672 -0.162092
C24   C     C_R   0.322797 0.097251 0.050666 -0.162413
C25   C     C_R   0.167181 0.572354 0.022005 -0.166292
C26   C     C_R   0.833133 0.571251 0.978306 -0.166592
C27   C     C_R   0.667181 0.072353 0.022005 -0.166291
C28   C     C_R   0.333133 0.071251 0.978306 -0.166595
C29   C     C_3   0.349331 0.451769 0.039759 -0.265048
C30   C     C_3   0.650185 0.453111 0.959588 -0.264609
C31   C     C_3   0.849332 0.951775 0.039759 -0.265050
C32   C     C_3   0.150185 0.953107 0.959588 -0.264607
C33   C     C_3   0.361861 0.484280 0.961253 -0.273819
C34   C     C_3   0.637597 0.485520 0.038106 -0.274028
C35   C     C_3   0.861862 0.984283 0.961254 -0.273820
C36   C     C_3   0.137597 0.985518 0.038107 -0.274028
C37   C     C_R   0.240326 0.567004 0.915743 0.021068
C38   C     C_R   0.759521 0.566527 0.084281 0.020708
C39   C     C_R   0.740326 0.067004 0.915743 0.021067
C40   C     C_R   0.259521 0.066526 0.084281 0.020709
C41   C     C_R   0.494709 0.827242 0.420459 0.012971
C42   C     C_R   0.456685 0.823232 0.564902 0.012064
C43   C     C_R   0.994709 0.327242 0.420459 0.012971
C44   C     C_R   0.956685 0.323232 0.564902 0.012064
C45   C     C_R   0.469622 0.821650 0.855481 0.551628
C46   C     C_R   0.530385 0.821412 0.144525 0.542857
C47   C     C_R   0.969622 0.321651 0.855481 0.551628
C48   C     C_R   0.030385 0.321412 0.144525 0.542857
C49   C     C_R   0.463226 0.723076 0.449734 0.031364
C50   C     C_R   0.450251 0.719452 0.522705 0.027418
C51   C     C_R   0.963226 0.223076 0.449734 0.031364
C52   C     C_R   0.950251 0.219452 0.522705 0.027418
C53   C     C_R   0.478420 0.930823 0.533312 -0.182457
C54   C     C_R   0.503304 0.929950 0.463449 -0.178153
C55   C     C_R   0.978420 0.430823 0.533312 -0.182457
C56   C     C_R   0.003304 0.429950 0.463449 -0.178152
C57   C     C_3   0.491595 0.596581 0.451334 -0.268583
C58   C     C_3   0.486140 0.599780 0.531991 -0.263261
C59   C     C_3   0.991595 0.096581 0.451334 -0.268583
C60   C     C_3   0.986140 0.099779 0.531991 -0.263261
C61   C     C_R   0.255608 0.617541 0.413341 0.017110
C62   C     C_R   0.744414 0.621282 0.587405 0.022013
C63   C     C_R   0.755608 0.117541 0.413341 0.017110
C64   C     C_R   0.244414 0.121282 0.587405 0.022013
C65   C     C_R   0.217496 0.712687 0.444268 0.010324
C66   C     C_R   0.786457 0.709975 0.554771 0.015761
C67   C     C_R   0.717496 0.212688 0.444268 0.010324
C68   C     C_R   0.286457 0.209975 0.554771 0.015761
C69   C     C_R   0.223890 0.735813 0.517259 0.033896
C70   C     C_R   0.778632 0.735565 0.482202 0.038729
C71   C     C_R   0.723890 0.235813 0.517259 0.033896
C72   C     C_R   0.278632 0.235565 0.482202 0.038730
C73   C     C_R   0.313961 0.585275 0.526913 -0.164656
C74   C     C_R   0.679430 0.601693 0.476531 -0.176213
C75   C     C_R   0.813961 0.085275 0.526913 -0.164656
C76   C     C_R   0.179430 0.101693 0.476531 -0.176213
C77   C     C_R   0.309488 0.565748 0.453210 -0.161036
C78   C     C_R   0.684992 0.581710 0.550504 -0.170476
C79   C     C_R   0.809488 0.065748 0.453210 -0.161036
C80   C     C_R   0.184992 0.081710 0.550504 -0.170476
C81   C     C_3   0.140599 0.737359 0.443783 -0.247705
C82   C     C_3   0.864284 0.720958 0.552215 -0.249430
C83   C     C_3   0.640599 0.237359 0.443783 -0.247705
C84   C     C_3   0.364284 0.220958 0.552215 -0.249430
C85   C     C_3   0.146193 0.753277 0.524548 -0.101754
C86   C     C_3   0.856804 0.741464 0.472141 -0.106513
C87   C     C_3   0.646193 0.253277 0.524548 -0.101754
C88   C     C_3   0.356804 0.241464 0.472141 -0.106512
C89   C     C_R   0.259636 0.634055 0.850707 0.546901
C90   C     C_R   0.740313 0.633879 0.149268 0.545393
C91   C     C_R   0.759637 0.134055 0.850707 0.546900
C92   C     C_R   0.240313 0.133879 0.149268 0.545393
C93   C     C_R   0.271421 0.671323 0.559822 0.002238
C94   C     C_R   0.726451 0.678646 0.441173 0.006875
C95   C     C_R   0.771421 0.171323 0.559822 0.002238
C96   C     C_R   0.226451 0.178646 0.441173 0.006876
C97   C     C_R   0.270467 0.051197 0.648466 0.545922
C98   C     C_R   0.729539 0.051018 0.351326 0.551388
C99   C     C_R   0.770467 0.551197 0.648466 0.545921
C100  C     C_R   0.229539 0.551018 0.351326 0.551388
C101  C     C_R   0.439109 0.818595 0.639814 0.547956
C102  C     C_R   0.530015 0.822335 0.352568 0.543130
C103  C     C_R   0.939109 0.318595 0.639814 0.547956
C104  C     C_R   0.030015 0.322335 0.352568 0.543130
C105  C     C_R   0.274343 0.690045 0.636833 0.548183
C106  C     C_R   0.725054 0.692136 0.363088 0.566848
C107  C     C_R   0.774343 0.190045 0.636833 0.548183
C108  C     C_R   0.225054 0.192135 0.363087 0.566849
C109  C     C_3   0.471708 0.927723 0.029782 -0.125298
C110  C     C_3   0.528206 0.928272 0.970626 -0.124834
C111  C     C_3   0.971702 0.427714 0.029784 -0.125301
C112  C     C_3   0.028199 0.428279 0.970628 -0.124831
C113  C     C_3   0.430798 0.827499 0.988781 -0.114099
C114  C     C_3   0.569146 0.828221 0.011258 -0.112231
C115  C     C_3   0.930799 0.327485 0.988781 -0.114098
C116  C     C_3   0.069146 0.328234 0.011258 -0.112232
C117  C     C_3   0.488091 0.828255 0.931181 0.056714
C118  C     C_3   0.511858 0.827870 0.068854 0.058915
C119  C     C_3   0.988091 0.328257 0.931181 0.056716
C120  C     C_3   0.011859 0.327868 0.068854 0.058912
Cr1   Cr    Cr6+3 0.229640 0.835880 0.747370 0.987655
Cr2   Cr    Cr6+3 0.770360 0.835880 0.252630 0.988115
Cr3   Cr    Cr6+3 0.729640 0.335880 0.747370 0.987655
Cr4   Cr    Cr6+3 0.270360 0.335880 0.252630 0.988115
Cr5   Cr    Cr6+3 0.387390 0.989720 0.750850 0.989327
Cr6   Cr    Cr6+3 0.612610 0.989720 0.249150 0.989075
Cr7   Cr    Cr6+3 0.887390 0.489720 0.750850 0.989327
Cr8   Cr    Cr6+3 0.112610 0.489720 0.249150 0.989076
Cr9   Cr    Cr6+3 0.385770 0.677220 0.749340 0.997296
Cr10  Cr    Cr6+3 0.614230 0.677220 0.250660 0.995904
Cr11  Cr    Cr6+3 0.885770 0.177220 0.749340 0.997296
Cr12  Cr    Cr6+3 0.114230 0.177220 0.250660 0.995904
H1    H     H_    0.373827 0.823335 0.977664 0.111310
H2    H     H_    0.626108 0.824426 0.022354 0.111499
H3    H     H_    0.873828 0.323314 0.977663 0.111307
H4    H     H_    0.126108 0.324446 0.022354 0.111501
H5    H     H_    0.481666 0.012180 0.564910 0.129814
H6    H     H_    0.530412 0.008379 0.443179 0.125868
H7    H     H_    0.981667 0.512179 0.564910 0.129814
H8    H     H_    0.030412 0.508379 0.443179 0.125869
H9    H     H_    0.456281 0.529856 0.425019 0.118762
H10   H     H_    0.537589 0.610705 0.559279 0.151005
H11   H     H_    0.956281 0.029857 0.425019 0.118762
H12   H     H_    0.037589 0.110704 0.559279 0.151005
H13   H     H_    0.346106 0.526152 0.558982 0.133826
H14   H     H_    0.645781 0.543040 0.445887 0.120777
H15   H     H_    0.846106 0.026151 0.558982 0.133826
H16   H     H_    0.145780 0.043040 0.445887 0.120777
H17   H     H_    0.341569 0.498751 0.428638 0.123221
H18   H     H_    0.648789 0.522043 0.576821 0.116971
H19   H     H_    0.841569 0.998751 0.428638 0.123221
H20   H     H_    0.148789 0.022043 0.576821 0.116971
H21   H     H_    0.128078 0.823163 0.415011 0.112231
H22   H     H_    0.883405 0.802429 0.581920 0.109476
H23   H     H_    0.628078 0.323163 0.415011 0.112231
H24   H     H_    0.383405 0.302429 0.581920 0.109476
H25   H     H_    0.131355 0.845612 0.540199 0.114707
H26   H     H_    0.877568 0.831211 0.458204 0.104123
H27   H     H_    0.631355 0.345612 0.540199 0.114707
H28   H     H_    0.377568 0.331211 0.458203 0.104123
H29   H     H_    0.452492 0.008812 0.058459 0.110435
H30   H     H_    0.547378 0.009847 0.942308 0.111041
H31   H     H_    0.952481 0.508795 0.058464 0.110441
H32   H     H_    0.047367 0.509860 0.942314 0.111037
H33   H     H_    0.548447 0.647835 0.942689 0.115549
H34   H     H_    0.451658 0.646844 0.056714 0.114865
H35   H     H_    0.048460 0.147853 0.942685 0.115548
H36   H     H_    0.951672 0.146829 0.056709 0.114867
H37   H     H_    0.138439 0.653290 0.922716 0.129080
H38   H     H_    0.861997 0.651824 0.077893 0.128284
H39   H     H_    0.638440 0.153293 0.922717 0.129080
H40   H     H_    0.361998 0.151821 0.077894 0.128283
H41   H     H_    0.120543 0.606855 0.047456 0.140599
H42   H     H_    0.880047 0.605371 0.953032 0.139995
H43   H     H_    0.620542 0.106853 0.047456 0.140599
H44   H     H_    0.380047 0.105372 0.953032 0.139995
H45   H     H_    0.867282 0.859099 0.053770 0.138415
H46   H     H_    0.131476 0.860790 0.945227 0.137785
H47   H     H_    0.367280 0.359091 0.053768 0.138415
H48   H     H_    0.631475 0.360794 0.945225 0.137785
H49   H     H_    0.364778 0.522995 0.079016 0.144229
H50   H     H_    0.635505 0.524784 0.920494 0.145216
H51   H     H_    0.864779 0.023005 0.079015 0.144230
H52   H     H_    0.135504 0.024779 0.920493 0.145214
H53   H     H_    0.385509 0.575175 0.953194 0.156169
H54   H     H_    0.614672 0.576743 0.046289 0.156309
H55   H     H_    0.885509 0.075178 0.953192 0.156170
H56   H     H_    0.114672 0.076740 0.046289 0.156308
H57   H     H_    0.386479 0.409593 0.930275 0.141372
H58   H     H_    0.612229 0.411103 0.068781 0.140399
H59   H     H_    0.886480 0.909595 0.930276 0.141372
H60   H     H_    0.112230 0.911101 0.068781 0.140399
O1    O     O_R   0.214300 0.709080 0.827500 -0.529969
O2    O     O_R   0.785700 0.709080 0.172500 -0.531938
O3    O     O_R   0.714300 0.209080 0.827500 -0.529969
O4    O     O_R   0.285700 0.209080 0.172500 -0.531937
O5    O     O_R   0.445900 0.919370 0.676500 -0.510719
O6    O     O_R   0.554100 0.919370 0.323500 -0.512121
O7    O     O_R   0.945900 0.419370 0.676500 -0.510719
O8    O     O_R   0.054100 0.419370 0.323500 -0.512121
O9    O     O_R   0.456660 0.717710 0.669820 -0.516228
O10   O     O_R   0.543340 0.717710 0.330180 -0.531380
O11   O     O_R   0.956660 0.217710 0.669820 -0.516229
O12   O     O_R   0.043340 0.217710 0.330180 -0.531379
O13   O     O_R   0.320590 0.625770 0.672930 -0.519071
O14   O     O_R   0.679410 0.625770 0.327070 -0.513047
O15   O     O_R   0.820590 0.125770 0.672930 -0.519071
O16   O     O_R   0.179410 0.125770 0.327070 -0.513047
O17   O     O_3   0.334270 0.834280 0.749190 -0.308586
O18   O     O_3   0.665730 0.834280 0.250810 -0.289479
O19   O     O_3   0.834270 0.334280 0.749190 -0.308586
O20   O     O_3   0.165730 0.334280 0.250810 -0.289479
O21   O     O_R   0.236190 0.958390 0.823150 -0.497062
O22   O     O_R   0.763810 0.958390 0.176850 -0.499432
O23   O     O_R   0.736190 0.458390 0.823150 -0.497063
O24   O     O_R   0.263810 0.458390 0.176850 -0.499432
O25   O     O_R   0.332090 0.075280 0.831290 -0.516295
O26   O     O_R   0.667910 0.075280 0.168710 -0.517623
O27   O     O_R   0.832090 0.575280 0.831290 -0.516295
O28   O     O_R   0.167910 0.575280 0.168710 -0.517623
O29   O     O_R   0.446280 0.918040 0.826620 -0.516012
O30   O     O_R   0.553720 0.918040 0.173380 -0.520295
O31   O     O_R   0.946280 0.418040 0.826620 -0.516013
O32   O     O_R   0.053720 0.418040 0.173380 -0.520295
O33   O     O_R   0.457080 0.716270 0.831760 -0.521127
O34   O     O_R   0.542920 0.716270 0.168240 -0.524718
O35   O     O_R   0.957080 0.216270 0.831760 -0.521126
O36   O     O_R   0.042920 0.216270 0.168240 -0.524719
O37   O     O_R   0.320980 0.624440 0.823040 -0.497168
O38   O     O_R   0.679020 0.624440 0.176960 -0.497310
O39   O     O_R   0.820980 0.124440 0.823040 -0.497168
O40   O     O_R   0.179020 0.124440 0.176960 -0.497310
O41   O     O_R   0.213880 0.710510 0.665560 -0.520543
O42   O     O_R   0.786120 0.710510 0.334440 -0.527281
O43   O     O_R   0.713880 0.210510 0.665560 -0.520543
O44   O     O_R   0.286120 0.210510 0.334440 -0.527282
O45   O     O_R   0.235800 0.959720 0.673040 -0.518787
O46   O     O_R   0.764200 0.959720 0.326960 -0.520750
O47   O     O_R   0.735800 0.459720 0.673040 -0.518787
O48   O     O_R   0.264200 0.459720 0.326960 -0.520750
O49   O     O_R   0.331670 0.076720 0.669350 -0.531759
O50   O     O_R   0.668330 0.076720 0.330650 -0.526495
O51   O     O_R   0.831670 0.576720 0.669350 -0.531759
O52   O     O_R   0.168330 0.576720 0.330650 -0.526495
H61   H     H_    0.044805 0.090494 0.432138 0.159762
H62   H     H_    0.955031 0.024281 0.553949 0.119750
H63   H     H_    0.544806 0.590495 0.432138 0.159762
H64   H     H_    0.455031 0.524281 0.553949 0.119750
H65   H     H_    0.107120 0.660091 0.427367 0.159293
H66   H     H_    0.892331 0.636669 0.565891 0.161140
H67   H     H_    0.607120 0.160091 0.427367 0.159293
H68   H     H_    0.392331 0.136670 0.565891 0.161140
C121  C     C_3   0.103801 0.657089 0.566638 -0.247136
C122  C     C_3   0.132674 0.526360 0.565998 -0.384818
H69   H     H_    0.140941 0.493474 0.510256 0.151337
H70   H     H_    0.181743 0.517145 0.596889 0.179966
H71   H     H_    0.096601 0.464619 0.594310 0.150224
H72   H     H_    0.096827 0.686907 0.623134 0.178005
H73   H     H_    0.050617 0.658665 0.543062 0.103339
C123  C     C_3   0.892354 0.642179 0.426566 -0.234958
C124  C     C_3   0.856759 0.516097 0.425318 -0.369272
H74   H     H_    0.850785 0.478907 0.480371 0.148983
H75   H     H_    0.805416 0.514332 0.398572 0.174215
H76   H     H_    0.887259 0.453950 0.391418 0.138779
H77   H     H_    0.900357 0.674161 0.370700 0.175257
H78   H     H_    0.945895 0.635878 0.447950 0.111548
C125  C     C_3   0.603801 0.157089 0.566638 -0.247137
C126  C     C_3   0.632674 0.026360 0.565998 -0.384819
H79   H     H_    0.640942 0.993474 0.510256 0.151336
H80   H     H_    0.681743 0.017145 0.596889 0.179965
H81   H     H_    0.596601 0.964619 0.594310 0.150225
H82   H     H_    0.596827 0.186907 0.623134 0.178006
H83   H     H_    0.550617 0.158664 0.543062 0.103340
C127  C     C_3   0.392354 0.142178 0.426566 -0.234959
C128  C     C_3   0.356759 0.016097 0.425319 -0.369273
H84   H     H_    0.350784 0.978907 0.480372 0.148983
H85   H     H_    0.305415 0.014332 0.398572 0.174214
H86   H     H_    0.387259 0.953948 0.391419 0.138779
H87   H     H_    0.400357 0.174159 0.370700 0.175257
H88   H     H_    0.445894 0.135877 0.447950 0.111548

loop_
_geom_bond_atom_site_label_1
_geom_bond_atom_site_label_2
_ccdc_geom_bond_type
C73   C93   A    
C57   H63   S    
Cr8   O32   S    
C108  O44   A    
C75   C95   A    
C48   C120  S    
C53   H5    S    
C104  O12   A    
C16   C20   A    
C63   C98   S    
C69   C93   A    
C5    C6    S    
C20   C40   A    
C71   C95   A    
C92   O40   A    
C3    O23   A    
C22   C38   A    
C29   C33   S    
C55   H7    S    
C33   H57   S    
C127  C128  S    
C34   H54   S    
C9    C13   A    
C122  H70   S    
C8    H36   S    
C11   C15   A    
C121  H72   S    
C12   C16   A    
C107  O15   A    
Cr10  O10   S    
C96   C108  S    
C59   C60   S    
C113  H1    S    
C30   H50   S    
C32   H46   S    
Cr2   O2    S    
C41   C49   A    
C109  C118  S    
C112  H32   S    
C9    C25   A    
C51   C52   A    
C7    C119  S    
C30   C34   S    
C76   H16   S    
C36   H56   S    
Cr1   O21   S    
C66   C82   S    
C91   O3    A    
C125  H82   S    
C11   C27   A    
C68   C72   A    
C89   O1    A    
C45   O33   A    
C22   H38   S    
C98   O46   A    
C64   C97   S    
Cr2   O42   S    
C126  H80   S    
C2    O22   A    
Cr8   O52   S    
C123  H78   S    
C47   O31   A    
C125  H83   S    
C84   C88   S    
C92   O4    A    
C106  O14   A    
C37   C89   S    
C97   O45   A    
C38   C90   S    
C46   O30   A    
C18   C38   A    
C19   C35   S    
C76   C96   A    
C84   H24   S    
C44   C55   A    
C66   C70   A    
C56   H8    S    
C87   H27   S    
C88   H28   S    
C98   O50   A    
C62   C99   S    
C72   C96   A    
C61   C65   A    
C23   H39   S    
Cr10  O34   S    
C29   H47   S    
C91   O39   A    
C2    O26   A    
C73   C77   A    
C101  O9    A    
C75   C79   A    
C60   H12   S    
Cr6   O26   S    
C67   C83   S    
C4    O24   A    
C111  C112  S    
C108  O16   A    
Cr11  O15   S    
C110  H30   S    
C7    C8    S    
C53   C54   A    
C64   C68   A    
C42   C53   A    
C124  H74   S    
C48   O36   A    
C101  O5    A    
C83   H23   S    
C81   H21   S    
C41   C102  S    
C43   C104  S    
C52   C60   S    
C61   C77   A    
Cr6   O50   S    
Cr2   O18   S    
Cr8   O28   S    
C100  O52   A    
C107  O43   A    
Cr9   O9    S    
Cr6   O6    S    
C59   H11   S    
C104  O8    A    
C1    C12   S    
C2    C11   S    
C44   C103  S    
Cr3   O47   S    
C62   C66   A    
C127  H87   S    
C34   H58   S    
C128  H86   S    
Cr7   O51   S    
C10   C14   A    
Cr5   O17   S    
C103  O7    A    
C48   O32   A    
C122  H71   S    
C116  C120  S    
C73   H13   S    
Cr4   O44   S    
C7    C116  S    
Cr10  O14   S    
C25   H41   S    
C86   H26   S    
Cr4   O4    S    
C114  H2    S    
C30   H48   S    
C86   C123  S    
C42   C50   A    
C113  C117  S    
C35   H55   S    
C115  C119  S    
Cr11  O19   S    
C61   C100  S    
C42   C101  S    
C112  C116  S    
C69   C85   S    
Cr11  O39   S    
C21   C25   A    
C35   H59   S    
C106  O42   A    
C36   H60   S    
C62   C78   A    
C76   C80   A    
C123  C124  S    
Cr7   O7    S    
C124  H76   S    
C1    O25   A    
C125  C126  S    
C15   C31   S    
Cr5   O29   S    
C16   C32   S    
C13   C17   A    
C45   O29   A    
C58   H64   S    
C99   O47   A    
C57   C58   S    
Cr2   O46   S    
C115  H3    S    
C21   H37   S    
C100  O48   A    
C24   H40   S    
C47   O35   A    
C49   C50   A    
Cr9   O33   S    
C90   O38   A    
C4    C9    S    
C81   C85   S    
C87   C125  S    
C83   C87   S    
C55   C56   A    
C6    H34   S    
Cr3   O23   S    
C74   C94   A    
C128  H84   S    
Cr7   O27   S    
C15   C19   A    
C78   H18   S    
C17   C33   S    
C12   C28   A    
C13   C29   S    
C70   C94   A    
Cr12  O36   S    
Cr4   O48   S    
C26   H42   S    
C45   C117  S    
C46   C118  S    
C39   C91   S    
C7    H35   S    
C4    O28   A    
Cr11  O11   S    
C83   H67   S    
C64   C80   A    
Cr3   O3    S    
C85   H25   S    
C110  C117  S    
Cr1   O1    S    
C82   H66   S    
Cr12  O12   S    
C68   C84   S    
C24   C28   A    
C77   H17   S    
C28   H44   S    
Cr4   O20   S    
C75   H15   S    
C82   C86   S    
Cr2   O22   S    
C50   C58   S    
Cr8   O8    S    
C122  H69   S    
Cr9   O13   S    
C121  H73   S    
C65   C81   S    
C90   O2    A    
C59   H61   S    
Cr10  O38   S    
C95   C107  S    
C71   C87   S    
Cr1   O41   S    
C1    O21   A    
C31   C35   S    
C27   H43   S    
C32   C36   S    
C74   H14   S    
C112  C119  S    
C105  O13   A    
C116  H4    S    
C57   H9    S    
C102  O10   A    
C109  C110  S    
Cr8   O20   S    
C43   C51   A    
C121  C122  S    
C65   C69   A    
C67   C71   A    
C99   O51   A    
C97   O49   A    
C20   C36   S    
Cr11  O35   S    
C21   C37   A    
C126  H79   S    
C3    O27   A    
C22   C26   A    
C33   H53   S    
C123  H77   S    
Cr5   O25   S    
C60   H62   S    
C5    C114  S    
C84   H68   S    
C14   C18   A    
Cr12  O20   S    
C49   C57   S    
C63   C79   A    
C29   H49   S    
C31   H45   S    
C127  H88   S    
C128  H85   S    
C102  O6    A    
Cr1   O45   S    
Cr9   O37   S    
C58   H10   S    
C88   C127  S    
C8    C115  S    
C93   C105  S    
Cr3   O19   S    
Cr5   O49   S    
C23   C27   A    
C74   C78   A    
Cr7   O31   S    
C10   C26   A    
C47   C119  S    
Cr5   O5    S    
C14   C30   S    
Cr12  O40   S    
C72   C88   S    
C63   C67   A    
Cr1   O17   S    
C111  H31   S    
Cr6   O18   S    
C124  H75   S    
C5    C117  S    
C111  C120  S    
C6    C113  S    
C126  H81   S    
C46   O34   A    
C17   C37   A    
C40   C92   S    
C18   C34   S    
C114  C118  S    
C19   C39   A    
Cr7   O19   S    
Cr12  O16   S    
C5    H33   S    
Cr3   O43   S    
Cr10  O18   S    
C51   C59   S    
C70   C86   S    
C8    C120  S    
C79   H19   S    
Cr4   O24   S    
C80   H20   S    
C110  C114  S    
C94   C106  S    
C31   H51   S    
C105  O41   A    
C32   H52   S    
C81   H65   S    
Cr6   O30   S    
C109  C113  S    
C85   C121  S    
C3    C10   S    
C109  H29   S    
C44   C52   A    
C54   H6    S    
C23   C39   A    
C24   C40   A    
C103  O11   A    
C41   C54   A    
C82   H22   S    
C43   C56   A    
C111  C115  S    
C89   O37   A    
Cr9   O17   S    
C6    C118  S    
