data_mof_unit_24868.cif
_audit_creation_date              2012-12-11T17:07:35-0500
_audit_creation_method            fapswitch 2.2
_symmetry_space_group_name_H-M    P1
_symmetry_Int_Tables_number       1
_space_group_crystal_system       triclinic
_cell_length_a                    6.969114
_cell_length_b                    14.428083
_cell_length_c                    16.168369
_cell_angle_alpha                 89.977604
_cell_angle_beta                  90.254891
_cell_angle_gamma                 89.87332
_cell_volume                      1625.72475588

loop_
_atom_site_label
_atom_site_type_symbol
_atom_type_description
_atom_site_fract_x
_atom_site_fract_y
_atom_site_fract_z
_atom_type_partial_charge
O1    O     O_R   0.505720 0.583900 0.413310 -0.543018
O2    O     O_R   0.175940 0.594920 0.586080 -0.551735
O3    O     O_R   0.005640 0.416100 0.586690 -0.539970
C1    C     C_R   0.344979 0.616883 0.614821 0.685502
O4    O     O_R   0.176000 0.594930 0.413930 -0.527258
O5    O     O_R   0.005700 0.416110 0.413310 -0.527433
C2    C     C_R   0.344409 0.616774 0.385051 0.724227
O6    O     O_R   0.505660 0.583890 0.586690 -0.537570
O7    O     O_3   0.339200 0.441330 0.500000 -0.367869
V1    V     V_3+5 0.064350 0.510880 0.500000 1.431791
O8    O     O_R   0.675980 0.405080 0.413920 -0.542793
C3    C     C_R   0.844838 0.384938 0.383769 0.738206
O9    O     O_R   0.675920 0.405070 0.586070 -0.535612
C4    C     C_R   0.845913 0.381798 0.613285 0.692284
V2    V     V_3+5 0.564340 0.489120 0.500000 1.430754
O10   O     O_3   0.839360 0.558670 0.500000 -0.376747
H1    H     H_    0.785960 0.061742 0.511976 0.108388
C5    C     C_R   0.936615 0.441591 0.778652 -0.143942
C6    C     C_R   0.948898 0.476125 0.858488 -0.054117
C7    C     C_R   0.892451 0.421512 0.924566 -0.129575
C8    C     C_R   0.839280 0.328460 0.912404 -0.123821
C9    C     C_R   0.867393 0.287055 0.833031 0.044957
C10   C     C_R   0.889874 0.347743 0.764244 0.071415
C11   C     C_R   0.869322 0.189121 0.819237 -0.157539
C12   C     C_R   0.853019 0.155252 0.736886 0.072090
C13   C     C_R   0.840575 0.218316 0.669121 0.067682
C14   C     C_R   0.859838 0.314702 0.682910 -0.170640
C15   C     C_R   0.844052 0.058931 0.720482 -0.135396
C16   C     C_R   0.819878 0.025978 0.640089 -0.125148
C17   C     C_R   0.804863 0.087713 0.574290 -0.120913
C18   C     C_R   0.815588 0.182880 0.588262 -0.135344
H2    H     H_    0.965072 0.489208 0.728600 0.100740
H3    H     H_    0.986993 0.547958 0.868511 0.131930
H4    H     H_    0.875320 0.455337 0.983775 0.124773
H5    H     H_    0.853879 0.008003 0.769461 0.098548
H6    H     H_    0.812166 0.952084 0.628876 0.110585
H7    H     H_    0.805750 0.228213 0.535036 0.088237
C19   C     C_R   0.754295 0.172811 0.251211 0.095728
C20   C     C_R   0.887498 0.179898 0.187218 -0.066702
C21   C     C_R   0.024006 0.251503 0.193345 -0.238185
H8    H     H_    0.131774 0.257525 0.145524 0.170002
C22   C     C_R   0.005616 0.323182 0.252840 -0.023690
C23   C     C_R   0.859894 0.317128 0.314834 -0.147292
C24   C     C_R   0.744612 0.237582 0.314424 0.065980
C25   C     C_3   0.532418 0.226114 0.322008 -0.386753
C26   C     C_3   0.543431 0.156076 0.251583 -0.379694
H9    H     H_    0.452039 0.290061 0.305961 0.215669
H10   H     H_    0.491979 0.194277 0.382062 0.156751
H11   H     H_    0.471654 0.180327 0.193920 0.215240
H12   H     H_    0.507415 0.084318 0.271028 0.143044
C27   C     C_R   0.519028 0.740839 0.695152 0.084557
C28   C     C_R   0.354520 0.687034 0.681722 -0.070630
C29   C     C_R   0.200358 0.699345 0.736416 -0.174090
H13   H     H_    0.076315 0.655236 0.731514 0.120730
C30   C     C_R   0.211587 0.763209 0.802037 -0.164232
H14   H     H_    0.096567 0.767598 0.845510 0.162417
C31   C     C_R   0.377365 0.815640 0.816168 -0.094470
C32   C     C_R   0.531555 0.801021 0.762980 0.040863
C33   C     C_3   0.726464 0.766668 0.785736 -0.187443
C34   C     C_3   0.718387 0.706416 0.708519 -0.450532
H15   H     H_    0.832252 0.823923 0.782774 0.107214
H16   H     H_    0.725404 0.630423 0.719851 0.191486
H17   H     H_    0.815035 0.730996 0.658617 0.156755
C35   C     C_R   0.506047 0.681474 0.258654 0.097114
C36   C     C_R   0.351900 0.681843 0.314083 -0.095380
C37   C     C_R   0.200679 0.744201 0.297790 -0.156805
H18   H     H_    0.078105 0.746817 0.338391 0.127661
C38   C     C_R   0.212547 0.808577 0.232436 -0.181297
H19   H     H_    0.097905 0.858467 0.224500 0.122983
C39   C     C_R   0.376258 0.812739 0.181523 -0.107709
C40   C     C_R   0.518157 0.745330 0.194148 0.118199
C41   C     C_3   0.728839 0.756829 0.205992 -0.413641
C42   C     C_3   0.715773 0.686854 0.275978 -0.395136
H20   H     H_    0.766208 0.827756 0.227354 0.160062
H21   H     H_    0.812077 0.731086 0.152173 0.185535
H22   H     H_    0.746540 0.716898 0.337916 0.164141
H23   H     H_    0.790350 0.620510 0.262374 0.215341
O11   O     O_R   0.229140 0.916090 0.913340 -0.539475
O12   O     O_R   0.558860 0.905090 0.086080 -0.542697
O13   O     O_R   0.729100 0.083920 0.086690 -0.528038
C43   C     C_R   0.390130 0.883095 0.114884 0.681621
O14   O     O_R   0.558860 0.905090 0.913930 -0.532119
O15   O     O_R   0.729100 0.083920 0.913310 -0.516320
C44   C     C_R   0.389628 0.882367 0.885791 0.699138
O16   O     O_R   0.229140 0.916080 0.086720 -0.544387
O17   O     O_3   0.395570 0.058660 0.000020 -0.343513
V3    V     V_3+5 0.670450 0.989140 0.000000 1.501024
O18   O     O_R   0.058810 0.094980 0.913910 -0.535291
C45   C     C_R   0.887724 0.121435 0.889003 0.700579
O19   O     O_R   0.058810 0.094980 0.086060 -0.553812
C46   C     C_R   0.891057 0.114736 0.116374 0.696263
V4    V     V_3+5 0.170450 0.010950 0.999970 1.480792
O20   O     O_3   0.895460 0.941370 0.999990 -0.360290
C47   C     C_2   0.124554 0.407685 0.240613 0.723257
O21   O     O_2   0.063676 0.483840 0.260874 -0.573436
O22   O     O_R   0.302077 0.400973 0.200972 -0.665905
H24   H     H_    0.368435 0.463144 0.195515 0.299140
C48   C     C_2   0.725479 0.712225 0.866327 0.762173
O23   O     O_2   0.632557 0.640630 0.872176 -0.556563
O24   O     O_R   0.823359 0.746568 0.935361 -0.664821
H25   H     H_    0.809629 0.705219 0.985693 0.279082
C49   C     C_2   0.706117 0.288016 0.974349 0.781153
O25   O     O_2   0.566252 0.244597 0.950641 -0.513547
O26   O     O_R   0.723373 0.307062 0.058721 -0.645489
H26   H     H_    0.843993 0.342195 0.073471 0.252014

loop_
_geom_bond_atom_site_label_1
_geom_bond_atom_site_label_2
_ccdc_geom_bond_type
C37   C38   A    
C30   H14   S    
C29   C30   A    
O15   V3    S    
C6    C7    A    
C1    O6    A    
C11   C45   S    
O12   V3    S    
C31   C32   A    
C25   C26   S    
C24   C25   S    
C12   C15   A    
C26   H11   S    
C13   C14   A    
C1    C28   S    
C34   H17   S    
C15   C16   A    
C3    C23   S    
O5    C3    A    
C19   C20   A    
O14   V3    S    
C34   H16   S    
C5    C6    A    
C35   C40   A    
C39   C43   S    
V4    O20   S    
O8    V2    S    
O18   V4    S    
C15   H5    S    
C38   H19   S    
C35   C42   S    
C39   C40   A    
O1    V2    S    
C10   C14   A    
C4    C14   S    
O7    V1    S    
C47   O22   S    
C7    H4    S    
C21   C22   A    
C37   H18   S    
C13   C18   A    
O1    C2    A    
O9    C4    A    
H1    C17   S    
C47   O21   D    
C41   H21   S    
C20   C46   S    
O26   H26   S    
O16   V4    S    
C25   H9    S    
O15   C45   A    
C33   H15   S    
C5    C10   A    
C11   C12   A    
C41   H20   S    
C6    H3    S    
C20   C21   A    
O12   C43   A    
O17   V3    S    
O11   V4    S    
C12   C13   A    
C29   H13   S    
C27   C28   A    
O2    C1    A    
C23   C24   A    
C19   C24   A    
C16   C17   A    
O11   C44   A    
C2    C36   S    
O19   V4    S    
C16   H6    S    
O22   H24   S    
C31   C44   S    
C27   C32   A    
O18   C45   A    
C49   O26   S    
O3    C4    A    
C8    C49   S    
C21   H8    S    
C36   C37   A    
O6    V2    S    
C48   O24   S    
C30   C31   A    
C42   H22   S    
C9    C11   A    
C5    H2    S    
C22   C23   A    
O2    V1    S    
C28   C29   A    
O4    C2    A    
C25   H10   S    
C22   C47   S    
C41   C42   S    
O5    V1    S    
O8    C3    A    
O13   V3    S    
C26   H12   S    
O14   C44   A    
C35   C36   A    
O13   C46   A    
O9    V2    S    
C32   C33   S    
O4    V1    S    
O3    V1    S    
V1    O10   S    
O19   C46   A    
C17   C18   A    
V3    O20   S    
O24   H25   S    
O7    V2    S    
C49   O25   D    
C19   C26   S    
C18   H7    S    
C33   C34   S    
C40   C41   S    
C7    C8    A    
C38   C39   A    
C48   O23   D    
C33   C48   S    
C42   H23   S    
C9    C10   A    
O17   V4    S    
C27   C34   S    
C8    C9    A    
C43   O16   A    
V2    O10   S    
