data_mof_unit_45894.cif
_audit_creation_date              2012-12-10T18:46:19-0500
_audit_creation_method            fapswitch 2.2
_symmetry_space_group_name_H-M    P1
_symmetry_Int_Tables_number       1
_space_group_crystal_system       triclinic
_cell_length_a                    9.850972
_cell_length_b                    10.65657
_cell_length_c                    13.137927
_cell_angle_alpha                 90.152775
_cell_angle_beta                  69.989768
_cell_angle_gamma                 90.094453
_cell_volume                      1295.92322758

loop_
_atom_site_label
_atom_site_type_symbol
_atom_type_description
_atom_site_fract_x
_atom_site_fract_y
_atom_site_fract_z
_atom_type_partial_charge
C1    C     C_R   0.502017 0.739828 0.495824 0.847775
C2    C     C_R   0.367627 0.482766 0.821936 -0.122308
C3    C     C_R   0.568774 0.935138 0.556034 -0.165699
C4    C     C_R   0.419943 0.493136 0.704119 0.861025
C5    C     C_R   0.567761 0.063547 0.558767 -0.186546
C6    C     C_R   0.500952 0.128028 0.497098 -0.058758
C7    C     C_R   0.438587 0.066919 0.430125 -0.155750
C8    C     C_R   0.442668 0.937327 0.423702 -0.016566
C9    C     C_R   0.505109 0.872485 0.490279 -0.109574
C10   C     C_R   0.961004 0.428418 0.427483 -0.076840
C11   C     C_R   0.104798 0.428392 0.427535 -0.061890
C12   C     C_R   0.430735 0.473586 0.984582 0.085816
C13   C     C_R   0.038959 0.571522 0.572570 -0.071681
C14   C     C_R   0.895163 0.571531 0.572530 -0.051281
C15   C     C_R   0.499837 0.260154 0.500017 0.865977
C16   C     C_R   0.580099 0.499657 0.295710 0.854994
C17   C     C_R   0.776456 0.372995 0.018696 -0.198067
C18   C     C_R   0.628414 0.482375 0.179246 -0.057313
C19   C     C_R   0.231520 0.531805 0.881714 -0.193865
C20   C     C_R   0.192095 0.546510 0.993094 -0.140973
C21   C     C_R   0.291668 0.521223 0.044173 -0.182744
C22   C     C_2   0.389060 0.872939 0.344076 0.397844
C23   C     C_R   0.460491 0.439394 0.875591 0.085752
C24   C     C_R   0.541320 0.458538 0.029383 0.083203
C25   C     C_R   0.669076 0.391210 0.972194 0.173263
C26   C     C_R   0.686236 0.341230 0.870552 -0.252716
C27   C     C_R   0.583156 0.364721 0.822742 -0.200325
C28   C     C_R   0.529288 0.511097 0.128960 -0.257368
C29   C     C_R   0.754813 0.416424 0.123300 -0.200950
H1    H     H_    0.832552 0.393385 0.162013 0.154086
H2    H     H_    0.439721 0.571264 0.171580 0.151079
H3    H     H_    0.157423 0.562352 0.841982 0.156049
H4    H     H_    0.255747 0.536547 0.130557 0.136102
H5    H     H_    0.086314 0.582938 0.039358 0.151200
H6    H     H_    0.599729 0.322384 0.744485 0.167035
H7    H     H_    0.616728 0.884531 0.606755 0.151553
H8    H     H_    0.415973 0.775685 0.322027 0.073201
H9    H     H_    0.616017 0.112465 0.610395 0.142780
H10   H     H_    0.391787 0.120890 0.380491 0.180774
H11   H     H_    0.932919 0.371229 0.369453 0.130019
H12   H     H_    0.185481 0.371017 0.369563 0.138398
H13   H     H_    0.067049 0.628721 0.630588 0.126751
H14   H     H_    0.814477 0.628885 0.630505 0.133311
H15   H     H_    0.780520 0.285760 0.827144 0.152064
H16   H     H_    0.873880 0.320975 0.976044 0.144331
N1    N     N_R   0.142790 0.500030 0.500030 -0.080783
N2    N     N_R   0.857180 0.499940 0.500010 -0.081331
O1    O     O_R   0.385370 0.683250 0.500010 -0.625068
O2    O     O_R   0.614700 0.683220 0.500010 -0.605593
O3    O     O_R   0.328400 0.499990 0.653620 -0.610938
O4    O     O_R   0.557730 0.499960 0.653620 -0.617334
O5    O     O_R   0.385300 0.316780 0.499990 -0.615414
O6    O     O_R   0.614630 0.316750 0.499990 -0.622398
O7    O     O_R   0.442270 0.500040 0.346380 -0.623994
O8    O     O_R   0.671600 0.500010 0.346380 -0.614691
O9    O     O_2   0.315556 0.928723 0.300514 -0.575896
Zn1   Zn    Zn3+2 0.346870 0.500020 0.500000 0.945293
Zn2   Zn    Zn3+2 0.653130 0.499980 0.500000 0.944979

loop_
_geom_bond_atom_site_label_1
_geom_bond_atom_site_label_2
_ccdc_geom_bond_type
C8    C22   S    
O6    Zn2   S    
C1    O1    A    
C6    C7    A    
C3    C9    A    
C23   C27   A    
C17   C29   A    
C12   C24   A    
C2    C4    S    
C19   C20   A    
C17   C25   A    
C15   O5    A    
C6    C15   S    
C16   O8    A    
C26   H15   S    
O1    Zn1   S    
O4    Zn2   S    
C5    H9    S    
C24   C25   A    
N2    Zn2   S    
C22   H8    S    
C12   C23   A    
C26   C27   A    
C29   H1    S    
C3    H7    S    
C19   H3    S    
C15   O6    A    
C10   H11   S    
C13   H13   S    
C14   N2    A    
C17   H16   S    
C11   H12   S    
N1    Zn1   S    
C5    C6    A    
C16   O7    A    
C10   N2    A    
C21   H4    S    
C10   C11   A    
C4    O4    A    
C20   H5    S    
C1    C9    S    
C7    C8    A    
C18   C28   A    
C20   C21   A    
C16   C18   S    
O5    Zn1   S    
O8    Zn2   S    
C2    C23   A    
C18   C29   A    
C7    H10   S    
C13   N1    A    
C14   H14   S    
C11   N1    A    
C22   O9    D    
C27   H6    S    
C25   C26   A    
C13   C14   A    
O3    Zn1   S    
C1    O2    A    
C12   C21   A    
C28   H2    S    
O2    Zn2   S    
C24   C28   A    
C2    C19   A    
C4    O3    A    
C8    C9    A    
C3    C5    A    
O7    Zn1   S    
