data_mof_unit_21692.cif
_audit_creation_date              2012-12-11T15:55:36-0500
_audit_creation_method            fapswitch 2.2
_symmetry_space_group_name_H-M    P1
_symmetry_Int_Tables_number       1
_space_group_crystal_system       triclinic
_cell_length_a                    6.929422
_cell_length_b                    14.537667
_cell_length_c                    16.101163
_cell_angle_alpha                 90.003975
_cell_angle_beta                  89.999855
_cell_angle_gamma                 90.017292
_cell_volume                      1621.99291565

loop_
_atom_site_label
_atom_site_type_symbol
_atom_type_description
_atom_site_fract_x
_atom_site_fract_y
_atom_site_fract_z
_atom_type_partial_charge
O1    O     O_R   0.505680 0.583900 0.413320 -0.540317
O2    O     O_R   0.176010 0.594950 0.586080 -0.543444
O3    O     O_R   0.005680 0.416100 0.586680 -0.536420
C1    C     C_R   0.345082 0.617282 0.614980 0.686143
O4    O     O_R   0.175960 0.594930 0.413930 -0.543326
O5    O     O_R   0.005640 0.416080 0.413300 -0.540765
C2    C     C_R   0.345041 0.617199 0.384994 0.687462
O6    O     O_R   0.505720 0.583920 0.586700 -0.540321
O7    O     O_3   0.339190 0.441320 0.500000 -0.369468
V1    V     V_3+5 0.064350 0.510890 0.500000 1.398535
O8    O     O_R   0.675920 0.405050 0.413920 -0.544265
C3    C     C_R   0.844970 0.382766 0.384977 0.684491
O9    O     O_R   0.675960 0.405070 0.586070 -0.543951
C4    C     C_R   0.844786 0.382868 0.614620 0.717075
V2    V     V_3+5 0.564340 0.489110 0.500000 1.395983
O10   O     O_3   0.839370 0.558680 0.500000 -0.370475
C5    C     C_R   0.986934 0.323239 0.747783 0.096200
C6    C     C_R   0.852180 0.315641 0.683507 -0.162038
C7    C     C_R   0.716216 0.243963 0.688926 -0.197630
H1    H     H_    0.607066 0.236876 0.641142 0.142542
C8    C     C_R   0.727267 0.176592 0.752059 0.280066
C9    C     C_R   0.873699 0.182482 0.814437 -0.166036
C10   C     C_R   0.996360 0.259120 0.811680 0.054747
C11   C     C_3   0.211296 0.264766 0.815127 -0.391427
C12   C     C_3   0.200647 0.334884 0.745171 -0.382478
H2    H     H_    0.280995 0.199394 0.796336 0.186481
H3    H     H_    0.263551 0.294398 0.874654 0.167709
H4    H     H_    0.265250 0.309949 0.686099 0.181945
H5    H     H_    0.246051 0.405029 0.764493 0.160911
C13   C     C_R   0.046984 0.224800 0.217479 -0.157295
H6    H     H_    0.187804 0.206429 0.193535 0.116586
C14   C     C_R   0.035843 0.288337 0.282702 -0.151216
H7    H     H_    0.168649 0.317108 0.306814 0.118722
C15   C     C_R   0.856153 0.314427 0.316149 -0.046151
C16   C     C_R   0.687920 0.275199 0.282469 -0.157119
H8    H     H_    0.547100 0.293572 0.306411 0.116620
C17   C     C_R   0.699062 0.211662 0.217246 -0.151752
H9    H     H_    0.566256 0.182891 0.193133 0.118851
C18   C     C_R   0.878752 0.185571 0.183800 -0.047389
C19   C     C_R   0.188076 0.725391 0.716979 -0.158237
H10   H     H_    0.047316 0.707199 0.692846 0.116508
C20   C     C_R   0.199165 0.789036 0.782110 -0.152319
H11   H     H_    0.066401 0.818106 0.805939 0.116288
C21   C     C_R   0.378754 0.814778 0.815874 -0.045157
C22   C     C_R   0.546988 0.775415 0.782383 -0.167826
H12   H     H_    0.687760 0.793766 0.806408 0.118460
C23   C     C_R   0.535909 0.711833 0.717206 -0.153126
H13   H     H_    0.668695 0.682922 0.693259 0.119418
C24   C     C_R   0.356277 0.685815 0.683645 -0.047583
C25   C     C_R   0.188019 0.724616 0.282431 -0.156634
H14   H     H_    0.047182 0.706127 0.306302 0.116639
C26   C     C_R   0.199163 0.788153 0.217224 -0.151104
H15   H     H_    0.066347 0.816808 0.193050 0.119009
C27   C     C_R   0.378870 0.814381 0.183862 -0.047342
C28   C     C_R   0.547122 0.775303 0.217615 -0.156546
H16   H     H_    0.687955 0.793798 0.193742 0.116816
C29   C     C_R   0.535977 0.711762 0.282824 -0.151315
H17   H     H_    0.668788 0.683106 0.307002 0.118786
C30   C     C_R   0.356265 0.685531 0.316181 -0.047087
O11   O     O_R   0.229200 0.915950 0.913350 -0.541935
O12   O     O_R   0.559090 0.905000 0.086080 -0.542787
O13   O     O_R   0.729280 0.083880 0.086680 -0.540148
C31   C     C_R   0.390041 0.882704 0.115040 0.689572
O14   O     O_R   0.558920 0.904980 0.913920 -0.543096
O15   O     O_R   0.729110 0.083860 0.913300 -0.541535
C32   C     C_R   0.389887 0.882893 0.884843 0.686836
O16   O     O_R   0.229360 0.915970 0.086730 -0.540024
O17   O     O_3   0.395680 0.058580 0.000030 -0.370876
V3    V     V_3+5 0.670570 0.989070 0.999990 1.392157
O18   O     O_R   0.058820 0.094950 0.913870 -0.541251
C33   C     C_R   0.889477 0.114810 0.883336 0.715541
O19   O     O_R   0.058990 0.094970 0.086020 -0.543036
C34   C     C_R   0.889941 0.117230 0.114974 0.688624
V4    V     V_3+5 0.170560 0.010930 0.999930 1.392499
O20   O     O_3   0.895590 0.941310 0.999960 -0.369908
N1    N     N_2   0.600228 0.099921 0.746079 -0.532504
H18   H     H_    0.520401 0.085720 0.798368 0.265057
C35   C     C_3   0.683380 0.019081 0.707964 -0.539826
H19   H     H_    0.569390 0.966311 0.699070 0.198609
H20   H     H_    0.798221 0.989813 0.748214 0.178139
H21   H     H_    0.744759 0.036506 0.646192 0.204458

loop_
_geom_bond_atom_site_label_1
_geom_bond_atom_site_label_2
_ccdc_geom_bond_type
C28   H16   S    
C4    C6    S    
C21   C32   S    
C7    H1    S    
C11   H3    S    
C1    O6    A    
C23   C24   A    
C22   H12   S    
C21   C22   A    
C12   H4    S    
C8    N1    S    
C5    C10   A    
C25   C30   A    
C16   C17   A    
N1    C35   S    
C6    C7    A    
O5    C3    A    
C13   H6    S    
C35   H20   S    
C29   C30   A    
C27   C31   S    
O17   V4    S    
V2    O10   S    
C15   C16   A    
O12   C31   A    
O8    V2    S    
C16   H8    S    
O17   V3    S    
O18   V4    S    
C25   C26   A    
C10   C11   S    
O13   C34   A    
O18   C33   A    
O1    V2    S    
O7    V1    S    
C19   C20   A    
O11   C32   A    
C8    C9    A    
C20   C21   A    
C2    C30   S    
C26   C27   A    
C25   H14   S    
C22   C23   A    
C12   H5    S    
C31   O16   A    
V4    O20   S    
C11   C12   S    
O19   V4    S    
O4    C2    A    
C35   H19   S    
O15   C33   A    
O13   V3    S    
O14   C32   A    
O2    C1    A    
C17   H9    S    
C23   H13   S    
C5    C6    A    
O16   V4    S    
O14   V3    S    
N1    H18   S    
O3    C4    A    
C19   H10   S    
O6    V2    S    
C28   C29   A    
C20   H11   S    
C3    C15   S    
O2    V1    S    
C9    C33   S    
C26   H15   S    
O12   V3    S    
C27   C28   A    
C7    C8    A    
O1    C2    A    
C11   H2    S    
O19   C34   A    
O5    V1    S    
O8    C3    A    
C1    C24   S    
C5    C12   S    
C14   H7    S    
O9    V2    S    
O7    V2    S    
O4    V1    S    
C17   C18   A    
O3    V1    S    
V1    O10   S    
C13   C14   A    
C35   H21   S    
C29   H17   S    
O15   V3    S    
O11   V4    S    
C13   C18   A    
V3    O20   S    
C18   C34   S    
C9    C10   A    
O9    C4    A    
C19   C24   A    
C14   C15   A    
