data_mof_unit_62254.cif
_audit_creation_date              2012-12-10T19:48:17-0500
_audit_creation_method            fapswitch 2.2
_symmetry_space_group_name_H-M    P1
_symmetry_Int_Tables_number       1
_space_group_crystal_system       triclinic
_cell_length_a                    18.267965
_cell_length_b                    18.267986
_cell_length_c                    30.151872
_cell_angle_alpha                 90.002987
_cell_angle_beta                  90.001247
_cell_angle_gamma                 90.001442
_cell_volume                      10062.250408

loop_
_atom_site_label
_atom_site_type_symbol
_atom_type_description
_atom_site_fract_x
_atom_site_fract_y
_atom_site_fract_z
_atom_type_partial_charge
C1    C     C_R   0.141260 0.500001 1.000000 0.933678
C2    C     C_1   0.500001 0.217773 0.999995 -0.192780
C3    C     C_R   0.098406 0.593366 0.773330 0.180262
C4    C     C_R   0.406650 0.901571 0.226671 0.180237
C5    C     C_R   0.901761 0.592762 0.226698 0.180298
C6    C     C_R   0.599108 0.091067 0.226848 0.180085
C7    C     C_R   0.098299 0.407306 0.226693 0.180269
C8    C     C_3   0.867631 0.658777 0.298187 -0.916513
C9    C     C_3   0.341150 0.866899 0.298254 -0.916263
C10   C     C_3   0.132476 0.341316 0.298180 -0.916604
C11   C     C_3   0.629048 0.161207 0.297570 -0.917101
C12   C     C_3   0.838857 0.370870 0.702415 -0.917026
C13   C     C_1   0.782227 0.499998 0.000004 -0.192780
C14   C     C_3   0.341092 0.132210 0.701818 -0.916485
C15   C     C_3   0.133106 0.658830 0.701734 -0.916207
C16   C     C_3   0.658976 0.867874 0.701810 -0.916619
C17   C     C_3   0.367658 0.158800 0.798188 -0.916632
C18   C     C_3   0.870998 0.338749 0.797567 -0.917047
C19   C     C_3   0.632433 0.841281 0.798180 -0.916478
C20   C     C_3   0.158811 0.633131 0.798282 -0.916209
C21   C     C_3   0.366915 0.841136 0.201730 -0.916265
C22   C     C_3   0.841062 0.632173 0.201818 -0.916620
C23   C     C_3   0.661237 0.129016 0.202445 -0.917103
C24   C     C_1   0.499998 0.782227 0.000002 -0.192948
C25   C     C_3   0.159010 0.367915 0.201809 -0.916489
C26   C     C_1   0.717773 0.000002 0.500001 -0.192782
C27   C     C_1   0.000002 0.717773 0.499998 -0.192949
C28   C     C_1   0.282227 0.999998 0.500001 -0.192949
C29   C     C_1   0.999998 0.282227 0.500000 -0.192780
C30   C     C_R   0.999999 0.500002 0.086890 0.884643
C31   C     C_R   0.500034 0.999872 0.086898 0.884995
C32   C     C_R   0.000125 0.499965 0.913103 0.884995
C33   C     C_R   0.500001 0.141260 0.999997 0.933983
C34   C     C_R   0.499999 0.999999 0.913109 0.884661
C35   C     C_R   0.499999 0.000002 0.586890 0.884645
C36   C     C_R   0.999968 0.500126 0.586897 0.884988
C37   C     C_R   0.499872 0.000031 0.413102 0.884995
C38   C     C_R   1.000000 0.499999 0.413109 0.884664
C39   C     C_1   0.282580 0.500002 0.999999 -0.182524
C40   C     C_1   0.500001 0.282580 0.999996 -0.182446
C41   C     C_1   0.717419 0.499999 0.000003 -0.182449
C42   C     C_1   0.499998 0.717420 0.000003 -0.182522
C43   C     C_1   0.782580 0.000001 0.500000 -0.182449
C44   C     C_R   0.858740 0.499999 0.000003 0.933967
C45   C     C_1   0.000002 0.782580 0.499997 -0.182522
C46   C     C_1   0.217420 0.999998 0.500001 -0.182524
C47   C     C_1   0.999999 0.217419 0.500001 -0.182447
C48   C     C_R   0.500000 0.359098 0.999999 0.923713
C49   C     C_R   0.640902 0.500000 0.000001 0.923713
C50   C     C_R   0.499999 0.640902 0.000001 0.923795
C51   C     C_R   0.359098 0.500000 1.000000 0.923796
C52   C     C_R   0.000001 0.859097 0.499999 0.923796
C53   C     C_R   0.140902 0.999999 0.500000 0.923796
C54   C     C_R   0.000000 0.140902 0.500001 0.923713
C55   C     C_R   0.499999 0.858739 0.000001 0.933681
C56   C     C_R   0.859098 1.000000 0.500000 0.923713
C57   C     C_R   0.047847 0.454351 0.342792 -0.231473
C58   C     C_R   0.543112 0.049703 0.342736 -0.228989
C59   C     C_R   0.952169 0.545671 0.342793 -0.231392
C60   C     C_R   0.453797 0.952127 0.342816 -0.231834
C61   C     C_R   0.047871 0.546193 0.657184 -0.231824
C62   C     C_R   0.545738 0.952239 0.657204 -0.231491
C63   C     C_R   0.950310 0.456865 0.657263 -0.228992
C64   C     C_R   0.454281 0.047787 0.657206 -0.231385
C65   C     C_R   0.547836 0.954339 0.842792 -0.231375
C66   C     C_R   0.641260 0.000001 0.500002 0.933974
C67   C     C_R   0.046189 0.547870 0.842820 -0.231823
C68   C     C_R   0.452176 0.045678 0.842794 -0.231490
C69   C     C_R   0.956902 0.450273 0.842731 -0.228988
C70   C     C_R   0.549720 0.043098 0.157269 -0.228992
C71   C     C_R   0.045749 0.452250 0.157203 -0.231395
C72   C     C_R   0.452138 0.953790 0.157180 -0.231832
C73   C     C_R   0.954272 0.547778 0.157205 -0.231485
C74   C     C_R   0.000002 0.500004 0.365364 -0.070996
C75   C     C_R   0.499095 0.000386 0.365347 -0.072202
C76   C     C_R   0.999615 0.500895 0.634653 -0.072186
C77   C     C_R   0.000001 0.641260 0.499999 0.933686
C78   C     C_R   0.500004 0.000008 0.634634 -0.070940
C79   C     C_R   0.500001 0.000003 0.865364 -0.070988
C80   C     C_R   0.000903 0.499604 0.865347 -0.072204
C81   C     C_R   0.500396 0.999088 0.134653 -0.072205
C82   C     C_R   0.000005 0.500008 0.134634 -0.070931
C83   C     C_R   0.952921 0.548530 0.296465 0.079757
C84   C     C_R   0.450958 0.952713 0.296473 0.079885
C85   C     C_R   0.047122 0.451516 0.296462 0.079744
C86   C     C_R   0.544575 0.050259 0.296396 0.078995
C87   C     C_R   0.949760 0.455394 0.703603 0.078965
C88   C     C_R   0.358739 0.999999 0.500000 0.933671
C89   C     C_R   0.451440 0.047050 0.703535 0.079757
C90   C     C_R   0.047288 0.549030 0.703527 0.079850
C91   C     C_R   0.548598 0.952996 0.703533 0.079769
C92   C     C_R   0.452928 0.048537 0.796465 0.079763
C93   C     C_R   0.955446 0.449710 0.796391 0.078968
C94   C     C_R   0.547109 0.951503 0.796462 0.079740
C95   C     C_R   0.049038 0.547279 0.796478 0.079848
C96   C     C_R   0.452729 0.950944 0.203522 0.079885
C97   C     C_R   0.951432 0.547041 0.203535 0.079770
C98   C     C_R   0.550279 0.044555 0.203609 0.078997
C99   C     C_R   0.999999 0.358739 0.499998 0.933977
C100  C     C_R   0.048610 0.453009 0.203532 0.079762
C101  C     C_R   0.000022 0.500024 0.273167 -0.038213
C102  C     C_R   0.499065 0.000176 0.273162 -0.038202
C103  C     C_R   0.999829 0.500918 0.726838 -0.038190
C104  C     C_R   0.500020 0.000024 0.726830 -0.038225
C105  C     C_R   0.500020 0.000022 0.773168 -0.038214
C106  C     C_R   0.000949 0.499797 0.773161 -0.038190
C107  C     C_R   0.500195 0.999047 0.226838 -0.038202
C108  C     C_R   0.000022 0.500026 0.226830 -0.038227
C109  C     C_R   0.907128 0.598135 0.273303 0.180257
C110  C     C_1   0.217773 0.500002 0.999999 -0.192951
C111  C     C_R   0.401586 0.906635 0.273319 0.180230
C112  C     C_R   0.092938 0.401931 0.273298 0.180292
C113  C     C_R   0.591092 0.099083 0.273162 0.180091
C114  C     C_R   0.900946 0.408862 0.726836 0.180115
C115  C     C_R   0.401780 0.092782 0.726699 0.180256
C116  C     C_R   0.093359 0.598412 0.726680 0.180257
C117  C     C_R   0.598275 0.907281 0.726693 0.180311
C118  C     C_R   0.407146 0.098152 0.773304 0.180304
C119  C     C_R   0.908947 0.400866 0.773153 0.180116
C120  C     C_R   0.592912 0.901907 0.773299 0.180250
H1    H     H_    0.084989 0.420918 0.362072 0.162639
H2    H     H_    0.078968 0.585564 0.862123 0.163008
H3    H     H_    0.415029 0.079107 0.862074 0.162639
H4    H     H_    0.921581 0.414919 0.862009 0.161904
H5    H     H_    0.585068 0.078428 0.137994 0.161907
H6    H     H_    0.079228 0.415148 0.137923 0.162615
H7    H     H_    0.414449 0.921004 0.137877 0.163004
H8    H     H_    0.920780 0.584868 0.137925 0.162588
H9    H     H_    0.851553 0.705056 0.276534 0.254642
H10   H     H_    0.818480 0.636417 0.315074 0.243773
H11   H     H_    0.904742 0.684041 0.323013 0.236925
H12   H     H_    0.578443 0.085050 0.362015 0.161905
H13   H     H_    0.294718 0.850942 0.276689 0.254539
H14   H     H_    0.363683 0.817657 0.314957 0.243697
H15   H     H_    0.315994 0.903786 0.323240 0.236945
H16   H     H_    0.148636 0.295066 0.276525 0.254662
H17   H     H_    0.181582 0.363724 0.315096 0.243721
H18   H     H_    0.095363 0.315999 0.322983 0.236891
H19   H     H_    0.646367 0.206221 0.275297 0.254581
H20   H     H_    0.590450 0.187776 0.321023 0.238569
H21   H     H_    0.677199 0.139955 0.315974 0.243199
H22   H     H_    0.793868 0.353444 0.724674 0.254548
H23   H     H_    0.915015 0.579094 0.362074 0.162665
H24   H     H_    0.812235 0.409483 0.678995 0.238560
H25   H     H_    0.860166 0.322786 0.683971 0.243170
H26   H     H_    0.294809 0.148268 0.723473 0.254641
H27   H     H_    0.363405 0.181366 0.684914 0.243768
H28   H     H_    0.315851 0.095058 0.677005 0.236918
H29   H     H_    0.149125 0.705253 0.723287 0.254506
H30   H     H_    0.182308 0.636266 0.685003 0.243681
H31   H     H_    0.096199 0.684012 0.676769 0.236932
H32   H     H_    0.705296 0.851901 0.723461 0.254646
H33   H     H_    0.636695 0.818668 0.684939 0.243748
H34   H     H_    0.421007 0.914442 0.362115 0.163000
H35   H     H_    0.684163 0.905008 0.676971 0.236887
H36   H     H_    0.351593 0.205085 0.776537 0.254654
H37   H     H_    0.318500 0.136448 0.815072 0.243738
H38   H     H_    0.404770 0.184054 0.823017 0.236898
H39   H     H_    0.853648 0.293732 0.775305 0.254543
H40   H     H_    0.909613 0.312177 0.821007 0.238558
H41   H     H_    0.822871 0.360016 0.815988 0.243185
H42   H     H_    0.648578 0.795026 0.776525 0.254646
H43   H     H_    0.681546 0.863675 0.815095 0.243759
H44   H     H_    0.595314 0.815975 0.822984 0.236916
H45   H     H_    0.085547 0.578991 0.637883 0.162992
H46   H     H_    0.205238 0.649145 0.776733 0.254504
H47   H     H_    0.136236 0.682337 0.815004 0.243682
H48   H     H_    0.183992 0.596239 0.823254 0.236932
H49   H     H_    0.350969 0.794698 0.223291 0.254535
H50   H     H_    0.317666 0.863666 0.185032 0.243700
H51   H     H_    0.403798 0.815987 0.176740 0.236943
H52   H     H_    0.794773 0.648212 0.223475 0.254659
H53   H     H_    0.863358 0.681339 0.184917 0.243734
H54   H     H_    0.815833 0.595016 0.177004 0.236896
H55   H     H_    0.706255 0.146322 0.224722 0.254582
H56   H     H_    0.579209 0.915131 0.637923 0.162601
H57   H     H_    0.687798 0.090419 0.178989 0.238571
H58   H     H_    0.639990 0.177175 0.184047 0.243199
H59   H     H_    0.205336 0.351957 0.223460 0.254629
H60   H     H_    0.136742 0.318702 0.184940 0.243786
H61   H     H_    0.184186 0.405054 0.176969 0.236909
H62   H     H_    0.914964 0.421537 0.637981 0.161894
H63   H     H_    0.420797 0.084883 0.637925 0.162614
H64   H     H_    0.584972 0.920899 0.862072 0.162652
O1    O     O_R   0.107310 0.560570 0.000010 -0.619996
O2    O     O_R   0.939430 0.607310 0.500010 -0.620022
O3    O     O_R   0.392690 0.939430 0.500010 -0.619997
O4    O     O_R   0.060570 0.392690 0.500010 -0.619949
O5    O     O_R   0.607310 0.939430 0.499990 -0.619948
O6    O     O_R   0.939430 0.392690 0.499990 -0.619976
O7    O     O_R   0.392690 0.060570 0.499990 -0.620023
O8    O     O_R   0.060570 0.607310 0.499990 -0.619995
O9    O     O_R   0.999950 0.560580 0.066080 -0.624017
O10   O     O_R   0.439420 0.999950 0.066080 -0.624095
O11   O     O_R   0.000050 0.439420 0.066080 -0.623986
O12   O     O_R   0.439430 0.107310 0.000010 -0.619948
O13   O     O_R   0.560580 0.000050 0.066080 -0.624273
O14   O     O_R   0.999950 0.439420 0.933920 -0.624276
O15   O     O_R   0.439420 0.000050 0.933920 -0.624035
O16   O     O_R   0.000050 0.560580 0.933920 -0.624102
O17   O     O_R   0.560580 0.999950 0.933920 -0.624003
O18   O     O_R   0.499950 0.060580 0.566080 -0.623989
O19   O     O_R   0.939420 0.499950 0.566080 -0.624270
O20   O     O_R   0.500050 0.939420 0.566080 -0.624019
O21   O     O_R   0.060580 0.500050 0.566080 -0.624098
O22   O     O_R   0.499950 0.939420 0.433920 -0.624096
O23   O     O_R   0.892690 0.439430 0.000010 -0.619976
O24   O     O_R   0.939420 0.500050 0.433920 -0.624007
O25   O     O_R   0.500050 0.060580 0.433920 -0.624271
O26   O     O_R   0.060580 0.499950 0.433920 -0.624035
O27   O     O_R   0.499980 0.392670 0.037330 -0.619375
O28   O     O_R   0.607330 0.499980 0.037330 -0.619649
O29   O     O_R   0.500020 0.607330 0.037330 -0.619515
O30   O     O_R   0.392670 0.500020 0.037330 -0.619494
O31   O     O_R   0.499980 0.607330 0.962670 -0.619489
O32   O     O_R   0.607330 0.500020 0.962670 -0.619373
O33   O     O_R   0.500020 0.392670 0.962670 -0.619645
O34   O     O_R   0.560570 0.892690 0.000010 -0.620023
O35   O     O_R   0.392670 0.499980 0.962670 -0.619512
O36   O     O_R   0.999980 0.892670 0.537330 -0.619512
O37   O     O_R   0.107330 0.999980 0.537330 -0.619494
O38   O     O_R   0.000020 0.107330 0.537330 -0.619379
O39   O     O_R   0.892670 0.000020 0.537330 -0.619647
O40   O     O_R   0.999980 0.107330 0.462670 -0.619643
O41   O     O_R   0.107330 0.000020 0.462670 -0.619511
O42   O     O_R   0.000020 0.892670 0.462670 -0.619492
O43   O     O_R   0.892670 0.999980 0.462670 -0.619375
O44   O     O_R   0.107310 0.439430 0.999990 -0.620021
O45   O     O_R   0.439430 0.892690 0.999990 -0.619997
O46   O     O_R   0.892690 0.560570 0.999990 -0.619950
O47   O     O_R   0.560570 0.107310 0.999990 -0.619973
O48   O     O_R   0.607310 0.060570 0.500010 -0.619975
Zn1   Zn    Zn3+2 0.000000 0.580890 0.000000 0.964656
Zn2   Zn    Zn3+2 0.500000 0.500000 0.950170 0.969420
Zn3   Zn    Zn3+2 0.000000 0.000000 0.549830 0.969409
Zn4   Zn    Zn3+2 0.000000 0.000000 0.450170 0.969416
Zn5   Zn    Zn3+2 0.419110 0.000000 0.000000 0.964653
Zn6   Zn    Zn3+2 0.000000 0.419110 0.000000 0.964369
Zn7   Zn    Zn3+2 0.580890 0.000000 0.000000 0.964363
Zn8   Zn    Zn3+2 0.500000 0.080890 0.500000 0.964369
Zn9   Zn    Zn3+2 0.919110 0.500000 0.500000 0.964363
Zn10  Zn    Zn3+2 0.500000 0.919110 0.500000 0.964659
Zn11  Zn    Zn3+2 0.080890 0.500000 0.500000 0.964650
Zn12  Zn    Zn3+2 0.500000 0.500000 0.049830 0.969406

loop_
_geom_bond_atom_site_label_1
_geom_bond_atom_site_label_2
_ccdc_geom_bond_type
C9    C111  S    
C88   O7    A    
O1    Zn1   S    
C89   C115  A    
C94   C105  A    
C65   C79   A    
C4    C111  A    
C66   O48   A    
C24   C42   T    
C37   O22   A    
C55   O45   A    
O36   Zn3   S    
C39   C51   S    
O25   Zn8   S    
C31   O13   A    
C91   C104  A    
O28   Zn12  S    
C85   C112  A    
C99   O6    A    
C13   C41   T    
C25   H60   S    
C65   H64   S    
C24   C55   S    
C73   C97   A    
O43   Zn4   S    
C77   O8    A    
C49   O32   A    
C28   C46   T    
C38   O24   A    
C29   C47   T    
C86   C113  A    
C6    C98   A    
O30   Zn12  S    
O5    Zn10  S    
C59   C83   A    
O26   Zn11  S    
C69   C93   A    
C3    C116  A    
O18   Zn8   S    
C34   C79   S    
C18   H41   S    
C35   O20   A    
C54   O38   A    
C30   O9    A    
C23   H55   S    
C63   C76   A    
C34   O17   A    
C53   O37   A    
C21   H50   S    
C66   O5    A    
C14   H28   S    
O42   Zn4   S    
C7    C112  A    
C49   O28   A    
O46   Zn1   S    
O47   Zn7   S    
C41   C49   S    
C70   C81   A    
C92   C118  A    
C99   O4    A    
C87   C114  A    
C32   O14   A    
C18   H39   S    
O14   Zn6   S    
O23   Zn6   S    
C53   O41   A    
C4    C96   A    
C97   C108  A    
C94   C120  A    
C34   O15   A    
C39   C110  T    
C5    C22   S    
C33   O12   A    
C58   H12   S    
C23   H58   S    
C36   C76   S    
C28   C88   S    
C91   C117  A    
C71   H6    S    
C10   C112  S    
C36   O19   A    
C90   C116  A    
C93   C119  A    
C17   H37   S    
C72   C81   A    
C84   C102  A    
C48   O33   A    
C71   C82   A    
C9    H14   S    
C27   C45   T    
C101  C108  A    
C37   C75   S    
C59   H23   S    
O8    Zn11  S    
O32   Zn2   S    
O37   Zn3   S    
C67   C95   A    
C77   O2    A    
C64   H63   S    
O35   Zn2   S    
O22   Zn10  S    
O31   Zn2   S    
C70   C98   A    
O34   Zn7   S    
C16   H35   S    
O3    Zn10  S    
O15   Zn5   S    
C68   H3    S    
O9    Zn1   S    
C104  C105  A    
C22   H54   S    
C25   H61   S    
C58   C75   A    
O17   Zn7   S    
C55   O34   A    
C12   C114  S    
O12   Zn5   S    
C88   O3    A    
C61   C76   A    
C20   H48   S    
C44   O46   A    
O38   Zn3   S    
C100  C108  A    
C84   C111  A    
C52   O36   A    
C7    C100  A    
C29   C99   S    
C72   H7    S    
C26   C66   S    
C102  C107  A    
O24   Zn9   S    
C117  C120  A    
C16   C117  S    
C8    H9    S    
C45   C52   S    
C51   O35   A    
C21   H51   S    
C14   H27   S    
C44   O23   A    
C38   O26   A    
C98   C107  A    
C12   H24   S    
C19   H42   S    
C57   C74   A    
C30   C82   S    
C11   H20   S    
C6    C113  A    
O44   Zn6   S    
C58   C86   A    
C95   C106  A    
C1    C110  S    
C32   C80   S    
C43   C56   S    
C54   O40   A    
C30   O11   A    
C48   O27   A    
C115  C118  A    
C62   H56   S    
C62   C91   A    
C8    H11   S    
C83   C109  A    
C3    C20   S    
C16   H32   S    
C19   H43   S    
C15   H31   S    
O16   Zn1   S    
O2    Zn9   S    
C17   H38   S    
C11   H21   S    
C59   C74   A    
C37   O25   A    
O39   Zn3   S    
C17   C118  S    
C42   C50   S    
C47   C54   S    
C87   C103  A    
C9    H15   S    
C70   H5    S    
C52   O42   A    
C26   C43   T    
C10   H17   S    
C96   C107  A    
C5    C97   A    
C19   C120  S    
C89   C104  A    
C8    H10   S    
C60   C84   A    
O45   Zn5   S    
C86   C102  A    
C67   H2    S    
C73   C82   A    
C15   H29   S    
C22   H53   S    
C85   C101  A    
C61   C90   A    
C1    O44   A    
O48   Zn8   S    
C38   C74   S    
C93   C106  A    
C64   C89   A    
O7    Zn8   S    
C40   C48   S    
C20   H47   S    
C65   C94   A    
C83   C101  A    
C56   O43   A    
C63   C87   A    
O41   Zn4   S    
C64   C78   A    
O27   Zn12  S    
C62   C78   A    
O29   Zn12  S    
C67   C80   A    
C114  C119  A    
C10   H16   S    
C27   C77   S    
C7    C25   S    
O33   Zn2   S    
C56   O39   A    
O20   Zn10  S    
C25   H59   S    
C35   O18   A    
O19   Zn9   S    
C1    O1    A    
C73   H8    S    
C20   H46   S    
C71   C100  A    
C14   H26   S    
C35   C78   S    
C31   C81   S    
O40   Zn4   S    
O4    Zn11  S    
C32   O16   A    
C33   O47   A    
C8    C109  S    
C4    C21   S    
O13   Zn7   S    
C12   H25   S    
C5    C109  A    
C50   O31   A    
C68   C79   A    
C21   H49   S    
C6    C23   S    
C46   C53   S    
C68   C92   A    
C3    C95   A    
C12   H22   S    
C103  C106  A    
C61   H45   S    
C19   H44   S    
C15   H30   S    
O10   Zn5   S    
C11   C113  S    
C60   H34   S    
C90   C103  A    
C23   H57   S    
C60   C75   A    
C18   H40   S    
C69   H4    S    
C57   H1    S    
O11   Zn6   S    
C72   C96   A    
C2    C40   T    
C92   C105  A    
O6    Zn9   S    
C50   O29   A    
C2    C33   S    
C16   H33   S    
C63   H62   S    
C15   C116  S    
C69   C80   A    
C51   O30   A    
C10   H18   S    
O21   Zn11  S    
C17   H36   S    
C18   C119  S    
C57   C85   A    
C13   C44   S    
C22   H52   S    
C14   C115  S    
C11   H19   S    
C36   O21   A    
C31   O10   A    
C9    H13   S    
