data_mof_unit_56041.cif
_audit_creation_date              2013-03-05T15:43:16-0500
_audit_creation_method            fapswitch 2.2
_symmetry_space_group_name_H-M    P1
_symmetry_Int_Tables_number       1
_space_group_crystal_system       triclinic
_cell_length_a                    12.914769
_cell_length_b                    12.962891
_cell_length_c                    26.984334
_cell_angle_alpha                 90.494701
_cell_angle_beta                  88.63774
_cell_angle_gamma                 120.574543
_cell_volume                      3888.31116996

loop_
_atom_site_label
_atom_site_type_symbol
_atom_site_description
_atom_site_fract_x
_atom_site_fract_y
_atom_site_fract_z
_atom_type_partial_charge
O1    O     O_R   0.460870 0.120930 0.805240 -0.544462
O2    O     O_R   0.660060 0.539130 0.694760 -0.548477
O3    O     O_R   0.879070 0.339940 0.805240 -0.550130
O4    O     O_R   0.460870 0.120930 0.694760 -0.543717
O5    O     O_R   0.660060 0.539130 0.805240 -0.540813
O6    O     O_R   0.879070 0.339940 0.694760 -0.541339
O7    O     O_R   0.120930 0.460870 0.305240 -0.532963
O8    O     O_R   0.539130 0.660060 0.194760 -0.527044
O9    O     O_R   0.339940 0.879070 0.305240 -0.542414
O10   O     O_R   0.120930 0.460870 0.194760 -0.543096
O11   O     O_R   0.539130 0.660060 0.305240 -0.546307
O12   O     O_R   0.339940 0.879070 0.194760 -0.518316
O13   O     O_R   0.498910 0.350470 0.801870 -0.485498
O14   O     O_R   0.851560 0.501090 0.698130 -0.490167
O15   O     O_R   0.649530 0.148440 0.801870 -0.488952
O16   O     O_R   0.498910 0.350470 0.698130 -0.483439
O17   O     O_R   0.851560 0.501090 0.801870 -0.483550
O18   O     O_R   0.649530 0.148440 0.698130 -0.487571
O19   O     O_R   0.350470 0.498910 0.301870 -0.485910
O20   O     O_R   0.501090 0.851560 0.198130 -0.484991
O21   O     O_R   0.148440 0.649530 0.301870 -0.480787
O22   O     O_R   0.350470 0.498910 0.198130 -0.482160
O23   O     O_R   0.501090 0.851560 0.301870 -0.481296
O24   O     O_R   0.148440 0.649530 0.198130 -0.476196
C1    C     C_R   0.560069 0.453868 0.823461 0.536517
C2    C     C_R   0.896415 0.440115 0.677595 0.539276
C3    C     C_R   0.542267 0.102950 0.822028 0.542796
C4    C     C_R   0.560434 0.456110 0.677783 0.540366
C5    C     C_R   0.896569 0.440949 0.821976 0.536938
C6    C     C_R   0.545237 0.104546 0.677402 0.535050
C7    C     C_R   0.455457 0.557286 0.321825 0.538003
C8    C     C_R   0.444323 0.900099 0.178381 0.532205
C9    C     C_R   0.098058 0.542290 0.321208 0.533739
C10   C     C_R   0.458800 0.555830 0.179416 0.547655
C11   C     C_R   0.443076 0.900554 0.321263 0.539149
C12   C     C_R   0.102732 0.543665 0.177982 0.537397
C13   C     C_R   0.988302 0.495079 0.974455 0.053621
C14   C     C_R   0.520872 0.030997 0.522160 0.055008
C15   C     C_R   0.517277 0.467564 0.981041 0.053812
C16   C     C_R   0.969730 0.488079 0.522541 0.053278
C17   C     C_R   0.511195 0.022508 0.975662 0.052140
C18   C     C_R   0.507093 0.496635 0.525308 0.053410
C19   C     C_R   0.515640 0.017800 0.470288 0.057117
C20   C     C_R   0.002765 0.503184 0.026178 0.054853
C21   C     C_R   0.496275 0.502407 0.473701 0.054557
C22   C     C_R   0.509780 0.011251 0.027642 0.055237
C23   C     C_R   0.979996 0.496327 0.470630 0.055233
C24   C     C_R   0.509967 0.472242 0.033139 0.054347
C25   C     C_R   0.031424 0.700036 0.972198 -0.141746
C26   C     C_R   0.673483 0.974654 0.523718 -0.140015
C27   C     C_R   0.306448 0.312505 0.979818 -0.135235
C28   C     C_R   0.035415 0.700018 0.527431 -0.141067
C29   C     C_R   0.678585 0.988290 0.968412 -0.139335
C30   C     C_R   0.292584 0.355812 0.533255 -0.143130
C31   C     C_R   0.676258 0.972600 0.471740 -0.142955
C32   C     C_R   0.034074 0.703880 0.023668 -0.142641
C33   C     C_R   0.283310 0.356226 0.482180 -0.137820
C34   C     C_R   0.681997 0.984753 0.019599 -0.138822
C35   C     C_R   0.039692 0.706630 0.475790 -0.140584
C36   C     C_R   0.302318 0.309399 0.031917 -0.137413
C37   C     C_R   0.989986 0.584503 0.894411 -0.034237
C38   C     C_R   0.596951 0.015326 0.602319 -0.036390
C39   C     C_R   0.421875 0.396032 0.900762 -0.032660
C40   C     C_R   0.990795 0.580510 0.603972 -0.035374
C41   C     C_R   0.590301 0.012326 0.893580 -0.030921
C42   C     C_R   0.417629 0.416918 0.607449 -0.036729
C43   C     C_R   0.589073 0.981303 0.392431 -0.017972
C44   C     C_R   0.033674 0.611521 0.103665 -0.027160
C45   C     C_R   0.376740 0.429157 0.399494 -0.027778
C46   C     C_R   0.583810 0.967381 0.102258 -0.023042
C47   C     C_R   0.026727 0.611648 0.395304 -0.019205
C48   C     C_R   0.397647 0.402437 0.111131 -0.017076
C49   C     C_R   0.045186 0.522497 0.128703 -0.016661
C50   C     C_R   0.486705 0.968144 0.368652 -0.010742
C51   C     C_R   0.486376 0.508550 0.133803 -0.011233
C52   C     C_R   0.027045 0.518486 0.368533 -0.019255
C53   C     C_R   0.489141 0.965734 0.130257 -0.025288
C54   C     C_R   0.473758 0.518368 0.370856 -0.014838
C55   C     C_R   0.530652 0.062765 0.625419 -0.015069
C56   C     C_R   0.946990 0.471227 0.872228 -0.020372
C57   C     C_R   0.533826 0.476973 0.627198 -0.016225
C58   C     C_R   0.518847 0.052756 0.872559 -0.009759
C59   C     C_R   0.941184 0.466131 0.625854 -0.008041
C60   C     C_R   0.535763 0.464960 0.876815 -0.016968
H1    H     H_    0.048156 0.785395 0.040787 0.107784
H2    H     H_    0.737743 0.950668 0.453109 0.107777
H3    H     H_    0.218424 0.247523 0.050791 0.101551
H4    H     H_    0.067213 0.792128 0.458496 0.110195
H5    H     H_    0.755909 0.979094 0.033712 0.124473
H6    H     H_    0.194868 0.300378 0.467302 0.129098
H7    H     H_    0.734261 0.955804 0.543307 0.119547
H8    H     H_    0.046425 0.779598 0.953269 0.116462
H9    H     H_    0.210945 0.299981 0.554553 0.126085
H10   H     H_    0.746817 0.981690 0.946887 0.115171
H11   H     H_    0.057690 0.780307 0.548164 0.121381
H12   H     H_    0.225779 0.251326 0.960229 0.114011
C61   C     C_R   0.003681 0.594418 0.946663 0.011904
C62   C     C_R   0.597923 0.006611 0.549710 0.009676
C63   C     C_R   0.414025 0.390915 0.953560 0.012524
C64   C     C_R   0.999569 0.590738 0.551620 0.008996
C65   C     C_R   0.592817 0.005880 0.945627 0.012826
C66   C     C_R   0.404756 0.422763 0.555686 0.009600
C67   C     C_R   0.595998 0.992009 0.444547 0.009734
C68   C     C_R   0.022690 0.606912 0.051481 0.011679
C69   C     C_R   0.384642 0.428963 0.451617 0.010222
C70   C     C_R   0.592787 0.987523 0.050159 0.014590
C71   C     C_R   0.014648 0.605750 0.447115 0.010658
C72   C     C_R   0.402628 0.391678 0.059046 0.011839
Cr1   Cr    Cr6+3 0.487630 0.241180 0.750000 1.003019
Cr2   Cr    Cr6+3 0.753550 0.512370 0.750000 1.002372
Cr3   Cr    Cr6+3 0.758820 0.246450 0.750000 0.993838
Cr4   Cr    Cr6+3 0.241180 0.487630 0.250000 1.014043
Cr5   Cr    Cr6+3 0.512370 0.753550 0.250000 1.014955
Cr6   Cr    Cr6+3 0.246450 0.758820 0.250000 1.027507
O25   O     O_3   0.666667 0.333333 0.750000 -0.241980
O26   O     O_3   0.333333 0.666667 0.250000 -0.245554
C73   C     C_R   0.938506 0.376398 0.900483 -0.136656
C74   C     C_R   0.454260 0.084446 0.596913 -0.137123
C75   C     C_R   0.636309 0.538351 0.905406 -0.141083
C76   C     C_R   0.916212 0.366925 0.596135 -0.135669
C77   C     C_R   0.435069 0.064839 0.902737 -0.135399
C78   C     C_R   0.633158 0.552789 0.596457 -0.135427
C79   C     C_R   0.416574 0.006422 0.393585 -0.165568
C80   C     C_R   0.020549 0.418656 0.102802 -0.148140
C81   C     C_R   0.585468 0.588046 0.393391 -0.160026
C82   C     C_R   0.422552 0.010260 0.108263 -0.164123
C83   C     C_R   0.972334 0.405869 0.390686 -0.176456
C84   C     C_R   0.597788 0.576963 0.109548 -0.167128
C85   C     C_R   0.961037 0.387883 0.950551 0.010308
C86   C     C_R   0.446118 0.065821 0.546449 0.007368
C87   C     C_R   0.627463 0.543774 0.956489 0.006750
C88   C     C_R   0.931181 0.376974 0.545214 0.004378
C89   C     C_R   0.429830 0.048919 0.953753 0.008371
C90   C     C_R   0.620754 0.564718 0.546340 0.008859
C91   C     C_R   0.430454 0.032139 0.444046 0.007698
C92   C     C_R   0.996385 0.406681 0.052555 0.011482
C93   C     C_R   0.598110 0.578986 0.444079 0.008358
C94   C     C_R   0.427760 0.027636 0.057124 0.006133
C95   C     C_R   0.952162 0.393959 0.441919 0.006593
C96   C     C_R   0.610816 0.558432 0.059452 0.004773
C97   C     C_R   0.971846 0.301452 0.027889 -0.126776
C98   C     C_R   0.355862 0.065113 0.469286 -0.135653
C99   C     C_R   0.720257 0.631470 0.034482 -0.128155
C100  C     C_R   0.912545 0.283761 0.465196 -0.128345
C101  C     C_R   0.347912 0.055218 0.034764 -0.129564
C102  C     C_R   0.710255 0.648734 0.465899 -0.131735
C103  C     C_R   0.365180 0.084153 0.519937 -0.124792
C104  C     C_R   0.952715 0.291541 0.977222 -0.122483
C105  C     C_R   0.721657 0.640849 0.516697 -0.124751
C106  C     C_R   0.348265 0.064741 0.983340 -0.120900
C107  C     C_R   0.903428 0.275730 0.516627 -0.126404
C108  C     C_R   0.728565 0.623775 0.983338 -0.121236
H13   H     H_    0.025848 0.348526 0.121003 0.118082
H14   H     H_    0.349533 0.013126 0.373594 0.107171
H15   H     H_    0.672226 0.649252 0.128855 0.127249
H16   H     H_    0.952805 0.330077 0.368089 0.117245
H17   H     H_    0.360005 0.023269 0.130673 0.126596
H18   H     H_    0.662567 0.652515 0.371736 0.117647
H19   H     H_    0.401367 0.118773 0.613896 0.139162
H20   H     H_    0.910970 0.290506 0.883901 0.133013
H21   H     H_    0.722620 0.599811 0.611063 0.130048
H22   H     H_    0.376875 0.092324 0.886950 0.131207
H23   H     H_    0.878850 0.278904 0.612317 0.133272
H24   H     H_    0.723681 0.590771 0.887797 0.139071
H25   H     H_    0.967130 0.226821 0.047776 0.113294
H26   H     H_    0.289069 0.075013 0.450512 0.112939
H27   H     H_    0.798738 0.696019 0.054317 0.104337
H28   H     H_    0.891088 0.204573 0.443856 0.111680
H29   H     H_    0.283738 0.067139 0.056965 0.102103
H30   H     H_    0.789134 0.708730 0.443681 0.111867
H31   H     H_    0.307088 0.110752 0.538524 0.105678
H32   H     H_    0.932359 0.208892 0.958789 0.102612
H33   H     H_    0.809319 0.694423 0.532880 0.110763
H34   H     H_    0.284826 0.084483 0.966639 0.104823
H35   H     H_    0.875650 0.190648 0.534244 0.110568
H36   H     H_    0.813071 0.683306 0.964554 0.105075
C109  C     C_R   0.026019 0.704369 0.132015 0.048249
C110  C     C_R   0.120261 0.822883 0.129147 -0.067687
C111  C     C_R   0.111049 0.912245 0.153977 -0.117909
C112  C     C_R   0.008890 0.882575 0.182697 -0.109977
C113  C     C_R   0.913295 0.764176 0.185369 -0.117679
C114  C     C_R   0.922132 0.674554 0.160315 -0.098210
H37   H     H_    0.197672 0.844666 0.105875 0.118767
H38   H     H_    0.180778 0.004727 0.149838 0.114180
H39   H     H_    0.002176 0.953062 0.201087 0.104981
H40   H     H_    0.831929 0.742420 0.206123 0.112908
H41   H     H_    0.847708 0.582969 0.162067 0.102368
C115  C     C_R   0.693988 0.007158 0.361003 0.018932
C116  C     C_R   0.751505 0.114918 0.333730 -0.122518
C117  C     C_R   0.824565 0.127231 0.292517 -0.126916
C118  C     C_R   0.835263 0.029983 0.277220 -0.113087
C119  C     C_R   0.775595 0.922709 0.303735 -0.085698
C120  C     C_R   0.712703 0.913914 0.347573 -0.067558
H42   H     H_    0.735041 0.186880 0.343036 0.109005
H43   H     H_    0.868554 0.209927 0.271414 0.119176
H44   H     H_    0.886480 0.035756 0.244205 0.104870
H45   H     H_    0.770458 0.843887 0.288431 0.108689
H46   H     H_    0.664235 0.829531 0.367080 0.126893
C121  C     C_R   0.325926 0.298048 0.144113 0.018034
C122  C     C_R   0.212906 0.272244 0.162212 -0.076178
C123  C     C_R   0.166893 0.209260 0.206826 -0.100002
C124  C     C_R   0.229627 0.165004 0.231698 -0.111872
C125  C     C_R   0.338159 0.182293 0.211931 -0.126921
C126  C     C_R   0.386614 0.249231 0.168421 -0.119815
H47   H     H_    0.167318 0.311679 0.144580 0.119882
H48   H     H_    0.084771 0.198069 0.223224 0.097748
H49   H     H_    0.194303 0.118604 0.266457 0.117184
H50   H     H_    0.386737 0.147663 0.231207 0.121735
H51   H     H_    0.475225 0.269886 0.155488 0.113117
C127  C     C_R   0.002920 0.692570 0.367828 0.026906
C128  C     C_R   0.888547 0.648429 0.348309 -0.109016
C129  C     C_R   0.870731 0.716442 0.313929 -0.137834
C130  C     C_R   0.967560 0.827147 0.298898 -0.116528
C131  C     C_R   0.082324 0.865986 0.315589 -0.084538
C132  C     C_R   0.098265 0.802753 0.352879 -0.066311
H52   H     H_    0.814803 0.560381 0.358642 0.113527
H53   H     H_    0.782908 0.681511 0.298258 0.109889
H54   H     H_    0.954811 0.884001 0.274657 0.093809
H55   H     H_    0.158441 0.946333 0.300582 0.109333
H56   H     H_    0.185507 0.833265 0.367863 0.131553
C133  C     C_R   0.685546 0.972483 0.127480 0.066665
C134  C     C_R   0.721281 0.889944 0.115224 -0.082964
C135  C     C_R   0.843021 0.926532 0.115687 -0.137765
C136  C     C_R   0.925918 0.040363 0.132977 -0.139404
C137  C     C_R   0.886081 0.113267 0.153754 -0.149421
C138  C     C_R   0.766022 0.080366 0.150460 -0.083313
H57   H     H_    0.659568 0.808005 0.096535 0.118774
H58   H     H_    0.874093 0.869806 0.100107 0.113175
H59   H     H_    0.020605 0.070824 0.130669 0.114481
H60   H     H_    0.948079 0.197016 0.170848 0.103465
H61   H     H_    0.738764 0.143949 0.161246 0.103010
C139  C     C_R   0.278790 0.321282 0.376530 0.048530
C140  C     C_R   0.289920 0.219622 0.374429 -0.110097
C141  C     C_R   0.187055 0.106526 0.373037 -0.147139
C142  C     C_R   0.073907 0.093102 0.369384 -0.124058
C143  C     C_R   0.063021 0.193886 0.368832 -0.126969
C144  C     C_R   0.164941 0.307943 0.373517 -0.060050
H62   H     H_    0.376449 0.227301 0.379804 0.112196
H63   H     H_    0.193814 0.028980 0.378468 0.093415
H64   H     H_    0.994289 0.004787 0.369455 0.127239
H65   H     H_    0.974189 0.180401 0.368953 0.116890
H66   H     H_    0.156373 0.384835 0.380628 0.143776
C145  C     C_R   0.638348 0.949675 0.632718 0.029476
C146  C     C_R   0.558127 0.827793 0.642756 -0.103406
C147  C     C_R   0.595036 0.761937 0.670196 -0.099556
C148  C     C_R   0.712152 0.817008 0.687473 -0.096622
C149  C     C_R   0.791142 0.938863 0.678880 -0.124843
C150  C     C_R   0.755158 0.005178 0.651080 -0.076279
H67   H     H_    0.467296 0.783808 0.629075 0.099246
H68   H     H_    0.532959 0.668392 0.678075 0.113243
H69   H     H_    0.741661 0.765596 0.707765 0.130803
H70   H     H_    0.879822 0.981587 0.694087 0.080107
H71   H     H_    0.817898 0.098809 0.644118 0.108331
C151  C     C_R   0.040723 0.693246 0.862800 0.046966
C152  C     C_R   0.989723 0.766372 0.862588 -0.084140
C153  C     C_R   0.049140 0.877089 0.838530 -0.137548
C154  C     C_R   0.158896 0.915104 0.813803 -0.107659
C155  C     C_R   0.208308 0.841090 0.812207 -0.093964
C156  C     C_R   0.149582 0.730538 0.836661 -0.092191
H72   H     H_    0.908235 0.741728 0.883412 0.086783
H73   H     H_    0.011337 0.934471 0.840461 0.097688
H74   H     H_    0.206085 0.002274 0.796259 0.111546
H75   H     H_    0.293252 0.870368 0.792906 0.122646
H76   H     H_    0.191240 0.676168 0.836806 0.085860
C157  C     C_R   0.310264 0.357581 0.640678 0.042042
C158  C     C_R   0.270172 0.426823 0.665618 -0.097700
C159  C     C_R   0.159254 0.370980 0.691038 -0.094072
C160  C     C_R   0.087889 0.246041 0.691430 -0.104717
C161  C     C_R   0.128930 0.177078 0.667596 -0.135865
C162  C     C_R   0.239665 0.232356 0.642429 -0.079581
H77   H     H_    0.322344 0.523681 0.663745 0.086730
H78   H     H_    0.127647 0.424565 0.709564 0.123354
H79   H     H_    0.000447 0.202655 0.709798 0.109052
H80   H     H_    0.073980 0.080915 0.667175 0.093184
H81   H     H_    0.267013 0.177867 0.622092 0.092777
C163  C     C_R   0.640600 0.953723 0.862028 0.031849
C164  C     C_R   0.758601 0.017087 0.842715 -0.075811
C165  C     C_R   0.805908 0.956796 0.816251 -0.131358
C166  C     C_R   0.737081 0.832784 0.810174 -0.099108
C167  C     C_R   0.618358 0.769759 0.828142 -0.102564
C168  C     C_R   0.570230 0.829864 0.854071 -0.105334
H82   H     H_    0.813773 0.112249 0.848270 0.119924
H83   H     H_    0.896048 0.006024 0.800691 0.081111
H84   H     H_    0.775757 0.785842 0.791409 0.125124
H85   H     H_    0.563500 0.674397 0.822318 0.126264
H86   H     H_    0.478831 0.779653 0.868739 0.101459
C169  C     C_R   0.051904 0.688439 0.635287 0.029621
C170  C     C_R   0.173914 0.735977 0.645493 -0.104947
C171  C     C_R   0.235336 0.840555 0.673275 -0.107638
C172  C     C_R   0.175491 0.898430 0.690813 -0.097514
C173  C     C_R   0.052987 0.849103 0.682289 -0.124494
C174  C     C_R   0.991581 0.745382 0.653948 -0.075221
H87   H     H_    0.221489 0.692478 0.631586 0.102016
H88   H     H_    0.329128 0.876303 0.681195 0.119126
H89   H     H_    0.223704 0.980897 0.711323 0.131555
H90   H     H_    0.005450 0.890923 0.697693 0.083172
H91   H     H_    0.897656 0.709707 0.646911 0.112634
C175  C     C_R   0.312972 0.356115 0.871483 0.029203
C176  C     C_R   0.251047 0.241510 0.850635 -0.076311
C177  C     C_R   0.150741 0.208695 0.821675 -0.122658
C178  C     C_R   0.110311 0.288760 0.814443 -0.104623
C179  C     C_R   0.173179 0.403848 0.834252 -0.107248
C180  C     C_R   0.273934 0.437476 0.862889 -0.101026
H92   H     H_    0.281184 0.178797 0.856059 0.107864
H93   H     H_    0.105266 0.122019 0.804222 0.081669
H94   H     H_    0.031106 0.262104 0.793025 0.127719
H95   H     H_    0.144228 0.467120 0.827222 0.109422
H96   H     H_    0.322068 0.527089 0.878130 0.101197

loop_
_geom_bond_atom_site_label_1
_geom_bond_atom_site_label_2
_geom_bond_distance
_ccdc_geom_bond_type
C147  H68   1.079692 S    
C2    C59   1.472687 S    
C173  C174  1.395664 A    
C169  C174  1.401902 A    
C149  H70   1.076990 S    
C112  C113  1.398229 A    
C78   H21   1.078341 S    
C144  H66   1.072579 S    
O9    Cr6   2.059207 S    
C100  C107  1.390338 A    
O21   C9    1.305508 A    
C37   C56   1.412064 A    
C109  C114  1.400538 A    
C146  C147  1.394969 A    
C51   C84   1.397248 A    
C118  H44   1.076840 S    
C76   H23   1.078836 S    
C116  H42   1.083362 S    
C91   C98   1.399018 A    
C135  C136  1.394971 A    
C123  H48   1.078884 S    
C10   C51   1.485125 S    
C50   C79   1.393431 A    
C121  C122  1.397566 A    
C147  C148  1.394282 A    
C41   C163  1.479384 S    
O7    C9    1.300049 A    
C174  H91   1.077077 S    
O16   Cr1   1.949870 S    
C33   H6    1.079583 S    
C118  C119  1.392934 A    
C93   C102  1.400360 A    
O18   Cr3   1.950485 S    
C45   C139  1.470498 S    
C45   C69   1.412748 A    
C81   H18   1.079611 S    
C178  C179  1.394717 A    
C18   C21   1.409263 A    
C157  C162  1.400777 A    
C92   C97   1.399543 A    
O23   Cr5   1.934517 S    
C159  H78   1.082484 S    
O15   C3    1.304338 A    
C43   C50   1.413403 A    
O14   C2    1.307809 A    
O5    C1    1.287686 A    
C121  C126  1.407547 A    
C175  C176  1.400498 A    
C177  C178  1.395543 A    
C168  H86   1.083641 S    
C56   C73   1.406965 A    
C39   C175  1.474948 S    
C135  H58   1.079509 S    
C83   H16   1.070311 S    
C16   C64   1.417675 A    
C29   C34   1.384882 A    
C137  H60   1.075681 S    
C39   C60   1.416723 A    
C18   C90   1.403126 A    
C13   C20   1.408493 A    
C14   C19   1.407740 A    
C132  H56   1.074680 S    
C41   C58   1.403584 A    
C5    C56   1.479753 S    
C15   C87   1.405770 A    
C151  C156  1.405377 A    
C31   H2    1.082742 S    
C60   C75   1.401685 A    
C13   C85   1.403026 A    
O11   Cr5   2.071676 S    
C34   H5    1.072665 S    
C12   C49   1.493007 S    
C25   C61   1.405017 A    
C129  C130  1.395702 A    
C145  C150  1.401493 A    
C52   C83   1.390456 A    
C94   C101  1.401318 A    
C136  H59   1.077385 S    
C54   C81   1.404845 A    
C145  C146  1.404201 A    
C79   H14   1.071337 S    
C177  H93   1.077891 S    
C164  H82   1.076837 S    
O24   Cr6   1.947838 S    
C117  C118  1.394317 A    
O6    Cr3   2.027041 S    
C96   C99   1.397306 A    
C41   C65   1.409764 A    
C14   C62   1.414924 A    
C17   C89   1.403552 A    
C110  C111  1.388510 A    
C43   C67   1.412435 A    
C38   C145  1.476046 S    
O24   C12   1.305976 A    
C161  H80   1.076024 S    
C134  H57   1.079996 S    
C158  H77   1.082501 S    
O20   Cr5   1.955293 S    
O5    Cr2   2.032647 S    
C127  C132  1.384239 A    
C55   C74   1.402124 A    
C44   C109  1.464632 S    
C46   C133  1.465356 S    
C143  C144  1.399787 A    
C154  C155  1.396582 A    
O3    C5    1.289599 A    
C78   C90   1.384796 A    
C39   C63   1.425642 A    
C167  H85   1.079688 S    
C48   C72   1.414360 A    
C75   C87   1.384593 A    
C73   C85   1.379616 A    
C140  C141  1.391274 A    
C101  C106  1.393903 A    
C49   C80   1.400094 A    
C128  H52   1.083748 S    
C80   H13   1.070015 S    
C46   C53   1.412750 A    
C48   C51   1.412354 A    
C21   C69   1.405275 A    
O12   Cr6   2.037018 S    
C148  H69   1.078815 S    
O22   C10   1.295944 A    
C26   C62   1.410503 A    
C146  H67   1.083502 S    
C24   C96   1.413742 A    
C167  C168  1.394815 A    
C29   C65   1.395964 A    
C150  H71   1.077596 S    
C90   C105  1.402745 A    
C28   C64   1.407672 A    
C35   C71   1.406262 A    
C79   C91   1.392964 A    
C143  H65   1.068903 S    
C133  C134  1.398619 A    
C98   H26   1.073198 S    
C15   C63   1.414813 A    
C166  C167  1.396645 A    
C171  C172  1.396617 A    
O8    C10   1.287644 A    
C99   H27   1.081288 S    
C42   C157  1.478534 S    
C117  H43   1.082480 S    
C6    C55   1.480567 S    
C115  C120  1.391487 A    
O22   Cr4   1.916332 S    
C165  H83   1.079054 S    
C139  C144  1.394712 A    
Cr4   O26   1.998186 S    
C111  H38   1.076977 S    
O20   C8    1.308064 A    
C82   H17   1.077130 S    
O14   Cr2   1.919164 S    
C152  H72   1.076251 S    
C86   C103  1.397179 A    
C98   C103  1.383948 A    
C3    C58   1.472954 S    
C89   C106  1.402161 A    
C75   H24   1.077418 S    
Cr6   O26   2.012381 S    
C113  H40   1.081976 S    
C180  H96   1.083639 S    
C125  H50   1.082473 S    
C97   H25   1.084004 S    
C124  H49   1.076977 S    
C155  C156  1.396838 A    
C84   C96   1.392154 A    
C48   C121  1.479066 S    
O6    C2    1.288602 A    
C22   C70   1.408060 A    
C175  C180  1.403933 A    
C26   H7    1.082725 S    
C163  C164  1.401743 A    
C165  C166  1.396395 A    
C27   C36   1.405737 A    
C153  H73   1.077922 S    
C30   C33   1.386553 A    
C20   C92   1.409266 A    
C11   C50   1.494341 S    
C122  H47   1.076107 S    
C47   C71   1.401487 A    
O17   C5    1.312763 A    
O4    Cr1   2.051223 S    
O19   C7    1.298028 A    
C136  C137  1.394243 A    
C87   C108  1.399890 A    
C113  C114  1.391918 A    
C14   C86   1.404842 A    
C47   C52   1.403608 A    
C129  H53   1.080429 S    
C120  H46   1.078476 S    
C28   H11   1.082566 S    
C119  H45   1.069578 S    
C172  C173  1.396578 A    
C142  H64   1.081808 S    
C30   H9    1.080655 S    
O1    Cr1   2.058826 S    
C8    C53   1.492532 S    
C148  C149  1.394746 A    
O3    Cr3   2.065584 S    
C114  H41   1.083272 S    
C126  H51   1.083524 S    
C142  C143  1.383518 A    
O10   Cr4   2.075373 S    
C110  H37   1.076859 S    
C36   C72   1.406322 A    
C29   H10   1.082920 S    
C161  C162  1.392694 A    
C73   H20   1.078205 S    
C74   H19   1.079578 S    
C162  H81   1.078290 S    
C101  H29   1.083847 S    
C107  H35   1.081439 S    
C80   C92   1.388203 A    
C154  H74   1.080428 S    
C32   C68   1.409942 A    
C156  H76   1.082635 S    
C124  C125  1.395110 A    
C81   C93   1.394336 A    
C179  H95   1.080049 S    
C59   C76   1.404800 A    
C140  H62   1.083542 S    
C40   C59   1.410049 A    
C151  C152  1.402804 A    
C74   C86   1.378023 A    
C102  C105  1.392258 A    
C128  C129  1.386216 A    
C130  C131  1.386298 A    
C130  H54   1.065383 S    
C170  H87   1.083584 S    
O8    Cr5   2.044620 S    
C40   C169  1.477263 S    
C99   C108  1.388395 A    
O23   C11   1.303177 A    
C46   C70   1.423333 A    
C141  C142  1.386793 A    
C25   H8    1.078550 S    
C43   C115  1.468227 S    
C7    C54   1.486131 S    
O2    Cr2   2.078622 S    
C30   C66   1.404206 A    
C37   C61   1.421784 A    
C44   C68   1.416339 A    
C171  H88   1.080376 S    
C57   C78   1.407310 A    
C159  C160  1.397816 A    
C173  H90   1.079870 S    
C119  C120  1.390874 A    
C42   C57   1.408692 A    
C32   H1    1.078464 S    
C24   C72   1.412369 A    
C178  H94   1.079295 S    
C77   H22   1.078659 S    
C133  C138  1.399098 A    
C139  C140  1.396967 A    
C17   C65   1.414948 A    
C116  C117  1.397309 A    
C19   C67   1.409239 A    
C111  C112  1.389075 A    
C40   C64   1.416470 A    
C160  C161  1.396288 A    
C109  C110  1.393871 A    
C23   C95   1.414403 A    
O9    C11   1.298686 A    
C88   C107  1.401088 A    
O10   C12   1.296985 A    
Cr2   O25   1.999016 S    
C53   C82   1.400023 A    
C15   C24   1.409617 A    
O16   C4    1.301299 A    
C16   C23   1.403753 A    
C33   C69   1.410188 A    
C125  C126  1.397593 A    
C37   C151  1.482741 S    
C123  C124  1.393317 A    
C42   C66   1.417780 A    
C155  H75   1.082343 S    
C176  C177  1.396998 A    
O17   Cr2   1.964365 S    
C13   C61   1.417568 A    
C20   C68   1.407449 A    
O19   Cr4   1.962937 S    
O7    Cr4   2.026051 S    
C100  H28   1.081717 S    
C131  H55   1.077907 S    
C163  C168  1.403141 A    
C138  H61   1.083574 S    
C31   C67   1.407414 A    
C35   H4    1.082933 S    
C85   C104  1.401608 A    
C84   H15   1.082903 S    
C38   C62   1.423401 A    
C169  C170  1.402988 A    
C122  C123  1.399431 A    
C160  H79   1.081370 S    
C1    C60   1.487567 S    
O13   Cr1   1.937238 S    
C17   C22   1.410197 A    
O18   C6    1.304400 A    
C157  C158  1.404442 A    
C58   C77   1.409477 A    
C97   C104  1.388380 A    
C27   H12   1.082661 S    
C22   C94   1.409232 A    
Cr5   O26   1.991369 S    
C16   C88   1.402772 A    
O11   C7    1.290585 A    
O12   C8    1.298795 A    
O13   C1    1.300462 A    
C45   C54   1.414132 A    
C83   C95   1.395955 A    
C18   C66   1.417834 A    
C36   H3    1.083222 S    
C103  H31   1.084252 S    
C27   C63   1.412240 A    
C172  H89   1.079726 S    
O15   Cr3   1.917793 S    
C38   C55   1.415465 A    
C158  C159  1.397667 A    
C131  C132  1.386569 A    
C44   C49   1.415322 A    
C166  H84   1.080772 S    
C115  C116  1.407428 A    
C34   C70   1.416014 A    
C28   C35   1.394935 A    
C95   C100  1.397701 A    
C9    C52   1.493434 S    
C47   C127  1.448095 S    
C153  C154  1.395481 A    
C21   C93   1.410530 A    
C137  C138  1.388201 A    
C19   C91   1.411977 A    
C106  H34   1.082899 S    
C23   C71   1.403978 A    
C102  H30   1.084012 S    
C152  C153  1.393600 A    
C176  H92   1.077235 S    
C179  C180  1.394751 A    
C82   C94   1.394673 A    
C4    C57   1.475695 S    
C76   C88   1.381032 A    
O21   Cr6   1.921997 S    
Cr3   O25   2.012091 S    
C149  C150  1.397068 A    
C25   C32   1.389949 A    
C26   C31   1.402569 A    
C170  C171  1.394903 A    
C104  H32   1.083897 S    
C105  H33   1.083115 S    
C141  H63   1.063944 S    
C134  C135  1.392573 A    
C112  H39   1.076742 S    
Cr1   O25   1.990831 S    
C108  H36   1.080365 S    
C127  C128  1.399510 A    
O1    C3    1.279973 A    
O2    C4    1.278421 A    
C77   C89   1.388745 A    
C164  C165  1.396228 A    
O4    C6    1.288846 A    
