data_mof_unit_44814.cif
_audit_creation_date              2012-12-11T14:23:11-0500
_audit_creation_method            fapswitch 2.2
_symmetry_space_group_name_H-M    P1
_symmetry_Int_Tables_number       1
_space_group_crystal_system       triclinic
_cell_length_a                    11.150263
_cell_length_b                    10.970998
_cell_length_c                    18.788346
_cell_angle_alpha                 89.601431
_cell_angle_beta                  89.633723
_cell_angle_gamma                 59.888908
_cell_volume                      1988.15491118

loop_
_atom_site_label
_atom_site_type_symbol
_atom_type_description
_atom_site_fract_x
_atom_site_fract_y
_atom_site_fract_z
_atom_type_partial_charge
C1    C     C_R   0.237214 0.644907 0.610298 0.565416
C2    C     C_R   0.544997 0.222347 0.721643 -0.172930
C3    C     C_R   0.560494 0.217955 0.793932 -0.176111
C4    C     C_R   0.630895 0.588666 0.608949 0.575797
C5    C     C_R   0.931981 0.113876 0.805377 -0.152640
C6    C     C_R   0.036773 0.095397 0.758186 -0.166810
C7    C     C_R   0.023843 0.087750 0.684933 0.288799
C8    C     C_R   0.909696 0.081538 0.659623 0.281448
C9    C     C_R   0.658847 0.178448 0.676042 -0.016474
C10   C     C_R   0.187373 0.662628 0.836502 -0.008391
C11   C     C_R   0.195028 0.546802 0.800337 -0.020140
C12   C     C_3   0.758863 0.498195 0.802044 -0.290310
C13   C     C_R   0.186747 0.548559 0.724973 0.017576
C14   C     C_R   0.202368 0.761098 0.724996 -0.158347
C15   C     C_R   0.200495 0.763492 0.798173 -0.159186
C16   C     C_R   0.625641 0.230123 0.603022 0.544829
C17   C     C_R   0.207307 0.431071 0.838759 -0.084843
C18   C     C_R   0.181382 0.332148 0.806863 0.256352
C19   C     C_R   0.163039 0.339517 0.733196 -0.154803
C20   C     C_R   0.168689 0.443544 0.692336 -0.165455
C21   C     C_R   0.195978 0.655986 0.686343 0.024163
C22   C     C_R   0.730789 0.699981 0.182033 -0.006064
C23   C     C_3   0.692348 0.659223 0.816512 0.027155
C24   C     C_R   0.799400 0.561887 0.212192 -0.006225
C25   C     C_R   0.740808 0.539635 0.272247 0.007674
C26   C     C_R   0.624649 0.791027 0.296898 -0.141545
C27   C     C_R   0.650385 0.814553 0.226486 -0.173876
C28   C     C_R   0.285164 0.624345 0.392151 0.572238
C29   C     C_R   0.918766 0.443502 0.182761 -0.051486
C30   C     C_R   0.956074 0.305969 0.201238 0.319814
C31   C     C_R   0.882007 0.287016 0.254434 -0.061622
C32   C     C_R   0.768767 0.401638 0.285574 -0.133544
C33   C     C_R   0.662599 0.653977 0.318724 0.021312
C34   C     C_3   0.653096 0.616635 0.683341 0.018044
C35   C     C_R   0.662530 0.137838 0.180615 0.009235
C36   C     C_R   0.531443 0.199495 0.212772 -0.007430
C37   C     C_R   0.524787 0.179295 0.285772 -0.013490
C38   C     C_R   0.771031 0.080525 0.297698 -0.182148
C39   C     C_R   0.782211 0.069552 0.223866 -0.157812
C40   C     C_R   0.641337 0.622030 0.391725 0.546755
C41   C     C_R   0.407778 0.269100 0.173847 -0.152683
C42   C     C_R   0.283641 0.297684 0.205080 -0.060782
C43   C     C_R   0.277135 0.261270 0.275699 0.299707
C44   C     C_R   0.401743 0.190546 0.313642 -0.087938
C45   C     C_3   0.731426 0.701275 0.686778 0.112255
C46   C     C_R   0.641428 0.150409 0.328399 0.006465
C47   C     C_R   0.171167 0.653399 0.176402 -0.000506
C48   C     C_R   0.269977 0.691115 0.194517 -0.011972
C49   C     C_R   0.283079 0.716012 0.266736 0.004130
C50   C     C_R   0.146105 0.606056 0.298448 -0.136618
C51   C     C_R   0.106559 0.616501 0.228782 -0.155197
C52   C     C_R   0.617684 0.222453 0.397329 0.536351
C53   C     C_R   0.331793 0.732630 0.141119 -0.103860
C54   C     C_R   0.366756 0.834031 0.155807 -0.132681
C55   C     C_R   0.351443 0.884786 0.224333 -0.058829
C56   C     C_3   0.733855 0.473876 0.724349 -0.268520
C57   C     C_R   0.318021 0.822851 0.280760 0.282127
C58   C     C_R   0.239208 0.649044 0.318408 -0.003272
C59   C     C_R   0.703545 0.102069 0.896065 0.537849
C60   C     C_R   0.720439 0.683716 0.890459 0.572932
C61   C     C_R   0.120771 0.704220 0.906778 0.543207
C62   C     C_R   0.678124 0.101072 0.105470 0.524769
C63   C     C_R   0.738183 0.718066 0.104643 0.568369
C64   C     C_3   0.533793 0.726940 0.800451 0.142949
C65   C     C_R   0.096768 0.705777 0.110702 0.528730
C66   C     C_3   0.511926 0.703245 0.721359 -0.254554
C67   C     C_R   0.690899 0.162731 0.824321 0.001299
C68   C     C_3   0.766463 0.712866 0.765104 -0.200152
C69   C     C_3   0.440721 0.975031 0.783624 -0.056154
C70   C     C_3   0.090781 0.160092 0.584361 -0.079406
C71   C     C_3   0.152446 0.246189 0.917079 -0.134722
C72   C     C_3   0.058332 0.188516 0.097980 -0.118809
C73   C     C_3   0.140049 0.308615 0.378680 -0.153097
C74   C     C_3   0.157947 0.992093 0.351245 -0.090823
C75   C     C_R   0.806109 0.132298 0.779388 -0.019047
C76   C     C_R   0.791998 0.127028 0.704462 -0.036041
Cr1   Cr    Cr6+3 0.392940 0.397950 0.502230 0.975813
Cr2   Cr    Cr6+3 0.398400 0.708500 0.501260 1.068385
Cr3   Cr    Cr6+3 0.708640 0.393530 0.496460 0.993883
Cr4   Cr    Cr6+3 0.937880 0.938320 0.007620 0.983304
Cr5   Cr    Cr6+3 0.625560 0.937220 0.994510 1.019462
Cr6   Cr    Cr6+3 0.938080 0.625010 0.001190 0.951969
H1    H     H_    0.834739 0.401355 0.698617 0.137279
H2    H     H_    0.204992 0.847867 0.825081 0.178526
H3    H     H_    0.146330 0.262584 0.706976 0.150895
H4    H     H_    0.151919 0.443325 0.635877 0.158047
H5    H     H_    0.567536 0.879280 0.332334 0.142089
H6    H     H_    0.984976 0.456585 0.145758 0.135227
H7    H     H_    0.604885 0.920654 0.206196 0.137675
H8    H     H_    0.917625 0.182829 0.273045 0.109589
H9    H     H_    0.460074 0.639750 0.719205 0.091636
H10   H     H_    0.704419 0.383275 0.320858 0.164938
H11   H     H_    0.861784 0.040000 0.330786 0.109588
H12   H     H_    0.880569 0.647744 0.773134 0.156827
H13   H     H_    0.405836 0.301492 0.119121 0.133962
H14   H     H_    0.885051 0.010243 0.200898 0.168228
H15   H     H_    0.193034 0.348531 0.173077 0.134284
H16   H     H_    0.403476 0.143445 0.364546 0.139443
H17   H     H_    0.094730 0.575427 0.337561 0.158667
H18   H     H_    0.334423 0.702195 0.086122 0.129723
H19   H     H_    0.019977 0.603352 0.216555 0.130775
H20   H     H_    0.445784 0.803318 0.692542 0.150819
H21   H     H_    0.394395 0.881696 0.113128 0.154342
H22   H     H_    0.365525 0.973803 0.234165 0.146268
H23   H     H_    0.441087 0.265665 0.701535 0.163523
H24   H     H_    0.742273 0.821550 0.777808 0.113969
H25   H     H_    0.662098 0.808542 0.665176 0.161829
H26   H     H_    0.872676 0.441775 0.811576 0.174944
H27   H     H_    0.714598 0.450589 0.838682 0.115949
H28   H     H_    0.672358 0.419659 0.723801 0.126539
H29   H     H_    0.530445 0.946045 0.749362 0.075111
H30   H     H_    0.431665 0.059099 0.818949 0.203647
H31   H     H_    0.348271 0.018511 0.749144 0.146028
H32   H     H_    0.909603 0.543786 0.657879 0.333228
H33   H     H_    0.009164 0.268108 0.600304 0.104563
H34   H     H_    0.948438 0.123138 0.861098 0.168203
H35   H     H_    0.054570 0.122639 0.539110 0.178019
H36   H     H_    0.180936 0.167913 0.565059 0.099590
H37   H     H_    0.854568 0.986489 0.591837 0.325176
H38   H     H_    0.063329 0.352990 0.927841 0.150127
H39   H     H_    0.246540 0.227377 0.946351 0.115791
H40   H     H_    0.123852 0.169086 0.937572 0.120007
H41   H     H_    0.085457 0.263273 0.072630 0.078440
H42   H     H_    0.953113 0.212062 0.081173 0.131342
H43   H     H_    0.133331 0.081704 0.078179 0.141477
H44   H     H_    0.029322 0.363235 0.394707 0.159491
H45   H     H_    0.470088 0.249913 0.826770 0.136747
H46   H     H_    0.185572 0.370884 0.398671 0.155960
H47   H     H_    0.191989 0.204233 0.405046 0.091510
H48   H     H_    0.135634 0.079357 0.314217 0.183349
H49   H     H_    0.136067 0.032418 0.406494 0.128775
H50   H     H_    0.087715 0.950223 0.340309 0.115893
H51   H     H_    0.133402 0.076767 0.778806 0.196608
H52   H     H_    0.222354 0.836085 0.698881 0.196210
H53   H     H_    0.499466 0.663171 0.831723 0.136732
H54   H     H_    0.239787 0.417097 0.893686 0.111661
O1    O     O_R   0.507340 0.255690 0.581430 -0.530563
O2    O     O_R   0.837290 0.593240 0.915240 -0.551317
O3    O     O_R   0.065320 0.635310 0.931580 -0.517020
O4    O     O_R   0.280360 0.527380 0.578910 -0.517529
O5    O     O_R   0.068470 0.828620 0.091850 -0.516666
O6    O     O_R   0.799150 0.057200 0.079350 -0.514462
O7    O     O_R   0.585220 0.080180 0.076770 -0.538833
O8    O     O_R   0.627170 0.809480 0.067050 -0.508221
O9    O     O_R   0.816200 0.596410 0.076500 -0.549671
O10   O     O_R   0.045770 0.638240 0.081070 -0.550711
O11   O     O_3   0.833840 0.833520 0.001110 -0.270518
O12   O     O_R   0.524510 0.695820 0.424050 -0.466299
O13   O     O_R   0.260600 0.739610 0.584580 -0.481687
O14   O     O_R   0.532370 0.695050 0.573830 -0.504572
O15   O     O_R   0.744850 0.503430 0.576380 -0.500902
O16   O     O_R   0.699080 0.276500 0.571950 -0.487480
O17   O     O_R   0.498860 0.256520 0.419860 -0.542992
O18   O     O_R   0.272490 0.528150 0.429140 -0.526166
O19   O     O_R   0.252110 0.740440 0.423010 -0.457365
O20   O     O_3   0.447794 0.866003 0.826873 -0.560915
O21   O     O_3   0.851340 0.643790 0.644137 -0.687438
O22   O     O_3   0.135049 0.062526 0.641409 -0.585338
O23   O     O_R   0.736370 0.504260 0.414810 -0.535168
O24   O     O_3   0.919453 0.023408 0.593359 -0.673673
O25   O     O_3   0.181057 0.221830 0.843677 -0.613601
O26   O     O_3   0.070485 0.188947 0.172670 -0.578216
O27   O     O_3   0.147972 0.295885 0.303709 -0.580327
O28   O     O_3   0.298516 0.886695 0.345862 -0.548575
O29   O     O_R   0.691220 0.277270 0.422180 -0.516328
O30   O     O_3   0.499990 0.499990 0.499980 -0.302925
O31   O     O_R   0.089570 0.825450 0.930590 -0.521739
O32   O     O_R   0.818700 0.054260 0.929860 -0.512346
O33   O     O_R   0.606310 0.077010 0.915520 -0.523684
O34   O     O_R   0.646730 0.806540 0.917560 -0.439230

loop_
_geom_bond_atom_site_label_1
_geom_bond_atom_site_label_2
_ccdc_geom_bond_type
C34   C56   S    
C74   H50   S    
C11   C13   A    
C41   C42   A    
C66   H20   S    
C71   H40   S    
C19   C20   A    
Cr1   O4    S    
C62   O7    A    
C75   C76   A    
C34   C66   S    
Cr6   O11   S    
C7    C8    A    
C7    O22   S    
C32   H10   S    
C53   C54   A    
C73   O27   S    
C1    C21   S    
C12   C23   S    
C69   H31   S    
C26   C27   A    
C29   C30   A    
C71   H38   S    
C14   C21   A    
C47   C65   S    
C36   C37   A    
C9    C16   S    
Cr1   O1    S    
C6    H51   S    
C10   C15   A    
Cr3   O23   S    
C5    C6    A    
C52   O29   A    
C69   H30   S    
C3    H45   S    
Cr2   O19   S    
C70   H35   S    
C73   H44   S    
C46   C52   S    
C8    C76   A    
C49   C57   A    
C18   C19   A    
C66   H9    S    
C24   C29   A    
C29   H6    S    
C40   O23   A    
C59   C67   S    
C22   C63   S    
C44   H16   S    
Cr4   O11   S    
C16   O1    A    
C26   H5    S    
Cr5   O11   S    
C20   H4    S    
C28   O19   A    
C63   O8    A    
C1    O13   A    
C9    C76   A    
Cr5   O33   S    
C35   C62   S    
Cr4   O31   S    
C37   C46   A    
Cr2   O12   S    
Cr1   O17   S    
C25   C32   A    
C64   H53   S    
C74   H49   S    
C72   H42   S    
C28   O18   A    
C36   C41   A    
C48   C53   A    
C68   H24   S    
C62   O6    A    
C56   H28   S    
C12   H27   S    
Cr6   O10   S    
C50   C51   A    
C6    C7    A    
C73   H47   S    
Cr5   O8    S    
C53   H18   S    
C23   C60   S    
C4    C34   S    
Cr2   O30   S    
C69   O20   S    
C40   O12   A    
C33   C40   S    
C23   C64   S    
C54   H21   S    
C45   O21   S    
C24   C25   A    
C42   H15   S    
C12   H26   S    
H37   O24   S    
C47   C51   A    
C14   H52   S    
Cr1   O30   S    
C55   H22   S    
C68   H12   S    
C49   C58   A    
C70   O22   S    
C35   C36   A    
C50   C58   A    
C23   C68   S    
C5    C75   A    
C35   C39   A    
C43   C44   A    
H32   O21   S    
Cr6   O3    S    
Cr1   O18   S    
C65   O5    A    
C26   C33   A    
C47   C48   A    
C30   C31   A    
C31   H8    S    
C45   C68   S    
C17   C18   A    
C50   H17   S    
C13   C21   A    
C16   O16   A    
C34   C45   S    
Cr5   O34   S    
Cr3   O29   S    
C12   C56   S    
C1    O4    A    
C48   C49   A    
Cr4   O6    S    
C22   C27   A    
C55   C57   A    
C5    H34   S    
C22   C24   A    
C10   C61   S    
C67   C75   A    
C42   C43   A    
C30   O26   S    
C8    O24   S    
Cr6   O9    S    
Cr2   O14   S    
C56   H1    S    
Cr3   O15   S    
C4    O15   A    
C54   C55   A    
C11   C17   A    
C71   O25   S    
C13   C20   A    
C38   C39   A    
C71   H39   S    
C31   C32   A    
C61   O3    A    
C19   H3    S    
C15   H2    S    
C28   C58   S    
C70   H33   S    
C51   H19   S    
C73   H46   S    
C4    O14   A    
C64   O20   S    
C2    H23   S    
C72   H43   S    
C60   O34   A    
C37   C44   A    
C74   H48   S    
C2    C3    A    
C52   O17   A    
C72   H41   S    
C74   O28   S    
C69   H29   S    
C41   H13   S    
C57   O28   S    
C3    C67   A    
C70   H36   S    
C38   H11   S    
C18   O25   S    
Cr4   O32   S    
C27   H7    S    
C17   H54   S    
Cr3   O30   S    
C39   H14   S    
C38   C46   A    
C10   C11   A    
C43   O27   S    
Cr5   O7    S    
Cr6   O2    S    
Cr4   O5    S    
C25   C33   A    
C72   O26   S    
C14   C15   A    
C61   O31   A    
C65   O10   A    
C59   O33   A    
C2    C9    A    
C63   O9    A    
C59   O32   A    
C45   H25   S    
Cr2   O13   S    
C64   C66   S    
Cr3   O16   S    
C60   O2    A    
