data_mof_unit_40034.cif
_audit_creation_date              2012-10-26T19:20:56-0400
_audit_creation_method            fapswitch 2.2
_symmetry_space_group_name_H-M    P1
_symmetry_Int_Tables_number       1
_space_group_crystal_system       triclinic
_cell_length_a                    9.850487
_cell_length_b                    10.939236
_cell_length_c                    13.440091
_cell_angle_alpha                 95.299544
_cell_angle_beta                  81.852627
_cell_angle_gamma                 110.432349
_cell_volume                      1342.00937936

loop_
_atom_site_label
_atom_site_type_symbol
_atom_type_description
_atom_site_fract_x
_atom_site_fract_y
_atom_site_fract_z
_atom_type_partial_charge
C1    C     C_R   0.556908 0.745731 0.503228 0.595242
C2    C     C_R   0.375128 0.437002 0.795340 -0.016644
C3    C     C_2   0.586877 0.885537 0.497516 -0.049075
C4    C     C_R   0.421552 0.474248 0.689011 0.542845
C5    C     C_2   0.512735 0.929695 0.441038 0.215753
C6    C     C_2   0.422137 0.113917 0.475857 0.081838
C7    C     C_2   0.535662 0.070793 0.446358 0.193076
C8    C     C_2   0.927308 0.499680 0.483782 0.376713
C9    C     C_2   0.078198 0.515308 0.506239 0.186750
C10   C     C_R   0.446339 0.254195 0.488726 0.582916
C11   C     C_R   0.578362 0.516521 0.309929 0.565684
C12   C     C_R   0.435365 0.437941 0.967098 0.024043
C13   C     C_R   0.806834 0.581522 0.054419 0.123261
C14   C     C_R   0.624405 0.526856 0.200987 -0.008330
C15   C     C_R   0.226851 0.400678 0.832462 -0.087404
C16   C     C_R   0.181671 0.376175 0.933777 0.111536
C17   C     C_R   0.284352 0.400909 0.001339 -0.071732
C18   C     C_R   0.477812 0.440353 0.861890 0.024813
C19   C     C_R   0.546728 0.475331 0.032931 0.012968
C20   C     C_R   0.695872 0.517392 0.992274 0.045665
C21   C     C_R   0.730368 0.490843 0.890296 -0.094581
C22   C     C_R   0.621746 0.444921 0.827649 -0.099748
C23   C     C_R   0.514950 0.474425 0.137423 -0.140350
C24   C     C_R   0.770445 0.589560 0.159514 0.111169
Cu1   Cu    Cu3+1 0.362000 0.479240 0.482530 1.051079
Cu2   Cu    Cu3+1 0.638000 0.520760 0.517470 1.081257
H1    H     H_    0.668522 0.953350 0.541381 0.085797
H2    H     H_    0.954473 0.438209 0.345183 0.312415
H3    H     H_    0.741232 0.109529 0.397753 0.331785
H4    H     H_    0.107590 0.376795 0.403880 0.207130
H5    H     H_    0.877395 0.598208 0.610668 0.202693
H6    H     H_    0.840773 0.502147 0.858008 0.163132
H7    H     H_    0.404553 0.430853 0.171357 0.140409
H8    H     H_    0.145502 0.389535 0.782706 0.164687
H9    H     H_    0.241653 0.388728 0.079433 0.135446
H10   H     H_    0.653757 0.411817 0.752942 0.156981
H11   H     H_    0.388898 0.897433 0.334632 0.348789
I1    I     I_    0.934110 0.707078 0.251851 -0.209158
I2    I     I_    0.202704 0.986594 0.509452 -0.272527
I3    I     I_    0.159280 0.652637 0.627969 -0.252317
I4    I     I_    0.026429 0.679090 0.988051 -0.264221
I5    I     I_    0.956907 0.301140 0.985674 -0.329638
N1    N     N_2   0.845330 0.551960 0.543750 -0.303494
N2    N     N_2   0.154690 0.448120 0.456210 -0.342142
O1    O     O_R   0.426290 0.668220 0.490680 -0.407797
O2    O     O_3   0.872451 0.430113 0.398873 -0.593371
O3    O     O_3   0.674662 0.158845 0.422475 -0.646108
O4    O     O_R   0.659360 0.703290 0.520190 -0.492694
O5    O     O_R   0.326580 0.473880 0.629020 -0.482375
O6    O     O_R   0.559660 0.508940 0.658530 -0.529126
O7    O     O_R   0.340640 0.296710 0.479810 -0.497927
O8    O     O_R   0.573710 0.331780 0.509320 -0.421205
O9    O     O_R   0.440340 0.491060 0.341470 -0.506637
O10   O     O_R   0.673420 0.526120 0.370980 -0.417629
O11   O     O_3   0.420169 0.844902 0.377012 -0.639643

loop_
_geom_bond_atom_site_label_1
_geom_bond_atom_site_label_2
_ccdc_geom_bond_type
C12   C17   A    
C6    C10   S    
C24   I1    S    
Cu1   O7    S    
C1    O4    A    
C6    C7    D    
Cu2   O8    S    
C2    C18   A    
C22   H10   S    
C15   H8    S    
C2    C4    S    
C19   C20   A    
C11   O9    A    
C8    N1    D    
Cu2   O4    S    
C4    O5    A    
H2    O2    S    
C10   O8    A    
C3    C5    D    
C3    H1    S    
C18   C22   A    
C21   C22   A    
C2    C15   A    
H4    N2    S    
C1    O1    A    
C11   O10   A    
H5    N1    S    
H3    O3    S    
C10   O7    A    
Cu2   O10   S    
Cu1   N2    S    
C13   I4    S    
C11   C14   S    
C14   C23   A    
Cu1   O9    S    
Cu2   N1    S    
Cu1   O5    S    
Cu2   O6    S    
C21   H6    S    
C8    O2    S    
Cu1   O1    S    
C14   C24   A    
C15   C16   A    
H11   O11   S    
C16   I5    S    
C20   C21   A    
C12   C19   A    
C12   C18   A    
C5    C7    S    
C19   C23   A    
C16   C17   A    
C9    N2    D    
C17   H9    S    
C13   C20   A    
C23   H7    S    
Cu1   Cu2   S    
C6    I2    S    
C5    O11   S    
C9    I3    S    
C13   C24   A    
C4    O6    A    
C8    C9    S    
C1    C3    S    
C7    O3    S    
