data_mof_unit_8548.cif
_audit_creation_date              2013-03-05T15:56:34-0500
_audit_creation_method            fapswitch 2.2
_symmetry_space_group_name_H-M    P1
_symmetry_Int_Tables_number       1
_space_group_crystal_system       triclinic
_cell_length_a                    6.95588
_cell_length_b                    14.729626
_cell_length_c                    15.879357
_cell_angle_alpha                 90.569294
_cell_angle_beta                  89.232253
_cell_angle_gamma                 90.587326
_cell_volume                      1626.64974597

loop_
_atom_site_label
_atom_site_type_symbol
_atom_site_description
_atom_site_fract_x
_atom_site_fract_y
_atom_site_fract_z
_atom_type_partial_charge
O1    O     O_R   0.361600 0.167310 0.164620 -0.569461
O2    O     O_R   0.638400 0.832690 0.835380 -0.558102
O3    O     O_R   0.691080 0.157570 0.338750 -0.585330
O4    O     O_R   0.308920 0.842430 0.661250 -0.574943
O5    O     O_R   0.861410 0.336420 0.339360 -0.575217
O6    O     O_R   0.138590 0.663580 0.660640 -0.576118
C1    C     C_R   0.519524 0.136379 0.368338 1.040505
C2    C     C_R   0.480157 0.862470 0.630875 1.041257
O7    O     O_R   0.691320 0.156280 0.165240 -0.596334
O8    O     O_R   0.308680 0.843720 0.834760 -0.605740
O9    O     O_R   0.861640 0.335130 0.164600 -0.586375
O10   O     O_R   0.138360 0.664870 0.835400 -0.594812
C3    C     C_R   0.522548 0.136199 0.134346 1.036104
C4    C     C_R   0.477377 0.863883 0.865622 1.028616
O11   O     O_R   0.361370 0.168600 0.339370 -0.553981
O12   O     O_R   0.638630 0.831400 0.660630 -0.587183
O13   O     O_3   0.527990 0.310540 0.251980 -0.228775
O14   O     O_3   0.472010 0.689460 0.748020 -0.224711
V1    V     V_3+5 0.802830 0.240980 0.251990 1.337937
V2    V     V_3+5 0.197170 0.759020 0.748010 1.316768
O15   O     O_R   0.191360 0.346160 0.165220 -0.549319
O16   O     O_R   0.808640 0.653840 0.834780 -0.539767
C5    C     C_R   0.024528 0.368920 0.136615 1.091428
C6    C     C_R   0.975507 0.630916 0.863245 1.059176
O17   O     O_R   0.191130 0.347440 0.338740 -0.546753
O18   O     O_R   0.808870 0.652560 0.661260 -0.551698
C7    C     C_R   0.022244 0.368328 0.368388 1.126480
C8    C     C_R   0.977498 0.633339 0.630405 1.192854
V3    V     V_3+5 0.302840 0.262750 0.251990 1.397231
V4    V     V_3+5 0.697160 0.737250 0.748010 1.385182
O19   O     O_3   0.027820 0.193180 0.251990 -0.259857
O20   O     O_3   0.972180 0.806820 0.748010 -0.269530
C9    C     C_3   0.864528 0.435423 0.513443 -0.357965
C10   C     C_3   0.134915 0.566779 0.485278 -0.257962
C11   C     C_3   0.028632 0.463336 0.574005 0.384823
C12   C     C_3   0.970819 0.538804 0.424724 0.472895
H1    H     H_    0.763164 0.378555 0.525313 0.247006
H2    H     H_    0.235677 0.623916 0.473557 0.254427
C13   C     C_3   0.987621 0.564677 0.559870 -0.519886
C14   C     C_3   0.011831 0.437493 0.438725 -0.554012
C15   C     C_3   0.826929 0.537374 0.498879 0.392107
C16   C     C_3   0.172622 0.464790 0.499830 0.335092
C17   C     C_R   0.839195 0.495411 0.946777 0.415841
C18   C     C_R   0.161003 0.504350 0.053017 0.418378
C19   C     C_R   0.861488 0.432346 0.011699 -0.148482
C20   C     C_R   0.138689 0.567418 0.988097 -0.154827
H3    H     H_    0.753190 0.379625 0.019550 0.206967
H4    H     H_    0.247078 0.620089 0.980195 0.196476
C21   C     C_R   0.018593 0.435916 0.066347 -0.329171
C22   C     C_R   0.981517 0.563885 0.933484 -0.319115
C23   C     C_R   0.648135 0.001528 0.439765 -0.184325
C24   C     C_R   0.351192 0.995737 0.558326 -0.214249
H5    H     H_    0.761840 0.002179 0.392722 0.217325
H6    H     H_    0.240124 0.996226 0.606433 0.195972
C25   C     C_R   0.647174 0.934182 0.501438 0.484685
C26   C     C_R   0.347859 0.060774 0.494888 0.617844
C27   C     C_R   0.495657 0.930922 0.562419 -0.378973
C28   C     C_R   0.502870 0.066319 0.435562 -0.394843
C29   C     C_R   0.628069 0.991591 0.066148 -0.261019
C30   C     C_R   0.371192 0.008490 0.933939 -0.250692
H7    H     H_    0.725994 0.984287 0.118055 0.197132
H8    H     H_    0.273401 0.015917 0.882014 0.208470
C31   C     C_R   0.617013 0.922672 0.004349 0.588966
C32   C     C_R   0.381910 0.077264 0.995884 0.585541
C33   C     C_R   0.488615 0.931586 0.936132 -0.387935
C34   C     C_R   0.510845 0.068472 0.063920 -0.374328
S1    S     S_3+6 0.057493 0.418038 0.677056 0.047534
O21   O     O_2   0.230969 0.460669 0.717396 -0.175537
O22   O     O_2   0.882627 0.440129 0.729442 -0.281308
O23   O     O_3   0.084622 0.304879 0.672688 -0.424001
H9    H     H_    0.954754 0.280320 0.660460 0.369554
S2    S     S_3+6 0.941323 0.585486 0.322483 0.060179
O24   O     O_2   0.122937 0.571046 0.272263 -0.262775
O25   O     O_2   0.776662 0.538402 0.279257 -0.224964
O26   O     O_3   0.897692 0.697167 0.330527 -0.401648
H10   H     H_    0.879960 0.717378 0.271849 0.407520
N1    N     N_R   0.638258 0.579066 0.498497 0.270101
O27   O     O_R   0.572957 0.613733 0.429694 -0.285848
O28   O     O_R   0.534021 0.581806 0.567023 -0.357435
N2    N     N_R   0.360913 0.422599 0.500057 0.268039
O29   O     O_R   0.423365 0.384960 0.568010 -0.290742
O30   O     O_R   0.465273 0.420079 0.431563 -0.349058
N3    N     N_R   0.671643 0.487278 0.895435 0.256787
O31   O     O_R   0.621198 0.407726 0.866428 -0.276802
O32   O     O_R   0.543206 0.550717 0.898767 -0.345767
N4    N     N_R   0.328843 0.512336 0.104209 0.254426
O33   O     O_R   0.380315 0.591923 0.132775 -0.274881
O34   O     O_R   0.456782 0.448673 0.100857 -0.347776
S3    S     S_3+6 0.840007 0.856930 0.498926 0.018712
O35   O     O_2   0.761192 0.762035 0.500791 -0.249493
O36   O     O_2   0.962465 0.868803 0.421021 -0.229623
O37   O     O_3   0.977547 0.874114 0.583422 -0.501634
H11   H     H_    0.933098 0.931930 0.608940 0.332859
S4    S     S_3+6 0.144482 0.131315 0.493398 -0.028739
O38   O     O_2   0.035962 0.113405 0.413982 -0.291986
O39   O     O_2   0.013169 0.113657 0.567600 -0.333918
O40   O     O_3   0.217522 0.239590 0.496087 -0.500561
H12   H     H_    0.100169 0.273120 0.512107 0.352206
S5    S     S_3+6 0.759732 0.824931 0.017701 -0.017251
O41   O     O_2   0.822860 0.818589 0.107654 -0.278605
O42   O     O_2   0.647087 0.740739 0.995111 -0.279386
O43   O     O_3   0.955083 0.833247 0.954643 -0.531093
H13   H     H_    0.048003 0.789627 0.977554 0.353559
S6    S     S_3+6 0.239334 0.175059 0.982608 -0.018706
O44   O     O_2   0.067422 0.169609 0.040748 -0.314271
O45   O     O_2   0.355075 0.259028 0.002886 -0.283942
O46   O     O_3   0.163194 0.181026 0.882713 -0.489935
H14   H     H_    0.086701 0.237333 0.880864 0.404518

loop_
_geom_bond_atom_site_label_1
_geom_bond_atom_site_label_2
_geom_bond_distance
_ccdc_geom_bond_type
C18   C21   1.421368 A    
C31   C33   1.421083 A    
C16   N2    1.455492 S    
C17   N3    1.434576 S    
C10   C16   1.547766 S    
O4    C2    1.311005 A    
V1    O19   1.722657 S    
S6    O45   1.503402 D    
O40   H12   0.987507 S    
C13   C15   1.536610 S    
C23   C25   1.400771 A    
N1    O27   1.299947 A    
C26   S4    1.764362 S    
O9    V1    2.006898 S    
O3    C1    1.312417 A    
C29   C34   1.403212 A    
C15   N1    1.454754 S    
N4    O34   1.299610 A    
C5    C21   1.498164 S    
O12   V4    2.019693 S    
O13   V3    1.710447 S    
C30   H8    1.082992 S    
C11   C16   1.536029 S    
O7    C3    1.308349 A    
C31   S5    1.773189 S    
C9    C11   1.552037 S    
O5    C7    1.297565 A    
O7    V1    2.007581 S    
O6    C8    1.297873 A    
N3    O31   1.301351 A    
O8    V2    2.007581 S    
O46   H14   0.990851 S    
O3    V1    1.999270 S    
O23   H9    0.990553 S    
O14   V4    1.710448 S    
C19   C21   1.404764 A    
S3    O36   1.503168 D    
C1    C28   1.494665 S    
C10   C12   1.552143 S    
C24   H6    1.079206 S    
C19   H3    1.083273 S    
C2    O12   1.294752 A    
O17   V3    2.003639 S    
C12   C15   1.535333 S    
O43   H13   0.991159 S    
S2    O26   1.679147 S    
C18   N4    1.434696 S    
S6    O44   1.502883 D    
C18   C20   1.405732 A    
O11   V3    2.019695 S    
C3    C34   1.493670 S    
N1    O28   1.299988 A    
C6    C22   1.498179 S    
C20   H4    1.083270 S    
C29   H7    1.083161 S    
C9    C14   1.557566 S    
S1    O21   1.502633 D    
C12   C14   1.541001 S    
S2    O25   1.503094 D    
O8    C4    1.307937 A    
N4    O33   1.301305 A    
S2    O24   1.500743 D    
C1    O11   1.294472 A    
C8    C13   1.503048 S    
O15   V3    2.022631 S    
C9    H1    1.105338 S    
C10   C13   1.556025 S    
C23   H5    1.080647 S    
C32   C34   1.421075 A    
C11   C13   1.541770 S    
O26   H10   0.990632 S    
C2    C27   1.492081 S    
C14   C16   1.538248 S    
S5    O41   1.504048 D    
C11   S1    1.787879 S    
C7    C14   1.505780 S    
O10   V2    2.006900 S    
O1    V3    2.006480 S    
C23   C28   1.399671 A    
S3    O37   1.674015 S    
S4    O39   1.504207 D    
C17   C19   1.405703 A    
N2    O30   1.299949 A    
N3    O32   1.299610 A    
C30   C33   1.404275 A    
O18   V4    2.003638 S    
C25   C27   1.422427 A    
O16   C6    1.300271 A    
O1    C3    1.298530 A    
V2    O20   1.722658 S    
C32   S6    1.773102 S    
O10   C6    1.306982 A    
O16   V4    2.022633 S    
S5    O42   1.503101 D    
C10   H2    1.105318 S    
O18   C8    1.297955 A    
N2    O29   1.299931 A    
C17   C22   1.421277 A    
O5    V1    2.007926 S    
O17   C7    1.298482 A    
O6    V2    2.007926 S    
C20   C22   1.404774 A    
C29   C31   1.407150 A    
S4    O40   1.669161 S    
O2    V4    2.006482 S    
C30   C32   1.407113 A    
S1    O23   1.680004 S    
C9    C15   1.547109 S    
O15   C5    1.300202 A    
V3    O19   2.160903 S    
V4    O20   2.160900 S    
O9    C5    1.307022 A    
O37   H11   0.990061 S    
O13   V1    2.178247 S    
C4    C33   1.494251 S    
C26   C28   1.424506 A    
O14   V2    2.178248 S    
S4    O38   1.498171 D    
O2    C4    1.299227 A    
C24   C27   1.395750 A    
O4    V2    1.999268 S    
C12   S2    1.784585 S    
S5    O43   1.681270 S    
C25   S3    1.767624 S    
S1    O22   1.500986 D    
S3    O35   1.496621 D    
S6    O46   1.682469 S    
C24   C26   1.397595 A    
