data_mof_unit_35816.cif
_audit_creation_date              2013-03-05T15:56:34-0500
_audit_creation_method            fapswitch 2.2
_symmetry_space_group_name_H-M    P1
_symmetry_Int_Tables_number       1
_space_group_crystal_system       triclinic
_cell_length_a                    6.930924
_cell_length_b                    14.541504
_cell_length_c                    15.981317
_cell_angle_alpha                 90.431049
_cell_angle_beta                  90.065622
_cell_angle_gamma                 90.010868
_cell_volume                      1610.64728957

loop_
_atom_site_label
_atom_site_type_symbol
_atom_site_description
_atom_site_fract_x
_atom_site_fract_y
_atom_site_fract_z
_atom_type_partial_charge
O1    O     O_R   0.361600 0.167310 0.164620 -0.553666
O2    O     O_R   0.638400 0.832690 0.835380 -0.553667
O3    O     O_R   0.691080 0.157570 0.338750 -0.567025
O4    O     O_R   0.308920 0.842430 0.661250 -0.567004
O5    O     O_R   0.861410 0.336420 0.339360 -0.597131
O6    O     O_R   0.138590 0.663580 0.660640 -0.597128
C1    C     C_R   0.522693 0.134454 0.366769 0.998141
C2    C     C_R   0.477306 0.865547 0.633232 0.998125
O7    O     O_R   0.691320 0.156280 0.165240 -0.549112
O8    O     O_R   0.308680 0.843720 0.834760 -0.549116
O9    O     O_R   0.861640 0.335130 0.164600 -0.596302
O10   O     O_R   0.138360 0.664870 0.835400 -0.596298
C3    C     C_R   0.522231 0.133958 0.135998 1.178330
C4    C     C_R   0.477769 0.866042 0.864002 1.178315
O11   O     O_R   0.361370 0.168600 0.339370 -0.596018
O12   O     O_R   0.638630 0.831400 0.660630 -0.596012
O13   O     O_3   0.527990 0.310540 0.251980 -0.280717
O14   O     O_3   0.472010 0.689460 0.748020 -0.280714
V1    V     V_3+5 0.802830 0.240980 0.251990 1.333483
V2    V     V_3+5 0.197170 0.759020 0.748010 1.333487
O15   O     O_R   0.191360 0.346160 0.165220 -0.566939
O16   O     O_R   0.808640 0.653840 0.834780 -0.566932
C5    C     C_R   0.022865 0.368901 0.136679 1.024403
C6    C     C_R   0.977134 0.631098 0.863321 1.024395
O17   O     O_R   0.191130 0.347440 0.338740 -0.607255
O18   O     O_R   0.808870 0.652560 0.661260 -0.607257
C7    C     C_R   0.022405 0.369661 0.367528 1.028710
C8    C     C_R   0.977595 0.630339 0.632472 1.028709
V3    V     V_3+5 0.302840 0.262750 0.251990 1.306155
V4    V     V_3+5 0.697160 0.737250 0.748010 1.306158
O19   O     O_3   0.027820 0.193180 0.251990 -0.222754
O20   O     O_3   0.972180 0.806820 0.748010 -0.222743
C9    C     C_3   0.923565 0.421096 0.523514 0.911752
C10   C     C_3   0.076435 0.578904 0.476486 0.911753
C11   C     C_3   0.096916 0.468000 0.567062 -0.310381
C12   C     C_3   0.903084 0.532000 0.432938 -0.310374
H1    H     H_    0.174480 0.441112 0.622546 0.200180
H2    H     H_    0.825520 0.558888 0.377454 0.200182
C13   C     C_3   0.987688 0.560494 0.562640 -0.358551
C14   C     C_3   0.012312 0.439505 0.437359 -0.358547
C15   C     C_3   0.812897 0.513092 0.520265 -0.296968
C16   C     C_3   0.187103 0.486907 0.479735 -0.296960
H3    H     H_    0.659183 0.522825 0.537645 0.181305
H4    H     H_    0.340817 0.477175 0.462355 0.181304
C17   C     C_R   0.846802 0.492939 0.942513 0.384171
C18   C     C_R   0.153194 0.507060 0.057487 0.384170
C19   C     C_R   0.862699 0.430622 0.008826 -0.127642
C20   C     C_R   0.137299 0.569377 0.991174 -0.127648
H5    H     H_    0.755926 0.376533 0.014272 0.181252
H6    H     H_    0.244072 0.623466 0.985729 0.181250
C21   C     C_R   0.014129 0.436552 0.067118 -0.356741
C22   C     C_R   0.985869 0.563447 0.932882 -0.356740
C23   C     C_R   0.652755 0.994288 0.442359 0.383108
C24   C     C_R   0.347237 0.005715 0.557640 0.383101
C25   C     C_R   0.636696 0.930033 0.506928 -0.135358
C26   C     C_R   0.363302 0.069970 0.493073 -0.135328
H7    H     H_    0.742972 0.875566 0.511014 0.184357
H8    H     H_    0.257027 0.124438 0.488986 0.184366
C27   C     C_R   0.485682 0.934656 0.565259 -0.333571
C28   C     C_R   0.514314 0.065347 0.434741 -0.333578
C29   C     C_R   0.667147 0.006081 0.049033 0.678190
C30   C     C_R   0.332852 0.993919 0.950967 0.678171
C31   C     C_R   0.656258 0.941788 0.983582 0.661375
C32   C     C_R   0.343741 0.058212 0.016418 0.661380
C33   C     C_R   0.488955 0.934764 0.933491 -0.794965
C34   C     C_R   0.511045 0.065235 0.066509 -0.794970
F1    F     F_    0.843822 0.338259 0.547589 -0.667975
F2    F     F_    0.156178 0.661740 0.452411 -0.667975
N1    N     N_R   0.692031 0.481228 0.884103 0.231840
O21   O     O_R   0.685111 0.407258 0.837930 -0.353713
O22   O     O_R   0.538550 0.532125 0.891086 -0.381666
N2    N     N_R   0.307955 0.518773 0.115900 0.231838
O23   O     O_R   0.314827 0.592729 0.162097 -0.353702
O24   O     O_R   0.461461 0.467892 0.108911 -0.381669
N3    N     N_R   0.806915 0.984045 0.383584 0.240590
O25   O     O_R   0.961691 0.033804 0.392206 -0.362832
O26   O     O_R   0.811679 0.911932 0.334990 -0.323239
N4    N     N_R   0.193062 0.015956 0.616408 0.240581
O27   O     O_R   0.038349 0.966146 0.607812 -0.362819
O28   O     O_R   0.188170 0.088120 0.664939 -0.323250
F3    F     F_    0.829995 0.008669 0.096329 -0.571040
F4    F     F_    0.170005 0.991331 0.903671 -0.571055
F5    F     F_    0.809145 0.885008 0.970780 -0.595787
F6    F     F_    0.190855 0.114992 0.029220 -0.595790

loop_
_geom_bond_atom_site_label_1
_geom_bond_atom_site_label_2
_geom_bond_distance
_ccdc_geom_bond_type
C6    C22   1.491162 S    
C31   C33   1.411542 A    
C25   C27   1.403696 A    
O13   V3    1.708122 S    
C10   C16   1.543373 S    
O4    C2    1.295712 A    
V1    O19   1.707409 S    
C19   H5    1.083887 S    
O9    V1    2.005218 S    
C11   H1    1.110109 S    
O3    C1    1.295715 A    
C2    C27   1.486556 S    
N4    O28   1.300650 A    
O12   V4    2.004169 S    
N1    O22   1.300443 A    
C17   C19   1.403793 A    
C29   C31   1.399618 A    
C11   C16   1.556186 S    
O7    C3    1.301355 A    
C32   F6    1.358202 S    
C30   C32   1.399617 A    
C9    C11   1.543934 S    
O5    C7    1.294898 A    
C29   C34   1.409244 A    
O7    V1    2.001965 S    
O6    C8    1.294898 A    
O8    V2    2.001965 S    
O3    V1    2.005229 S    
O14   V4    1.708123 S    
C18   N2    1.430472 S    
C3    C34   1.490300 S    
C14   C16   1.546671 S    
C30   F4    1.358038 S    
C2    O12   1.300325 A    
C15   H3    1.110113 S    
C12   C15   1.556186 S    
C23   N3    1.430504 S    
C16   H4    1.110112 S    
C23   C28   1.416062 A    
O11   V3    2.004171 S    
C18   C20   1.403790 A    
C24   C27   1.416082 A    
C23   C25   1.401764 A    
O17   V3    2.003819 S    
C24   C26   1.401765 A    
C9    C14   1.534012 S    
C17   N1    1.430486 S    
C10   C13   1.534012 S    
C12   C14   1.545593 S    
N2    O24   1.300454 A    
O8    C4    1.301354 A    
C10   F2    1.382639 S    
N4    O27   1.300462 A    
C19   C21   1.404762 A    
C1    O11   1.300318 A    
C8    C13   1.505011 S    
O15   V3    2.003567 S    
C18   C21   1.416429 A    
C26   C28   1.403684 A    
C31   F5    1.358203 S    
C32   C34   1.411543 A    
C11   C13   1.545592 S    
N3    O25   1.300456 A    
C5    C21   1.491158 S    
C7    C14   1.505010 S    
O10   V2    2.005221 S    
O1    V3    2.003482 S    
C20   H6    1.083886 S    
N3    O26   1.300629 A    
O18   V4    2.003817 S    
C25   H7    1.083995 S    
O16   C6    1.297078 A    
O1    C3    1.296908 A    
C12   H2    1.110109 S    
C1    C28   1.486548 S    
C9    F1    1.382638 S    
V2    O20   1.707409 S    
O16   V4    2.003570 S    
C30   C33   1.409245 A    
N2    O23   1.300710 A    
O5    V1    2.002473 S    
O17   C7    1.297212 A    
C13   C15   1.546671 S    
O6    V2    2.002473 S    
O10   C6    1.301227 A    
O18   C8    1.297212 A    
C17   C22   1.416440 A    
O2    V4    2.003484 S    
C9    C15   1.543373 S    
O15   C5    1.297081 A    
V3    O19   2.157799 S    
C29   F3    1.358039 S    
V4    O20   2.157796 S    
O9    C5    1.301222 A    
O13   V1    2.156966 S    
C4    C33   1.490300 S    
C26   H8    1.083994 S    
O14   V2    2.156967 S    
N1    O21   1.300672 A    
O2    C4    1.296906 A    
O4    V2    2.005227 S    
C20   C22   1.404765 A    
C10   C12   1.543933 S    
C24   N4    1.430511 S    
