data_mof_unit_42756.cif
_audit_creation_date              2013-03-05T15:44:40-0500
_audit_creation_method            fapswitch 2.2
_symmetry_space_group_name_H-M    P1
_symmetry_Int_Tables_number       1
_space_group_crystal_system       triclinic
_cell_length_a                    10.525033
_cell_length_b                    10.778771
_cell_length_c                    10.072776
_cell_angle_alpha                 90.835054
_cell_angle_beta                  89.766198
_cell_angle_gamma                 90.159841
_cell_volume                      1142.59028169

loop_
_atom_site_label
_atom_site_type_symbol
_atom_site_description
_atom_site_fract_x
_atom_site_fract_y
_atom_site_fract_z
_atom_type_partial_charge
O1    O     O_R   0.499980 0.319060 0.613040 -0.587574
O2    O     O_R   0.500020 0.319100 0.386900 -0.580665
C1    C     C_R   0.501457 0.262748 0.498180 0.978010
O3    O     O_R   0.313930 0.499950 0.613050 -0.581746
O4    O     O_R   0.313970 0.499990 0.386910 -0.595895
C2    C     C_R   0.257729 0.498992 0.500026 0.930555
Zn1   Zn    Zn3+2 0.499970 0.499970 0.650990 1.045488
Zn2   Zn    Zn3+2 0.500030 0.500030 0.349010 1.106794
O5    O     O_R   0.499980 0.680900 0.613100 -0.594414
O6    O     O_R   0.500020 0.680940 0.386960 -0.637892
O7    O     O_R   0.686030 0.500010 0.613090 -0.626227
O8    O     O_R   0.686070 0.500050 0.386950 -0.560277
C3    C     C_R   0.505797 0.737031 0.500886 0.829323
C4    C     C_R   0.742352 0.500212 0.500088 0.940447
C5    C     C_3   0.040247 0.399540 0.567201 -0.124026
C6    C     C_3   0.958123 0.396372 0.442948 0.251371
C7    C     C_3   0.877173 0.499873 0.501118 -0.097615
C8    C     C_3   0.958439 0.504657 0.627633 -0.179490
C9    C     C_3   0.043337 0.603039 0.559740 -0.156486
C10   C     C_3   0.959625 0.598190 0.433636 -0.159057
C11   C     C_3   0.041868 0.492308 0.373248 -0.160706
C12   C     C_3   0.123007 0.497038 0.499940 -0.118030
H1    H     H_    0.921540 0.510008 0.730991 0.198074
H2    H     H_    0.082887 0.688096 0.607589 0.180395
H3    H     H_    0.922640 0.679749 0.380135 0.211208
H4    H     H_    0.078383 0.485799 0.269811 0.227790
C13   C     C_2   0.503406 0.930100 0.392365 -0.337548
C14   C     C_2   0.536301 0.866376 0.500369 0.140602
H5    H     H_    0.455229 0.885244 0.309154 0.214680
C15   C     C_2   0.523146 0.061932 0.383795 0.009093
C16   C     C_2   0.495100 0.130716 0.492982 -0.277267
H6    H     H_    0.459047 0.087564 0.582505 0.175942
C17   C     C_2   0.514744 0.598607 0.926170 -0.083362
N1    N     N_2   0.501360 0.501330 0.852150 -0.181705
H7    H     H_    0.516473 0.688367 0.879084 0.228159
H8    H     H_    0.517499 0.416967 0.895502 0.213936
C18   C     C_2   0.542799 0.591155 0.072297 0.000754
N2    N     N_2   0.501400 0.501360 0.147810 -0.031481
N3    N     N_R   0.908128 0.283490 0.381497 0.225616
O9    O     O_R   0.936336 0.255497 0.258901 -0.305918
O10   O     O_R   0.839939 0.207414 0.451207 -0.314868
C19   C     C_2   0.626338 0.690463 0.125829 0.913717
O11   O     O_2   0.704551 0.667994 0.211051 -0.601429
O12   O     O_R   0.620690 0.809410 0.072649 -0.761713
H9    H     H_    0.684766 0.868361 0.114471 0.370324
N4    N     N_R   0.396396 0.435208 0.100675 0.275231
O13   O     O_R   0.385748 0.318309 0.128421 -0.340730
O14   O     O_R   0.295775 0.494078 0.061090 -0.375668
C20   C     C_2   0.082312 0.286784 0.640643 0.994290
O15   O     O_2   0.003358 0.223220 0.697579 -0.532650
O16   O     O_R   0.210598 0.254268 0.643131 -0.803805
H10   H     H_    0.226553 0.176290 0.695535 0.354844
N5    N     N_R   0.616972 0.917156 0.603411 0.205479
O17   O     O_R   0.597151 0.889379 0.727050 -0.353174
O18   O     O_R   0.718833 0.979192 0.572347 -0.298448
C21   C     C_2   0.567864 0.108968 0.253569 1.038369
O19   O     O_2   0.655826 0.182928 0.247658 -0.526899
O20   O     O_R   0.512593 0.063166 0.136728 -0.749439
H11   H     H_    0.552066 0.099920 0.054097 0.375710

loop_
_geom_bond_atom_site_label_1
_geom_bond_atom_site_label_2
_geom_bond_distance
_ccdc_geom_bond_type
C7    C8    1.537844 S    
O4    Zn2   1.993622 S    
Zn1   O7    1.993622 S    
C14   N5    1.444226 S    
C3    C14   1.429875 S    
C6    C11   1.533017 S    
C13   H5    1.087974 S    
C5    C8    1.541668 S    
C16   H6    1.087162 S    
Zn2   O8    1.996551 S    
C7    C10   1.532718 S    
C18   C19   1.480337 S    
N5    O18   1.301454 A    
C9    H2    1.110281 S    
C5    C12   1.527408 S    
O16   H10   1.013762 S    
N3    O10   1.299974 A    
O1    Zn1   1.981628 S    
N5    O17   1.300984 A    
C10   C11   1.550090 S    
C13   C15   1.439309 S    
C1    C16   1.424739 S    
C4    C7    1.419090 S    
C18   N2    1.312101 D    
C19   O12   1.398205 S    
Zn2   N2    2.026895 S    
O3    Zn1   1.996552 S    
O4    C2    1.282009 A    
O3    C2    1.284994 A    
C17   H7    1.083761 S    
C11   H4    1.110364 S    
C21   O20   1.397975 S    
C17   C18   1.505752 S    
C17   N1    1.285458 D    
N1    H8    1.029305 S    
C5    C20   1.500758 S    
C15   C16   1.349532 D    
O7    C4    1.281236 A    
N4    O14   1.302986 A    
N2    N4    1.394724 S    
C19   O11   1.219062 D    
C6    N3    1.455196 S    
C8    H1    1.110466 S    
C2    C12   1.418058 S    
Zn1   O5    1.992648 S    
C13   C14   1.342146 D    
C9    C12   1.533810 S    
O12   H9    1.013983 S    
Zn2   O6    1.981627 S    
C20   O15   1.221983 D    
C10   H3    1.110048 S    
Zn1   N1    2.026191 S    
N3    O9    1.300290 A    
C21   O19   1.221879 D    
O5    C3    1.290953 A    
N4    O13   1.299059 A    
C8    C9    1.549678 S    
O2    C1    1.282816 A    
O1    C1    1.298707 A    
O20   H11   1.013988 S    
C11   C12   1.538573 S    
C15   C21   1.487352 S    
C5    C6    1.523859 S    
O2    Zn2   1.992650 S    
C9    C10   1.549008 S    
O8    C4    1.286493 A    
C6    C7    1.515247 S    
C20   O16   1.396319 S    
O6    C3    1.290834 A    
