data_mof_unit_26092.cif
_audit_creation_date              2012-12-10T18:11:36-0500
_audit_creation_method            fapswitch 2.2
_symmetry_space_group_name_H-M    P1
_symmetry_Int_Tables_number       1
_space_group_crystal_system       triclinic
_cell_length_a                    10.492634
_cell_length_b                    12.662042
_cell_length_c                    13.045885
_cell_angle_alpha                 81.197061
_cell_angle_beta                  90.17219
_cell_angle_gamma                 102.419376
_cell_volume                      1671.95122093

loop_
_atom_site_label
_atom_site_type_symbol
_atom_type_description
_atom_site_fract_x
_atom_site_fract_y
_atom_site_fract_z
_atom_type_partial_charge
C1    C     C_R   0.485078 0.438337 0.691630 0.859938
C2    C     C_3   0.066687 0.596384 0.522252 -0.132977
C3    C     C_3   0.962240 0.513847 0.593846 -0.184740
C4    C     C_3   0.877646 0.500682 0.499351 0.020967
C5    C     C_R   0.376919 0.684227 0.066794 0.212654
C6    C     C_R   0.501395 0.599006 0.198833 -0.090286
C7    C     C_R   0.554485 0.320170 0.837105 -0.164970
C8    C     C_R   0.581692 0.298261 0.941045 -0.132491
C9    C     C_R   0.549675 0.362992 0.009432 -0.163398
C10   C     C_R   0.485011 0.448989 0.974805 0.063153
C11   C     C_R   0.433652 0.455393 0.874298 0.073412
C12   C     C_R   0.742062 0.500526 0.499848 0.847585
C13   C     C_R   0.470404 0.528682 0.036582 0.053874
C14   C     C_R   0.392489 0.605864 0.003228 0.103992
C15   C     C_R   0.326442 0.598939 0.910395 -0.236547
C16   C     C_R   0.341006 0.521607 0.848406 0.182108
C17   C     C_R   0.531979 0.533487 0.131162 -0.213664
C18   C     C_R   0.429664 0.678037 0.165673 -0.187034
C19   C     C_R   0.481298 0.398431 0.802724 -0.096975
C20   C     C_R   0.349780 0.098018 0.326675 -0.318929
C21   C     C_R   0.654139 0.799196 0.629573 -0.024869
C22   C     C_R   0.692936 0.905298 0.651593 0.132155
C23   C     C_R   0.513560 0.561799 0.308508 0.868842
C24   C     C_R   0.637802 0.987581 0.598291 -0.197537
C25   C     C_R   0.541311 0.963009 0.524988 0.004973
C26   C     C_R   0.512090 0.855866 0.500273 0.224547
C27   C     C_R   0.477735 0.042367 0.471992 -0.028983
C28   C     C_R   0.406017 0.018916 0.383396 0.132231
C29   C     C_R   0.382337 0.913965 0.357365 -0.249896
C30   C     C_R   0.429632 0.832252 0.418427 -0.197938
C31   C     C_R   0.472763 0.140350 0.508670 0.184343
C32   C     C_R   0.365211 0.200071 0.357312 0.295699
C33   C     C_R   0.258040 0.499838 0.499152 0.853788
C34   C     C_3   0.933535 0.404320 0.476031 -0.110187
C35   C     C_3   0.020727 0.417677 0.570611 -0.166534
C36   C     C_3   0.122545 0.499975 0.498997 0.023894
C37   C     C_3   0.038003 0.486879 0.404466 -0.172563
C38   C     C_3   0.979408 0.583006 0.427688 -0.184409
H1    H     H_    0.041770 0.350143 0.628473 0.158529
H2    H     H_    0.597187 0.480903 0.158651 0.142486
H3    H     H_    0.597247 0.280216 0.782821 0.174859
H4    H     H_    0.576552 0.343309 0.088705 0.142731
H5    H     H_    0.635413 0.235673 0.967521 0.160578
H6    H     H_    0.322327 0.893769 0.292322 0.149031
H7    H     H_    0.291568 0.079907 0.260182 0.178249
H8    H     H_    0.696574 0.734533 0.669985 0.159920
H9    H     H_    0.875717 0.325732 0.457163 0.158943
H10   H     H_    0.672707 0.070527 0.613027 0.180537
H11   H     H_    0.401754 0.751819 0.399074 0.204264
H12   H     H_    0.073301 0.476170 0.327396 0.165058
H13   H     H_    0.958023 0.650313 0.369713 0.146069
H14   H     H_    0.124707 0.674913 0.541101 0.160090
H15   H     H_    0.926939 0.524978 0.670797 0.141980
H16   H     H_    0.406990 0.729321 0.219133 0.139217
H17   H     H_    0.258654 0.650926 0.886764 0.175457
N1    N     N_R   0.432930 0.222190 0.444670 -0.130702
N2    N     N_R   0.566370 0.776980 0.554790 -0.145746
O1    O     O_R   0.467970 0.366730 0.627150 -0.579124
O2    O     O_R   0.510820 0.544830 0.662520 -0.604731
O3    O     O_R   0.664630 0.410960 0.482340 -0.622013
O4    O     O_R   0.707470 0.589060 0.517710 -0.614651
O5    O     O_R   0.489180 0.455170 0.337480 -0.584935
O6    O     O_R   0.532030 0.633270 0.372850 -0.635526
O7    O     O_R   0.292530 0.410940 0.482290 -0.573975
O8    O     O_R   0.335370 0.589040 0.517660 -0.654317
Zn1   Zn    Zn3+2 0.471390 0.381080 0.476380 0.990111
Zn2   Zn    Zn3+2 0.528610 0.618920 0.523620 0.929783
C39   C     C_3   0.244191 0.504841 0.763675 -0.865619
H18   H     H_    0.143699 0.493997 0.796309 0.229451
H19   H     H_    0.262950 0.578359 0.703119 0.262578
H20   H     H_    0.245108 0.430225 0.729425 0.221432
I1    I     I_    0.253838 0.303864 0.273527 -0.369332
I2    I     I_    0.430609 0.123819 0.670517 -0.345350
I3    I     I_    0.835032 0.941331 0.763163 -0.368932
C40   C     C_3   0.298632 0.770014 0.034092 -0.901726
H21   H     H_    0.194999 0.730110 0.025158 0.241301
H22   H     H_    0.301364 0.825984 0.092253 0.238983
H23   H     H_    0.339211 0.820400 0.959413 0.261812

loop_
_geom_bond_atom_site_label_1
_geom_bond_atom_site_label_2
_ccdc_geom_bond_type
C12   O4    A    
C34   C37   S    
C35   C36   S    
C8    H5    S    
C33   O8    A    
C7    C8    A    
C32   I1    S    
C11   C19   A    
C9    H4    S    
C29   C30   A    
C28   C29   A    
C1    O2    A    
C31   I2    S    
C15   C16   A    
C33   C36   S    
C34   C35   S    
C2    C38   S    
O2    Zn2   S    
O1    Zn1   S    
C23   O5    A    
C39   H18   S    
O8    Zn2   S    
C16   C39   S    
C31   N1    A    
C4    C12   S    
C9    C10   A    
C20   H7    S    
C23   O6    A    
O3    Zn1   S    
C13   C14   A    
N2    Zn2   S    
C40   H23   S    
O6    Zn2   S    
C6    C18   A    
C4    C34   S    
C1    C19   S    
O5    Zn1   S    
C27   C31   A    
C24   H10   S    
C24   C25   A    
C8    C9    A    
C5    C18   A    
C20   C28   A    
C25   C26   A    
C17   H2    S    
O7    Zn1   S    
C5    C40   S    
C35   H1    S    
C40   H21   S    
C21   N2    A    
C37   C38   S    
C11   C16   A    
O4    Zn2   S    
C3    C35   S    
C40   H22   S    
C5    C14   A    
C2    H14   S    
C30   H11   S    
C4    C38   S    
C26   C30   A    
C7    C19   A    
C29   H6    S    
C22   C24   A    
C22   I3    S    
C3    C4    S    
C21   H8    S    
C20   C32   A    
C2    C36   S    
C6    C17   A    
C36   C37   S    
C10   C13   A    
C39   H20   S    
C38   H13   S    
C25   C27   A    
C13   C17   A    
C2    C3    S    
C1    O1    A    
C37   H12   S    
C3    H15   S    
C33   O7    A    
N1    Zn1   S    
C6    C23   S    
C7    H3    S    
C26   N2    A    
C10   C11   A    
C18   H16   S    
C12   O3    A    
C39   H19   S    
C27   C28   A    
C14   C15   A    
C34   H9    S    
C21   C22   A    
C32   N1    A    
C15   H17   S    
