data_mof_unit_46553.cif
_audit_creation_date              2012-12-10T17:21:01-0500
_audit_creation_method            fapswitch 2.2
_symmetry_space_group_name_H-M    P1
_symmetry_Int_Tables_number       1
_space_group_crystal_system       triclinic
_cell_length_a                    18.287767
_cell_length_b                    25.822974
_cell_length_c                    18.285903
_cell_angle_alpha                 89.970908
_cell_angle_beta                  90.108519
_cell_angle_gamma                 89.950363
_cell_volume                      8635.39785025

loop_
_atom_site_label
_atom_site_type_symbol
_atom_type_description
_atom_site_fract_x
_atom_site_fract_y
_atom_site_fract_z
_atom_type_partial_charge
C1    C     C_R   0.389610 0.249872 0.139913 0.791674
C2    C     C_R   0.605585 0.302723 0.908977 -0.144091
C3    C     C_R   0.894099 0.301514 0.090274 -0.142542
C4    C     C_R   0.424028 0.848628 0.379438 -0.153424
C5    C     C_R   0.394512 0.197033 0.591163 -0.142672
C6    C     C_R   0.423379 0.152548 0.380730 -0.154251
C7    C     C_R   0.394218 0.802173 0.590641 -0.142857
C8    C     C_R   0.985156 0.316602 0.872436 -0.147608
C9    C     C_R   0.964761 0.714962 0.107108 -0.144919
C10   C     C_R   0.985109 0.683595 0.872741 -0.148008
C11   C     C_R   0.964667 0.284908 0.106990 -0.144411
C12   C     C_R   0.484514 0.816065 0.373107 -0.147432
C13   C     C_R   0.576393 0.346964 0.119097 -0.152614
C14   C     C_R   0.464833 0.214298 0.607444 -0.143591
C15   C     C_R   0.484141 0.184719 0.373919 -0.146324
C16   C     C_R   0.464696 0.785261 0.607164 -0.142886
C17   C     C_R   0.383966 0.042495 0.956280 0.250033
C18   C     C_R   0.380865 0.957174 0.051707 0.249465
C19   C     C_R   0.754014 0.554667 0.354228 0.228434
C20   C     C_R   0.753651 0.445443 0.354203 0.228731
C21   C     C_R   0.449087 0.019972 0.981116 -0.201611
C22   C     C_R   0.447448 0.979640 0.031484 -0.199395
C23   C     C_R   0.749589 0.526630 0.289248 -0.176897
C24   C     C_R   0.605763 0.697526 0.909210 -0.143934
C25   C     C_R   0.749403 0.473563 0.289236 -0.176788
C26   C     C_R   0.314854 0.975707 0.019427 0.025720
C27   C     C_R   0.315995 0.024249 0.984180 0.026863
C28   C     C_R   0.752173 0.472275 0.423765 0.005024
C29   C     C_R   0.752313 0.527779 0.423775 0.005062
C30   C     C_R   0.248219 0.947819 0.020073 -0.205992
C31   C     C_R   0.249504 0.052296 0.979058 -0.207522
C32   C     C_R   0.750822 0.446207 0.493011 -0.119400
C33   C     C_R   0.751004 0.553794 0.493023 -0.119415
C34   C     C_R   0.181190 0.974845 0.011422 0.072577
C35   C     C_R   0.075216 0.150961 0.621279 -0.152205
C36   C     C_R   0.182186 0.025440 0.982934 0.071512
C37   C     C_R   0.750957 0.472894 0.560380 0.062412
C38   C     C_R   0.751052 0.527053 0.560385 0.062394
C39   C     C_R   0.112862 0.953284 0.031527 -0.116208
C40   C     C_R   0.115560 0.047415 0.958214 -0.114931
C41   C     C_R   0.751200 0.446249 0.628597 -0.135411
C42   C     C_R   0.751397 0.553643 0.628605 -0.135534
C43   C     C_R   0.047493 0.977453 0.012088 -0.147853
C44   C     C_R   0.048927 0.023476 0.972800 -0.143261
C45   C     C_R   0.751698 0.473079 0.694590 -0.134931
C46   C     C_R   0.105851 0.801632 0.409568 -0.143159
C47   C     C_R   0.751799 0.526759 0.694594 -0.134987
C48   C     C_R   0.249966 0.108987 0.991737 0.814841
C49   C     C_R   0.249693 0.891074 0.007899 0.816663
C50   C     C_R   0.750153 0.609350 0.497239 0.824436
C51   C     C_R   0.750095 0.390650 0.497223 0.824488
C52   C     C_R   0.249954 0.391383 0.000084 0.742167
C53   C     C_R   0.249952 0.608618 0.000108 0.742165
C54   C     C_R   0.749969 0.891382 0.499891 0.741921
C55   C     C_R   0.749967 0.108617 0.499915 0.741957
C56   C     C_3   0.249875 0.470235 0.080012 -0.377372
C57   C     C_R   0.075312 0.848615 0.620720 -0.153969
C58   C     C_3   0.181016 0.530005 0.960681 -0.393226
C59   C     C_3   0.249875 0.529707 0.080030 -0.377538
C60   C     C_3   0.181019 0.470116 0.960660 -0.393359
C61   C     C_3   0.681003 0.970080 0.538969 -0.395212
C62   C     C_3   0.749992 0.029764 0.419986 -0.379628
C63   C     C_3   0.681005 0.029968 0.538990 -0.395715
C64   C     C_3   0.749992 0.970292 0.419969 -0.380535
C65   C     C_3   0.318925 0.470032 0.961046 -0.393812
C66   C     C_3   0.318927 0.529919 0.961067 -0.393889
C67   C     C_3   0.818914 0.969995 0.539282 -0.394477
C68   C     C_R   0.106013 0.198831 0.409889 -0.143343
C69   C     C_3   0.818910 0.029884 0.539304 -0.394937
C70   C     C_3   0.249940 0.449127 0.000423 0.191757
C71   C     C_3   0.249939 0.550876 0.000456 0.191813
C72   C     C_3   0.749971 0.949124 0.499543 0.196315
C73   C     C_3   0.749970 0.050873 0.499576 0.196311
C74   C     C_R   0.122580 0.183551 0.735504 -0.151743
C75   C     C_R   0.142916 0.784933 0.285396 -0.145832
C76   C     C_R   0.122692 0.816115 0.735067 -0.141679
C77   C     C_R   0.143114 0.215502 0.285706 -0.140185
C78   C     C_R   0.624739 0.686589 0.232528 -0.142071
C79   C     C_R   0.514926 0.684319 0.126870 -0.146831
C80   C     C_R   0.642576 0.285833 0.784852 -0.142693
C81   C     C_R   0.624892 0.313149 0.232125 -0.142308
C82   C     C_R   0.642771 0.714403 0.785069 -0.142441
C83   C     C_R   0.128959 0.150942 0.675137 -0.150997
C84   C     C_R   0.159483 0.801677 0.355915 -0.142031
C85   C     C_R   0.129101 0.848597 0.674528 -0.148502
C86   C     C_R   0.159719 0.198911 0.356319 -0.141886
C87   C     C_R   0.631079 0.653831 0.172333 -0.141807
C88   C     C_R   0.659087 0.302937 0.855196 -0.145683
C89   C     C_R   0.631267 0.345765 0.171743 -0.142009
C90   C     C_R   0.535244 0.285501 0.892677 -0.146072
C91   C     C_R   0.659318 0.697377 0.855480 -0.145484
C92   C     C_3   0.389403 0.080237 0.893447 -0.851695
C93   C     C_3   0.382265 0.918903 0.114159 -0.856803
C94   C     C_3   0.763022 0.612485 0.343631 -0.913268
C95   C     C_3   0.762113 0.387584 0.343568 -0.914080
C96   C     C_R   0.515150 0.315310 0.126377 -0.147174
C97   C     C_R   0.389844 0.749956 0.860199 0.787268
C98   C     C_R   0.535341 0.714624 0.892794 -0.144736
C99   C     C_R   0.014770 0.183558 0.627527 -0.147405
C100  C     C_R   0.035360 0.784859 0.392983 -0.143310
C101  C     C_R   0.014831 0.816143 0.627152 -0.146674
C102  C     C_R   0.035424 0.215382 0.393147 -0.142811
C103  C     C_R   0.507135 0.717628 0.187932 0.075914
C104  C     C_R   0.517282 0.267230 0.821766 0.070998
C105  C     C_R   0.507278 0.282197 0.187677 0.075667
C106  C     C_R   0.517334 0.732819 0.821813 0.071903
C107  C     C_R   0.006942 0.216904 0.688513 0.075599
C108  C     C_R   0.389585 0.750127 0.139915 0.788271
C109  C     C_R   0.017351 0.766892 0.321916 0.072257
C110  C     C_R   0.006989 0.782915 0.688304 0.075868
C111  C     C_R   0.017384 0.233259 0.322004 0.072392
C112  C     C_R   0.061548 0.216925 0.743156 0.075073
C113  C     C_R   0.071888 0.766914 0.267380 0.071168
C114  C     C_R   0.061586 0.782910 0.742952 0.074042
C115  C     C_R   0.071972 0.233296 0.267518 0.072037
C116  C     C_R   0.562334 0.718284 0.241890 0.073571
C117  C     C_R   0.571731 0.267323 0.767140 0.073259
C118  C     C_R   0.562443 0.281599 0.241674 0.074399
C119  C     C_R   0.389881 0.250038 0.860225 0.784650
C120  C     C_R   0.571829 0.732769 0.767231 0.073711
C121  C     C_R   0.445612 0.750166 0.195989 -0.152016
C122  C     C_R   0.446011 0.249933 0.804145 -0.158616
C123  C     C_R   0.445627 0.249886 0.196022 -0.151718
C124  C     C_R   0.445959 0.749953 0.804070 -0.157788
C125  C     C_R   0.945857 0.250006 0.695919 -0.150670
C126  C     C_R   0.945929 0.750035 0.304044 -0.157759
C127  C     C_R   0.945893 0.749918 0.695871 -0.149866
C128  C     C_R   0.945883 0.249974 0.304025 -0.156835
C129  C     C_R   0.437988 0.783121 0.257142 0.074504
C130  C     C_R   0.889776 0.749985 0.639788 0.788072
C131  C     C_R   0.428324 0.232528 0.732958 0.072373
C132  C     C_R   0.437673 0.217414 0.257699 0.073420
C133  C     C_R   0.428152 0.767049 0.732703 0.072213
C134  C     C_R   0.938388 0.283222 0.756818 0.074835
C135  C     C_R   0.928099 0.733208 0.232589 0.074736
C136  C     C_R   0.938398 0.716819 0.756931 0.075625
C137  C     C_R   0.928017 0.266720 0.232507 0.075459
C138  C     C_R   0.992965 0.283212 0.811500 0.074971
C139  C     C_R   0.982692 0.733078 0.178117 0.072218
C140  C     C_R   0.992927 0.716885 0.811659 0.074909
C141  C     C_R   0.889764 0.250020 0.360132 0.784411
C142  C     C_R   0.982641 0.266862 0.178061 0.072495
C143  C     C_R   0.492577 0.783041 0.311822 0.076488
C144  C     C_R   0.482769 0.232625 0.678330 0.071826
C145  C     C_R   0.492339 0.217447 0.312295 0.076496
C146  C     C_R   0.482682 0.767077 0.678160 0.072194
C147  C     C_R   0.054037 0.250074 0.804125 -0.150714
C148  C     C_R   0.054077 0.749997 0.195964 -0.158447
C149  C     C_R   0.053989 0.749948 0.804154 -0.152002
C150  C     C_R   0.054102 0.250050 0.195998 -0.158424
C151  C     C_R   0.554117 0.750422 0.303862 -0.150592
C152  C     C_R   0.889770 0.249979 0.639793 0.788238
C153  C     C_R   0.554010 0.249995 0.695915 -0.156469
C154  C     C_R   0.554104 0.249708 0.303916 -0.149734
C155  C     C_R   0.554055 0.749978 0.695921 -0.155702
C156  C     C_R   0.376896 0.816413 0.264909 -0.151559
C157  C     C_R   0.357508 0.213961 0.715277 -0.143402
C158  C     C_R   0.376198 0.184626 0.266062 -0.142624
C159  C     C_R   0.357133 0.785203 0.714743 -0.140162
C160  C     C_R   0.877464 0.316724 0.764326 -0.141235
C161  C     C_R   0.856990 0.715447 0.214458 -0.147458
C162  C     C_R   0.877505 0.683370 0.764544 -0.141376
C163  C     C_R   0.889812 0.750001 0.360150 0.785418
C164  C     C_R   0.856842 0.284400 0.214285 -0.146938
C165  C     C_R   0.370416 0.848849 0.325439 -0.150525
C166  C     C_R   0.341012 0.196823 0.644946 -0.141912
C167  C     C_R   0.369555 0.152504 0.326955 -0.148864
C168  C     C_R   0.340581 0.802144 0.644285 -0.141892
C169  C     C_R   0.871145 0.349418 0.824605 -0.147664
C170  C     C_R   0.840508 0.698539 0.144009 -0.146054
C171  C     C_R   0.871187 0.650764 0.824956 -0.147809
C172  C     C_R   0.840321 0.301215 0.143767 -0.145728
C173  C     C_R   0.110152 0.250069 0.860250 0.786693
C174  C     C_R   0.576168 0.652579 0.119731 -0.153393
C175  C     C_R   0.110178 0.750010 0.139855 0.782500
C176  C     C_R   0.110125 0.749944 0.860264 0.791272
C177  C     C_R   0.110211 0.249986 0.139870 0.787574
C178  C     C_R   0.610150 0.750119 0.360191 0.786696
C179  C     C_R   0.610112 0.249961 0.639794 0.783910
C180  C     C_R   0.610178 0.249951 0.360173 0.786631
C181  C     C_R   0.610164 0.750014 0.639812 0.783008
C182  C     C_R   0.924814 0.349322 0.878547 -0.151490
C183  C     C_R   0.894259 0.698258 0.090487 -0.142897
C184  C     C_R   0.924815 0.650908 0.878938 -0.150928
H1    H     H_    0.298972 0.456003 0.110031 0.182511
H2    H     H_    0.314237 0.212119 0.755430 0.125858
H3    H     H_    0.995368 0.213597 0.436502 0.128082
H4    H     H_    0.420026 0.061993 0.847814 0.219859
H5    H     H_    0.335047 0.091434 0.871503 0.214644
H6    H     H_    0.419551 0.115387 0.911003 0.272036
H7    H     H_    0.410138 0.936618 0.162005 0.224981
H8    H     H_    0.326656 0.907742 0.132397 0.210974
H9    H     H_    0.413226 0.883771 0.098018 0.272016
H10   H     H_    0.766362 0.623519 0.285030 0.204883
H11   H     H_    0.715417 0.633725 0.365818 0.235504
H12   H     H_    0.815335 0.625686 0.367780 0.258448
H13   H     H_    0.332925 0.183301 0.225645 0.112534
H14   H     H_    0.765343 0.376593 0.284959 0.204923
H15   H     H_    0.814308 0.374035 0.367672 0.257894
H16   H     H_    0.714306 0.366614 0.365761 0.236220
H17   H     H_    0.313733 0.786882 0.754764 0.128685
H18   H     H_    0.834312 0.318119 0.723771 0.106668
H19   H     H_    0.813445 0.714133 0.254315 0.132040
H20   H     H_    0.834395 0.681933 0.723953 0.106532
H21   H     H_    0.813277 0.285728 0.254120 0.131928
H22   H     H_    0.824430 0.374956 0.829425 0.118664
H23   H     H_    0.785891 0.685360 0.130971 0.132839
H24   H     H_    0.824510 0.625250 0.829842 0.118692
H25   H     H_    0.179583 0.544296 0.903264 0.187465
H26   H     H_    0.785654 0.314314 0.130647 0.132948
H27   H     H_    0.323609 0.874282 0.330422 0.124746
H28   H     H_    0.286584 0.183058 0.632227 0.134868
H29   H     H_    0.322509 0.127395 0.332353 0.125733
H30   H     H_    0.286007 0.815603 0.631373 0.134914
H31   H     H_    0.025526 0.317876 0.915758 0.109516
H32   H     H_    0.004846 0.713116 0.063779 0.127919
H33   H     H_    0.025450 0.682360 0.916097 0.108780
H34   H     H_    0.004769 0.286789 0.063682 0.126859
H35   H     H_    0.524901 0.817287 0.416415 0.108641
H36   H     H_    0.298972 0.543855 0.110051 0.182543
H37   H     H_    0.504769 0.212758 0.563952 0.126817
H38   H     H_    0.524647 0.183406 0.417115 0.108748
H39   H     H_    0.504710 0.786975 0.563761 0.127124
H40   H     H_    0.998326 0.041219 0.954861 0.144304
H41   H     H_    0.995704 0.959988 0.026542 0.144189
H42   H     H_    0.752228 0.547712 0.745867 0.124324
H43   H     H_    0.752044 0.452084 0.745860 0.124251
H44   H     H_    0.501401 0.034161 0.961967 0.159367
H45   H     H_    0.498409 0.965285 0.054045 0.159593
H46   H     H_    0.748534 0.545981 0.236626 0.140003
H47   H     H_    0.179593 0.455884 0.903234 0.187506
H48   H     H_    0.748191 0.454267 0.236605 0.140138
H49   H     H_    0.200733 0.456061 0.109765 0.181580
H50   H     H_    0.130795 0.544468 0.988271 0.153015
H51   H     H_    0.200732 0.543917 0.109785 0.181676
H52   H     H_    0.130799 0.455682 0.988239 0.152986
H53   H     H_    0.630819 0.955680 0.511120 0.152447
H54   H     H_    0.700879 0.043998 0.389994 0.180512
H55   H     H_    0.630821 0.044461 0.511151 0.152533
H56   H     H_    0.700878 0.956144 0.389974 0.180180
H57   H     H_    0.109127 0.918521 0.064259 0.161021
H58   H     H_    0.679504 0.955792 0.596379 0.184503
H59   H     H_    0.114418 0.082521 0.925950 0.157436
H60   H     H_    0.751222 0.404414 0.632027 0.112624
H61   H     H_    0.751588 0.595475 0.632041 0.112605
H62   H     H_    0.369095 0.455540 0.988911 0.153290
H63   H     H_    0.320457 0.544208 0.903657 0.186679
H64   H     H_    0.369097 0.544319 0.988942 0.153239
H65   H     H_    0.320449 0.455800 0.903628 0.186745
H66   H     H_    0.820376 0.955704 0.596699 0.185368
H67   H     H_    0.869117 0.044318 0.511701 0.152343
H68   H     H_    0.820365 0.044115 0.596730 0.184991
H69   H     H_    0.799118 0.043938 0.390207 0.179744
H70   H     H_    0.869121 0.955533 0.511667 0.152250
H71   H     H_    0.919754 0.374765 0.925297 0.123555
H72   H     H_    0.881375 0.684801 0.035927 0.134403
H73   H     H_    0.919765 0.625522 0.925780 0.123397
H74   H     H_    0.881190 0.314917 0.035666 0.134379
H75   H     H_    0.418848 0.873894 0.426362 0.123117
H76   H     H_    0.381575 0.183466 0.536693 0.134628
H77   H     H_    0.418147 0.127438 0.427841 0.122843
H78   H     H_    0.381280 0.815650 0.536084 0.135294
H79   H     H_    0.165794 0.182217 0.775992 0.105926
H80   H     H_    0.679511 0.044201 0.596408 0.184109
H81   H     H_    0.186308 0.786667 0.245371 0.126501
H82   H     H_    0.165938 0.817417 0.775513 0.113208
H83   H     H_    0.186576 0.213841 0.245755 0.129098
H84   H     H_    0.669184 0.687100 0.271386 0.113268
H85   H     H_    0.685859 0.287668 0.744711 0.125631
H86   H     H_    0.669298 0.312684 0.271034 0.113115
H87   H     H_    0.686099 0.712603 0.744973 0.125780
H88   H     H_    0.175777 0.125517 0.670184 0.124050
H89   H     H_    0.214063 0.815043 0.368866 0.135632
H90   H     H_    0.175966 0.873908 0.669411 0.125926
H91   H     H_    0.799118 0.956084 0.390186 0.179433
H92   H     H_    0.214384 0.185753 0.369419 0.135361
H93   H     H_    0.678779 0.629354 0.166470 0.118762
H94   H     H_    0.713528 0.316685 0.867918 0.133685
H95   H     H_    0.678948 0.370194 0.165784 0.118616
H96   H     H_    0.713825 0.683727 0.868290 0.133862
H97   H     H_    0.581145 0.627063 0.073056 0.122951
H98   H     H_    0.618533 0.316259 0.963461 0.134316
H99   H     H_    0.581380 0.372394 0.072303 0.122690
H100  H     H_    0.618723 0.684025 0.963743 0.134311
H101  H     H_    0.080311 0.125569 0.574479 0.123518
H102  H     H_    0.333788 0.817876 0.224318 0.108887
H103  H     H_    0.118792 0.814963 0.464176 0.135311
H104  H     H_    0.080405 0.873936 0.573813 0.123549
H105  H     H_    0.118973 0.185581 0.464560 0.135872
H106  H     H_    0.473839 0.682316 0.084287 0.110301
H107  H     H_    0.495314 0.287039 0.936175 0.128511
H108  H     H_    0.474079 0.317281 0.083769 0.109385
H109  H     H_    0.495376 0.713016 0.936252 0.127251
H110  H     H_    0.974362 0.182245 0.584245 0.108792
H111  H     H_    0.995345 0.786545 0.436389 0.127781
H112  H     H_    0.974405 0.817462 0.583881 0.108882
O1    O     O_3   0.249990 0.250010 0.000000 -0.482691
O2    O     O_R   0.835430 0.219350 0.353840 -0.638109
O3    O     O_R   0.835430 0.219350 0.646160 -0.639035
O4    O     O_R   0.835430 0.780650 0.353840 -0.638760
O5    O     O_R   0.164550 0.280640 0.853840 -0.634320
O6    O     O_R   0.164550 0.719360 0.146160 -0.635427
O7    O     O_R   0.164550 0.719360 0.853840 -0.636015
O8    O     O_R   0.164550 0.280640 0.146160 -0.637890
O9    O     O_R   0.664550 0.780640 0.353840 -0.638938
O10   O     O_R   0.664550 0.219360 0.646160 -0.639874
O11   O     O_R   0.664550 0.219360 0.353840 -0.638088
O12   O     O_3   0.249990 0.749990 0.000000 -0.482548
O13   O     O_R   0.664550 0.780640 0.646160 -0.639239
O14   O     O_R   0.396160 0.219380 0.914560 -0.654269
O15   O     O_R   0.396160 0.780620 0.085440 -0.653182
O16   O     O_R   0.396160 0.780620 0.914560 -0.635081
O17   O     O_R   0.396160 0.219380 0.085440 -0.634843
O18   O     O_R   0.896160 0.719380 0.414560 -0.638359
O19   O     O_R   0.896160 0.280620 0.585440 -0.632958
O20   O     O_R   0.896160 0.280620 0.414560 -0.638618
O21   O     O_R   0.896160 0.719380 0.585440 -0.633502
O22   O     O_R   0.103840 0.219370 0.085450 -0.634394
O23   O     O_3   0.749990 0.750010 0.500000 -0.485159
O24   O     O_R   0.103840 0.780630 0.914550 -0.634403
O25   O     O_R   0.103840 0.780630 0.085450 -0.648569
O26   O     O_R   0.103840 0.219370 0.914550 -0.647592
O27   O     O_R   0.603840 0.719370 0.585450 -0.634550
O28   O     O_R   0.603840 0.280630 0.414550 -0.635049
O29   O     O_R   0.603840 0.280630 0.585450 -0.634254
O30   O     O_R   0.603840 0.719370 0.414550 -0.634444
O31   O     O_R   0.310730 0.133160 0.000000 -0.627194
O32   O     O_R   0.310730 0.866840 0.000000 -0.625225
O33   O     O_R   0.810730 0.633160 0.500000 -0.640477
O34   O     O_3   0.749990 0.249990 0.500000 -0.485159
O35   O     O_R   0.810730 0.366840 0.500000 -0.640135
O36   O     O_R   0.249970 0.366860 0.060720 -0.646837
O37   O     O_R   0.249970 0.633140 0.939280 -0.643693
O38   O     O_R   0.249970 0.633140 0.060720 -0.646519
O39   O     O_R   0.249970 0.366860 0.939280 -0.643345
O40   O     O_R   0.749970 0.866860 0.560720 -0.644236
O41   O     O_R   0.749970 0.133140 0.439280 -0.647187
O42   O     O_R   0.749970 0.133140 0.560720 -0.644724
O43   O     O_R   0.749970 0.866860 0.439280 -0.647673
O44   O     O_R   0.189290 0.133150 0.000000 -0.648838
O45   O     O_R   0.335430 0.280650 0.146160 -0.636518
O46   O     O_R   0.189290 0.866850 0.000000 -0.652270
O47   O     O_R   0.689290 0.633150 0.500000 -0.637320
O48   O     O_R   0.689290 0.366850 0.500000 -0.637688
O49   O     O_R   0.335430 0.719350 0.853840 -0.637396
O50   O     O_R   0.335430 0.719350 0.146160 -0.634125
O51   O     O_R   0.335430 0.280650 0.853840 -0.634441
O52   O     O_R   0.835430 0.780650 0.646160 -0.638199
Zn1   Zn    Zn3+2 0.249990 0.293780 0.913250 0.955871
Zn2   Zn    Zn3+2 0.336760 0.793760 0.000000 0.950647
Zn3   Zn    Zn3+2 0.836760 0.706240 0.500000 0.958902
Zn4   Zn    Zn3+2 0.836760 0.293760 0.500000 0.958969
Zn5   Zn    Zn3+2 0.163250 0.206230 0.000000 0.951658
Zn6   Zn    Zn3+2 0.163250 0.793770 0.000000 0.950102
Zn7   Zn    Zn3+2 0.663250 0.706230 0.500000 0.962902
Zn8   Zn    Zn3+2 0.663250 0.293770 0.500000 0.962876
Zn9   Zn    Zn3+2 0.249990 0.706220 0.086750 0.954417
Zn10  Zn    Zn3+2 0.249990 0.706220 0.913250 0.960135
Zn11  Zn    Zn3+2 0.249990 0.293780 0.086750 0.958642
Zn12  Zn    Zn3+2 0.749990 0.793780 0.413250 0.949502
Zn13  Zn    Zn3+2 0.749990 0.206220 0.586750 0.951753
Zn14  Zn    Zn3+2 0.749990 0.206220 0.413250 0.950597
Zn15  Zn    Zn3+2 0.749990 0.793780 0.586750 0.952785
Zn16  Zn    Zn3+2 0.336760 0.206240 0.000000 0.948818

loop_
_geom_bond_atom_site_label_1
_geom_bond_atom_site_label_2
_ccdc_geom_bond_type
C53   O37   A    
C7    C168  A    
C42   H61   S    
O1    Zn16  S    
O49   Zn10  S    
C10   C184  A    
C107  C112  A    
C82   C120  A    
C74   C83   A    
C136  C140  A    
C108  O50   A    
C66   H64   S    
C23   C25   A    
C119  O51   A    
O12   Zn10  S    
C124  C133  A    
C24   C98   A    
O44   Zn5   S    
O39   Zn1   S    
C97   C124  S    
C181  O13   A    
C74   C112  A    
C159  H17   S    
C58   C60   S    
C29   C33   A    
C85   H90   S    
C105  C123  A    
C7    H78   S    
C8    C138  A    
C2    C90   A    
C62   C64   S    
C166  H28   S    
O41   Zn14  S    
C49   O46   A    
C175  O25   A    
C162  C171  A    
C4    C12   A    
O27   Zn7   S    
C74   H79   S    
C143  C151  A    
C180  O11   A    
C100  C109  A    
C21   C22   A    
O37   Zn10  S    
C10   C140  A    
C100  H111  S    
C57   H104  S    
O35   Zn4   S    
O47   Zn7   S    
C45   C47   A    
C14   C144  A    
C175  O6    A    
O43   Zn12  S    
C41   H60   S    
C27   C31   A    
C28   C32   A    
C127  C136  A    
C136  C162  A    
C20   C28   A    
C108  O15   A    
C33   C50   S    
C120  C155  A    
C17   C21   A    
C82   C91   A    
O1    Zn11  S    
C162  H20   S    
C19   C23   A    
C43   C44   A    
O50   Zn9   S    
C37   C38   A    
O34   Zn14  S    
O13   Zn15  S    
C90   H107  S    
C11   H34   S    
C90   C104  A    
C19   C94   S    
C46   C84   A    
O20   Zn4   S    
C30   C49   S    
C51   O35   A    
C31   C48   S    
C117  C153  A    
C94   H12   S    
C105  C118  A    
O23   Zn15  S    
C103  C121  A    
C92   H5    S    
C104  C117  A    
C75   H81   S    
C93   H8    S    
C87   C174  A    
C80   C117  A    
C94   H10   S    
C59   H51   S    
C96   H108  S    
C129  C156  A    
O21   Zn3   S    
C33   C38   A    
C98   C106  A    
C56   C59   S    
C103  C116  A    
C80   C88   A    
C63   H55   S    
C47   H42   S    
C81   H86   S    
C57   C85   A    
C54   O40   A    
C1    O45   A    
C83   H88   S    
O46   Zn6   S    
C169  C182  A    
C64   H56   S    
C3    C11   A    
C69   H67   S    
C56   H1    S    
C50   O33   A    
C106  C124  A    
C41   C45   A    
C31   C36   A    
C177  O22   A    
C77   C115  A    
C76   C85   A    
C78   C87   A    
C134  C160  A    
C65   H62   S    
C25   H48   S    
C76   H82   S    
C123  C132  A    
C60   H47   S    
C128  C137  A    
C99   H110  S    
C63   H80   S    
C178  O30   A    
O40   Zn15  S    
C132  C145  A    
C113  C148  A    
C181  O27   A    
C75   C84   A    
C104  C122  A    
C65   C70   S    
C61   C63   S    
C67   C72   S    
C45   H43   S    
O42   Zn13  S    
C168  H30   S    
C174  H97   S    
C152  O3    A    
C179  O29   A    
C119  O14   A    
C35   H101  S    
C62   C73   S    
O12   Zn2   S    
C75   C113  A    
C179  O10   A    
C110  C114  A    
O32   Zn2   S    
O31   Zn16  S    
C135  C161  A    
C79   C103  A    
C64   H91   S    
C139  C148  A    
C30   C34   A    
C13   C96   A    
C34   C39   A    
C17   C27   A    
C107  C125  A    
O34   Zn8   S    
C5    C166  A    
C82   H87   S    
O29   Zn8   S    
O52   Zn15  S    
C130  O21   A    
C32   C37   A    
C150  C177  S    
C145  C154  A    
C26   C30   A    
C164  C172  A    
C98   H109  S    
O33   Zn3   S    
C126  C163  S    
C122  C131  A    
C128  C141  S    
C58   H25   S    
C18   C22   A    
C78   C116  A    
O23   Zn12  S    
C49   O32   A    
C155  C181  S    
C57   C101  A    
C102  H3    S    
C12   C143  A    
C15   H38   S    
O11   Zn14  S    
C173  O5    A    
C118  C154  A    
C34   C36   A    
C37   C41   A    
C97   O49   A    
C58   C71   S    
C79   H106  S    
C55   C73   S    
C109  C126  A    
C40   C44   A    
C97   O16   A    
C111  C128  A    
C18   C93   S    
C167  H29   S    
C68   H105  S    
C88   H94   S    
C140  C149  A    
C116  C151  A    
C48   O44   A    
C10   H33   S    
C39   H57   S    
C125  C134  A    
C62   H69   S    
C96   C105  A    
C153  C179  S    
C154  C180  S    
C14   H37   S    
C18   C26   A    
C108  C121  S    
C137  C142  A    
O9    Zn12  S    
C102  C111  A    
C2    H98   S    
C55   O42   A    
C26   C27   A    
C152  O19   A    
C46   H103  S    
C28   C29   A    
C68   C102  A    
C1    O17   A    
C59   H36   S    
C163  O18   A    
C160  H18   S    
C3    C172  A    
C67   H70   S    
C20   C25   A    
C48   O31   A    
C89   H95   S    
C4    C165  A    
C80   H85   S    
C131  C157  A    
O23   Zn7   S    
C146  C155  A    
C95   H16   S    
C158  C167  A    
C160  C169  A    
C69   C73   S    
C44   H40   S    
C182  H71   S    
O45   Zn11  S    
C81   C89   A    
O36   Zn11  S    
C53   O38   A    
O7    Zn10  S    
C84   H89   S    
O38   Zn9   S    
C79   C174  A    
C92   H6    S    
C66   H63   S    
C93   H7    S    
O4    Zn12  S    
O6    Zn9   S    
O12   Zn9   S    
C176  O24   A    
C94   H11   S    
O34   Zn4   S    
C171  C184  A    
C183  H72   S    
C169  H22   S    
C35   C83   A    
C13   H99   S    
C63   C73   S    
O8    Zn11  S    
C81   C118  A    
C177  O8    A    
C132  C158  A    
C133  C159  A    
C86   H92   S    
C1    C123  S    
C32   C51   S    
C9    C183  A    
C101  H112  S    
O22   Zn5   S    
C66   C71   S    
C180  O28   A    
C92   H4    S    
O2    Zn14  S    
C5    C14   A    
C61   C72   S    
C7    C16   A    
C126  C135  A    
C4    H75   S    
O1    Zn5   S    
C19   C29   A    
O26   Zn5   S    
C8    C182  A    
C61   H58   S    
C21   H44   S    
C93   H9    S    
C121  C129  A    
C58   H50   S    
C147  C173  S    
C129  C143  A    
C52   O39   A    
C99   C107  A    
C135  C139  A    
C62   H54   S    
O14   Zn16  S    
C149  C176  S    
C142  C150  A    
C101  C110  A    
O34   Zn13  S    
C130  O52   A    
C163  O4    A    
C9    C139  A    
C22   H45   S    
C156  C165  A    
C95   H14   S    
O12   Zn6   S    
C54   O43   A    
C106  C120  A    
C5    H76   S    
C40   H59   S    
C67   H66   S    
O17   Zn16  S    
C16   H39   S    
C133  C146  A    
C114  C149  A    
C131  C144  A    
C65   H65   S    
C170  C183  A    
C68   C86   A    
C60   H52   S    
C8    H31   S    
O5    Zn1   S    
C156  H102  S    
O16   Zn2   S    
C50   O47   A    
O25   Zn6   S    
C38   C42   A    
C172  H26   S    
C164  H21   S    
O3    Zn13  S    
O23   Zn3   S    
C173  O26   A    
C158  H13   S    
C159  C168  A    
C16   C146  A    
C87   H93   S    
C144  C153  A    
C69   H68   S    
C6    C15   A    
O1    Zn1   S    
C24   H100  S    
C52   O36   A    
C51   O48   A    
O10   Zn13  S    
C76   C114  A    
C2    C88   A    
C12   H35   S    
C109  C113  A    
C110  C127  A    
O24   Zn6   S    
C141  O20   A    
C17   C92   S    
O15   Zn2   S    
C35   C99   A    
C9    H32   S    
C148  C175  S    
C36   C40   A    
C178  O9    A    
C157  H2    S    
C15   C145  A    
C165  H27   S    
C151  C178  S    
C39   C43   A    
C77   H83   S    
C67   C69   S    
C78   H84   S    
O18   Zn3   S    
O28   Zn8   S    
C125  C152  S    
O51   Zn1   S    
C60   C70   S    
C138  C147  A    
O48   Zn8   S    
C161  C170  A    
C141  O2    A    
C20   C95   S    
C77   C86   A    
C56   C70   S    
C56   H49   S    
O19   Zn4   S    
C112  C147  A    
C24   C91   A    
O30   Zn7   S    
C119  C122  S    
C46   C100  A    
C6    C167  A    
C13   C89   A    
C161  H19   S    
C157  C166  A    
C134  C138  A    
C137  C164  A    
C55   O41   A    
C3    H74   S    
C184  H73   S    
C176  O7    A    
C61   H53   S    
C127  C130  S    
C170  H23   S    
C115  C150  A    
C6    H77   S    
C42   C47   A    
C64   C72   S    
C91   H96   S    
C11   C142  A    
C23   H46   S    
C52   C70   S    
C54   C72   S    
C95   H15   S    
C65   C66   S    
C111  C115  A    
C171  H24   S    
C43   H41   S    
C59   C71   S    
C53   C71   S    
