data_mof_unit_61544.cif
_audit_creation_date              2012-12-10T18:25:14-0500
_audit_creation_method            fapswitch 2.2
_symmetry_space_group_name_H-M    P1
_symmetry_Int_Tables_number       1
_space_group_crystal_system       triclinic
_cell_length_a                    19.407522
_cell_length_b                    15.884895
_cell_length_c                    14.63515
_cell_angle_alpha                 90.018704
_cell_angle_beta                  89.611896
_cell_angle_gamma                 89.934739
_cell_volume                      4511.71174085

loop_
_atom_site_label
_atom_site_type_symbol
_atom_type_description
_atom_site_fract_x
_atom_site_fract_y
_atom_site_fract_z
_atom_type_partial_charge
C1    C     C_R   0.499939 0.339461 0.499983 0.809516
C2    C     C_R   0.500060 0.660539 0.500017 0.809575
C3    C     C_3   0.562993 0.972143 0.524586 -0.294606
C4    C     C_3   0.437002 0.027857 0.475414 -0.294640
C5    C     C_3   0.546707 0.028091 0.441360 0.735456
C6    C     C_3   0.453288 0.971909 0.558640 0.735424
C7    C     C_1   0.499751 0.249859 0.500034 -0.127407
C8    C     C_1   0.500246 0.750141 0.499966 -0.127371
C9    C     C_3   0.514929 0.027968 0.584755 -0.282528
C10   C     C_3   0.485066 0.972032 0.415245 -0.282514
C11   C     C_3   0.499408 0.082864 0.500568 -0.031910
C12   C     C_3   0.500587 0.917137 0.499432 -0.031909
C13   C     C_1   0.499582 0.174400 0.500232 0.071562
C14   C     C_1   0.500414 0.825600 0.499769 0.071575
C15   C     C_3   0.494321 0.578368 0.969359 0.615107
C16   C     C_3   0.505680 0.421631 0.030641 0.615056
C17   C     C_3   0.440148 0.534070 0.031209 -0.430283
C18   C     C_3   0.559853 0.465930 0.968791 -0.430318
C19   C     C_3   0.552696 0.545109 0.030317 0.601312
C20   C     C_3   0.447305 0.454891 0.969683 0.601440
C21   C     C_3   0.499460 0.500280 0.091972 -0.315008
C22   C     C_3   0.500541 0.499719 0.908028 -0.315044
C23   C     C_R   0.367077 0.499240 0.500462 0.870419
C24   C     C_R   0.632925 0.500738 0.499539 0.870514
C25   C     C_1   0.499805 0.500099 0.194315 0.362910
C26   C     C_1   0.500196 0.499901 0.805685 0.363036
C27   C     C_R   0.253220 0.486697 0.583280 0.387102
C28   C     C_R   0.746791 0.513027 0.416699 0.386993
C29   C     C_R   0.181198 0.488768 0.581764 0.509733
C30   C     C_R   0.818813 0.510932 0.418235 0.509595
C31   C     C_R   0.145778 0.499376 0.499078 -0.235686
C32   C     C_R   0.854221 0.500468 0.500945 -0.235541
C33   C     C_R   0.183314 0.510612 0.417149 0.443441
C34   C     C_R   0.816681 0.489372 0.582888 0.443360
C35   C     C_R   0.255484 0.508217 0.418919 -0.333881
C36   C     C_R   0.744511 0.491823 0.581115 -0.333834
C37   C     C_R   0.291006 0.498185 0.501367 -0.284435
C38   C     C_R   0.708996 0.501736 0.498640 -0.284326
C39   C     C_R   0.930162 0.500394 0.500815 0.514043
C40   C     C_R   0.069834 0.499456 0.499213 0.513942
Cu1   Cu    Cu3+1 0.500010 0.500000 0.590220 1.035810
Cu2   Cu    Cu3+1 0.499990 0.500000 0.409780 1.035794
H1    H     H_    0.283766 0.513909 0.355204 0.206541
H2    H     H_    0.716228 0.486268 0.644846 0.206580
H3    H     H_    0.614827 0.948555 0.543538 0.192308
H4    H     H_    0.385168 0.051445 0.456463 0.192294
H5    H     H_    0.473745 0.948349 0.345579 0.198053
H6    H     H_    0.526250 0.051652 0.654422 0.198051
H7    H     H_    0.390887 0.562097 0.055411 0.220560
H8    H     H_    0.609115 0.437902 0.944589 0.220548
N1    N     N_R   0.034362 0.546907 0.438488 -0.183444
N2    N     N_R   0.965634 0.452944 0.561540 -0.183549
N3    N     N_R   0.965854 0.547312 0.439221 -0.147505
N4    N     N_R   0.034140 0.452537 0.560805 -0.147355
N5    N     N_1   0.499980 0.500000 0.274190 -0.154203
N6    N     N_1   0.500020 0.500000 0.725810 -0.154183
O1    O     O_R   0.500010 0.379080 0.576170 -0.584443
O2    O     O_R   0.499990 0.620920 0.423830 -0.584418
O3    O     O_R   0.500000 0.379080 0.423800 -0.549705
O4    O     O_R   0.500000 0.620920 0.576200 -0.549747
O5    O     O_R   0.400150 0.499990 0.576210 -0.528438
O6    O     O_R   0.599850 0.500010 0.423790 -0.528461
O7    O     O_R   0.400140 0.499990 0.423840 -0.591072
O8    O     O_R   0.599860 0.500010 0.576160 -0.591097
O9    O     O_3   0.286160 0.477882 0.666219 -0.514702
C41   C     C_3   0.292082 0.391272 0.685944 -0.109286
H9    H     H_    0.320777 0.384060 0.750782 0.224154
H10   H     H_    0.321669 0.357431 0.631748 0.105520
H11   H     H_    0.240581 0.361772 0.695680 0.184566
O10   O     O_3   0.713855 0.521578 0.333724 -0.514901
C42   C     C_3   0.708076 0.608114 0.313558 -0.109145
H12   H     H_    0.678658 0.642296 0.367662 0.105577
H13   H     H_    0.679279 0.615119 0.248774 0.224223
H14   H     H_    0.759619 0.637411 0.303492 0.184966
F1    F     F_    0.392895 0.406754 0.938874 -0.603005
F2    F     F_    0.607107 0.593245 0.061124 -0.603288
F3    F     F_    0.146114 0.482173 0.662108 -0.597787
F4    F     F_    0.853914 0.517324 0.337887 -0.597979
O11   O     O_3   0.149159 0.515666 0.334522 -0.537550
C43   C     C_3   0.159834 0.596060 0.295945 -0.170227
H15   H     H_    0.213194 0.602601 0.268910 0.147190
H16   H     H_    0.148064 0.647391 0.345599 0.156092
H17   H     H_    0.124285 0.603668 0.237486 0.211190
O12   O     O_3   0.850830 0.484404 0.665521 -0.537622
C44   C     C_3   0.840179 0.404032 0.704167 -0.170247
H18   H     H_    0.852021 0.352673 0.654578 0.156181
H19   H     H_    0.786805 0.397467 0.731148 0.147199
H20   H     H_    0.875701 0.396508 0.762666 0.211219
F5    F     F_    0.595240 0.058851 0.380420 -0.614263
F6    F     F_    0.404755 0.941149 0.619580 -0.614295
F7    F     F_    0.489440 0.660305 0.938254 -0.581292
F8    F     F_    0.510562 0.339695 0.061746 -0.581279

loop_
_geom_bond_atom_site_label_1
_geom_bond_atom_site_label_2
_ccdc_geom_bond_type
C41   H10   S    
C16   C21   S    
C27   C29   A    
Cu1   Cu2   S    
Cu1   O5    S    
Cu2   O2    S    
C6    C9    S    
C4    H4    S    
C44   H18   S    
C15   C19   S    
C3    C9    S    
C19   F2    S    
C35   C37   A    
C5    C11   S    
C1    O3    A    
C6    C12   S    
C2    O4    A    
C41   H11   S    
C17   C20   S    
C31   C40   S    
C18   C19   S    
C32   C39   S    
C3    C12   S    
C15   C22   S    
C23   O5    A    
C24   C38   S    
C31   C33   A    
O10   C42   S    
C35   H1    S    
Cu2   O6    S    
C23   O7    A    
C39   N2    A    
C24   O8    A    
C1    C7    S    
C34   O12   S    
C43   H17   S    
N2    N4    A    
C44   H19   S    
C28   O10   S    
O12   C44   S    
C4    C6    S    
C17   H7    S    
C42   H13   S    
C33   O11   S    
C23   C37   S    
C3    H3    S    
C17   C21   S    
C20   F1    S    
N1    N3    A    
C32   C34   A    
Cu1   N6    S    
C27   O9    S    
C1    O1    A    
Cu2   N5    S    
C28   C38   A    
C16   C20   S    
C4    C11   S    
C9    C11   S    
C10   C12   S    
C43   H16   S    
C12   C14   S    
C16   F8    S    
C40   N4    A    
C8    C14   T    
C36   H2    S    
C4    C10   S    
C18   H8    S    
C44   H20   S    
C15   C17   S    
C21   C25   S    
C24   O6    A    
C19   C21   S    
C18   C22   S    
C2    C8    S    
C25   N5    T    
Cu1   O4    S    
C20   C22   S    
C43   H15   S    
C3    C5    S    
C26   N6    T    
Cu2   O3    S    
C42   H14   S    
C2    O2    A    
C40   N1    A    
C42   H12   S    
C28   C30   A    
Cu1   O1    S    
C5    C10   S    
C29   C31   A    
C6    F6    S    
C30   C32   A    
C11   C13   S    
C39   N3    A    
C27   C37   A    
C36   C38   A    
C33   C35   A    
C41   H9    S    
C34   C36   A    
C15   F7    S    
O11   C43   S    
C30   F4    S    
C7    C13   T    
C29   F3    S    
C9    H6    S    
C16   C18   S    
O9    C41   S    
C22   C26   S    
C10   H5    S    
Cu1   O8    S    
Cu2   O7    S    
C5    F5    S    
