data_mof_unit_51800.cif
_audit_creation_date              2013-03-05T15:41:00-0500
_audit_creation_method            fapswitch 2.2
_symmetry_space_group_name_H-M    P1
_symmetry_Int_Tables_number       1
_space_group_crystal_system       triclinic
_cell_length_a                    28.145381
_cell_length_b                    18.398342
_cell_length_c                    16.979571
_cell_angle_alpha                 90.154476
_cell_angle_beta                  60.958387
_cell_angle_gamma                 90.297981
_cell_volume                      7686.89447843

loop_
_atom_site_label
_atom_site_type_symbol
_atom_site_description
_atom_site_fract_x
_atom_site_fract_y
_atom_site_fract_z
_atom_type_partial_charge
O1    O     O_R   0.746490 0.236330 0.638080 -0.628811
O2    O     O_R   0.253510 0.763670 0.361920 -0.624393
O3    O     O_R   0.253510 0.236330 0.361920 -0.626279
O4    O     O_R   0.746490 0.763670 0.638080 -0.629139
O5    O     O_R   0.246490 0.736330 0.638080 -0.623182
O6    O     O_R   0.753510 0.263670 0.361920 -0.628931
O7    O     O_R   0.753510 0.736330 0.361920 -0.628576
O8    O     O_R   0.246490 0.263670 0.638080 -0.625118
O9    O     O_R   0.674170 0.186160 0.516270 -0.605366
O10   O     O_R   0.325830 0.813840 0.483730 -0.606288
O11   O     O_R   0.325830 0.186160 0.483730 -0.624529
O12   O     O_R   0.674170 0.813840 0.516270 -0.606426
O13   O     O_R   0.174170 0.686160 0.516270 -0.605531
O14   O     O_R   0.825830 0.313840 0.483730 -0.606152
O15   O     O_R   0.825830 0.686160 0.483730 -0.626799
O16   O     O_R   0.174170 0.313840 0.516270 -0.623498
O17   O     O_R   0.739960 0.127620 0.525000 -0.623443
O18   O     O_R   0.260040 0.872380 0.475000 -0.624828
O19   O     O_R   0.260040 0.127620 0.475000 -0.618538
O20   O     O_R   0.739960 0.872380 0.525000 -0.613917
O21   O     O_R   0.239960 0.627620 0.525000 -0.622727
O22   O     O_R   0.760040 0.372380 0.475000 -0.624774
O23   O     O_R   0.760040 0.627620 0.475000 -0.630170
O24   O     O_R   0.239960 0.372380 0.525000 -0.618421
O25   O     O_R   0.680700 0.294870 0.629350 -0.610620
O26   O     O_R   0.319300 0.705130 0.370650 -0.610949
O27   O     O_R   0.319300 0.294870 0.370650 -0.617732
O28   O     O_R   0.680700 0.705130 0.629350 -0.618135
O29   O     O_R   0.180700 0.794870 0.629350 -0.608956
O30   O     O_R   0.819300 0.205130 0.370650 -0.610440
O31   O     O_R   0.819300 0.794870 0.370650 -0.612098
O32   O     O_R   0.180700 0.205130 0.629350 -0.618007
C1    C     C_R   0.701119 0.266487 0.676967 0.869587
C2    C     C_R   0.299480 0.734716 0.322734 0.865547
C3    C     C_R   0.294158 0.277122 0.326637 0.879230
C4    C     C_R   0.706524 0.721999 0.672669 0.880412
C5    C     C_R   0.201274 0.766754 0.677007 0.864446
C6    C     C_R   0.798925 0.233596 0.323025 0.870392
C7    C     C_R   0.799094 0.766122 0.322948 0.876105
C8    C     C_R   0.205916 0.222756 0.673291 0.879065
C9    C     C_R   0.691095 0.129405 0.535532 0.871708
C10   C     C_R   0.308827 0.870680 0.465017 0.868346
C11   C     C_R   0.308690 0.129211 0.465532 0.872999
C12   C     C_R   0.691207 0.870693 0.535104 0.893881
C13   C     C_R   0.191099 0.629382 0.535446 0.870785
C14   C     C_R   0.808866 0.370657 0.464809 0.870677
C15   C     C_R   0.808685 0.629224 0.465482 0.853927
C16   C     C_R   0.191259 0.370719 0.534858 0.874229
Zn1   Zn    Zn3+2 0.792340 0.208750 0.507670 1.064504
Zn2   Zn    Zn3+2 0.207660 0.791250 0.492330 1.066236
Zn3   Zn    Zn3+2 0.207660 0.208750 0.492330 1.062374
Zn4   Zn    Zn3+2 0.792340 0.791250 0.507670 1.065582
Zn5   Zn    Zn3+2 0.292340 0.708750 0.507670 1.068184
Zn6   Zn    Zn3+2 0.707660 0.291250 0.492330 1.061691
Zn7   Zn    Zn3+2 0.707660 0.708750 0.492330 1.058194
Zn8   Zn    Zn3+2 0.292340 0.291250 0.507670 1.063294
C17   C     C_R   0.537027 0.132175 0.536944 -0.077794
C18   C     C_R   0.460813 0.867779 0.471019 -0.078341
C19   C     C_R   0.459159 0.132611 0.477907 -0.083979
C20   C     C_R   0.538562 0.867305 0.530333 -0.078905
C21   C     C_R   0.037021 0.632092 0.536425 -0.077556
C22   C     C_R   0.961863 0.367863 0.467644 -0.078313
C23   C     C_R   0.959160 0.632646 0.477379 -0.082659
C24   C     C_R   0.039683 0.367296 0.526781 -0.083234
C25   C     C_R   0.516296 0.198887 0.525701 0.215151
C26   C     C_R   0.480847 0.801010 0.483767 0.217747
C27   C     C_R   0.478028 0.199156 0.494736 0.209492
C28   C     C_R   0.519022 0.800752 0.514938 0.218371
C29   C     C_R   0.015924 0.698798 0.526046 0.215755
C30   C     C_R   0.982583 0.301119 0.478844 0.214569
C31   C     C_R   0.977679 0.699144 0.495032 0.209916
C32   C     C_R   0.020819 0.300787 0.509874 0.210183
C33   C     C_R   0.478397 0.066361 0.492375 -0.009772
C34   C     C_R   0.519302 0.933563 0.515797 -0.010308
C35   C     C_R   0.518485 0.066176 0.519221 -0.010687
C36   C     C_R   0.479246 0.933764 0.488878 -0.010918
C37   C     C_R   0.978672 0.566372 0.491140 -0.009842
C38   C     C_R   0.020158 0.433573 0.512990 -0.009948
C39   C     C_R   0.018767 0.566149 0.517966 -0.010792
C40   C     C_R   0.980077 0.433802 0.486134 -0.010976
C41   C     C_R   0.958953 0.500207 0.475845 0.030997
C42   C     C_R   0.040013 0.499749 0.527946 0.030790
C43   C     C_R   0.458463 0.000168 0.477675 0.031406
C44   C     C_R   0.539496 0.999777 0.529850 0.030803
C45   C     C_R   0.894202 0.434324 0.444791 0.034898
C46   C     C_R   0.105338 0.565671 0.557493 0.035008
C47   C     C_R   0.105983 0.433533 0.554576 0.030521
C48   C     C_R   0.893515 0.566443 0.447825 0.031188
C49   C     C_R   0.393895 0.934264 0.446210 0.034520
C50   C     C_R   0.605185 0.065744 0.558373 0.034614
C51   C     C_R   0.605617 0.933586 0.556157 0.033338
C52   C     C_R   0.393375 0.066383 0.448659 0.030922
C53   C     C_R   0.843747 0.434993 0.443579 -0.120685
C54   C     C_R   0.156166 0.565028 0.557358 -0.122526
C55   C     C_R   0.156458 0.434690 0.555976 -0.115206
C56   C     C_R   0.843428 0.565277 0.445055 -0.109908
C57   C     C_R   0.343672 0.934977 0.444187 -0.120490
C58   C     C_R   0.656137 0.065076 0.557769 -0.120613
C59   C     C_R   0.656346 0.934703 0.556682 -0.122548
C60   C     C_R   0.343411 0.065238 0.445437 -0.114670
C61   C     C_R   0.821019 0.500044 0.439036 -0.291223
C62   C     C_R   0.179102 0.499957 0.561305 -0.286193
C63   C     C_R   0.321071 0.000014 0.439258 -0.288585
C64   C     C_R   0.679131 0.999990 0.561570 -0.284729
H1    H     H_    0.782537 0.499857 0.438873 0.196700
H2    H     H_    0.217883 0.500149 0.560428 0.199267
H3    H     H_    0.282726 0.999833 0.438627 0.198273
H4    H     H_    0.718054 0.000175 0.560189 0.198822
C65   C     C_R   0.915804 0.500343 0.455445 0.068879
C66   C     C_R   0.083491 0.499632 0.547490 0.069951
C67   C     C_R   0.415474 0.000291 0.456858 0.068517
C68   C     C_R   0.583124 0.999682 0.549009 0.070905
C69   C     C_R   0.077864 0.368907 0.557187 -0.157248
C70   C     C_R   0.921447 0.631067 0.446010 -0.155557
C71   C     C_R   0.923080 0.370057 0.438496 -0.152082
C72   C     C_R   0.076313 0.629928 0.564492 -0.152767
C73   C     C_R   0.577233 0.868994 0.559750 -0.150272
C74   C     C_R   0.421399 0.130974 0.446611 -0.156402
C75   C     C_R   0.422540 0.869947 0.440814 -0.148658
C76   C     C_R   0.576274 0.130055 0.565086 -0.153963
H5    H     H_    0.084447 0.319425 0.584151 0.210098
H6    H     H_    0.915299 0.680577 0.418572 0.210606
H7    H     H_    0.916283 0.321410 0.409834 0.203290
H8    H     H_    0.083563 0.678588 0.592575 0.203044
H9    H     H_    0.584167 0.819628 0.586494 0.206125
H10   H     H_    0.415332 0.180391 0.418909 0.210414
H11   H     H_    0.416077 0.821214 0.411902 0.203349
H12   H     H_    0.583623 0.178824 0.592865 0.203212
C77   C     C_R   0.718261 0.261638 0.956914 0.024038
C78   C     C_R   0.291319 0.755000 0.034382 0.024562
C79   C     C_R   0.278713 0.269326 0.046596 0.022471
C80   C     C_R   0.731228 0.711963 0.944434 0.025782
C81   C     C_R   0.232238 0.786998 0.942500 0.023388
C82   C     C_R   0.782255 0.239258 0.042705 0.024069
C83   C     C_R   0.791508 0.742751 0.034723 0.025803
C84   C     C_R   0.221684 0.229899 0.953088 0.022480
C85   C     C_R   0.766898 0.221256 0.913059 0.040259
C86   C     C_R   0.249520 0.807309 0.070304 0.041673
C87   C     C_R   0.222360 0.252299 0.095563 0.037868
C88   C     C_R   0.786045 0.735660 0.894686 0.035537
C89   C     C_R   0.273141 0.733597 0.908274 0.038277
C90   C     C_R   0.733652 0.279708 0.086525 0.041968
C91   C     C_R   0.740225 0.708186 0.080739 0.040330
C92   C     C_R   0.278039 0.246934 0.904099 0.037688
C93   C     C_R   0.800179 0.212925 0.954321 0.044652
C94   C     C_R   0.222918 0.827476 0.020121 0.049757
C95   C     C_R   0.193900 0.231157 0.048677 0.042905
C96   C     C_R   0.814879 0.756493 0.941198 0.042287
C97   C     C_R   0.306206 0.723446 0.949361 0.043375
C98   C     C_R   0.700370 0.288036 0.045267 0.045183
C99   C     C_R   0.707861 0.699790 0.038105 0.042058
C100  C     C_R   0.306525 0.267991 0.951003 0.042167
C101  C     C_R   0.638819 0.316106 0.955482 0.067442
C102  C     C_R   0.364565 0.688316 0.042068 0.063775
C103  C     C_R   0.361749 0.313276 0.046885 0.070590
C104  C     C_R   0.645314 0.675311 0.949254 0.071436
C105  C     C_R   0.162306 0.856725 0.928897 0.060678
C106  C     C_R   0.861524 0.184418 0.044325 0.066564
C107  C     C_R   0.867458 0.805309 0.040453 0.064089
C108  C     C_R   0.138564 0.186203 0.952899 0.067501
C109  C     C_R   0.613526 0.340511 0.904438 -0.136607
C110  C     C_R   0.387644 0.660687 0.094979 -0.137924
C111  C     C_R   0.386870 0.340288 0.096804 -0.142138
C112  C     C_R   0.616966 0.655066 0.901529 -0.139176
C113  C     C_R   0.127611 0.864286 0.889651 -0.128658
C114  C     C_R   0.886654 0.159721 0.095486 -0.136969
C115  C     C_R   0.889164 0.836481 0.093947 -0.143096
C116  C     C_R   0.113341 0.159423 0.903046 -0.135657
C117  C     C_R   0.632530 0.317723 0.816938 -0.299548
C118  C     C_R   0.367904 0.682374 0.183140 -0.295681
C119  C     C_R   0.365024 0.324029 0.186558 -0.289261
C120  C     C_R   0.637320 0.674134 0.813002 -0.295773
C121  C     C_R   0.137869 0.827270 0.812688 -0.300534
C122  C     C_R   0.867581 0.182391 0.183057 -0.298992
C123  C     C_R   0.868340 0.816837 0.182982 -0.290704
C124  C     C_R   0.135158 0.175712 0.813320 -0.291032
H13   H     H_    0.613429 0.337625 0.779023 0.200275
H14   H     H_    0.384926 0.659143 0.222604 0.200984
H15   H     H_    0.387200 0.337802 0.221977 0.198876
H16   H     H_    0.613342 0.664104 0.779694 0.197171
H17   H     H_    0.113463 0.837640 0.780344 0.198628
H18   H     H_    0.886556 0.162270 0.221070 0.200221
H19   H     H_    0.885434 0.840574 0.222320 0.201458
H20   H     H_    0.112919 0.162069 0.777969 0.199924
C125  C     C_R   0.677899 0.274467 0.774970 -0.121056
C126  C     C_R   0.324236 0.728687 0.223819 -0.123276
C127  C     C_R   0.313315 0.296068 0.232970 -0.118163
C128  C     C_R   0.689285 0.700899 0.764959 -0.112412
C129  C     C_R   0.181124 0.780939 0.773154 -0.123397
C130  C     C_R   0.822275 0.225781 0.224973 -0.121625
C131  C     C_R   0.823434 0.772168 0.224616 -0.122959
C132  C     C_R   0.186870 0.203641 0.766872 -0.119380
C133  C     C_R   0.704603 0.249469 0.824085 0.064254
C134  C     C_R   0.301224 0.759571 0.171654 0.067802
C135  C     C_R   0.281450 0.286154 0.188676 0.052165
C136  C     C_R   0.723328 0.707614 0.806061 0.049915
C137  C     C_R   0.209872 0.760802 0.820731 0.069815
C138  C     C_R   0.795741 0.251068 0.175725 0.065945
C139  C     C_R   0.798647 0.743075 0.174150 0.063833
C140  C     C_R   0.218817 0.213397 0.811067 0.051021
C141  C     C_R   0.687281 0.275828 0.912059 0.073211
C142  C     C_R   0.318952 0.734254 0.082903 0.075877
C143  C     C_R   0.307424 0.288730 0.093848 0.079446
C144  C     C_R   0.699854 0.699019 0.900080 0.076523
C145  C     C_R   0.201225 0.801057 0.897817 0.073488
C146  C     C_R   0.813134 0.224852 0.087672 0.073526
C147  C     C_R   0.819298 0.763638 0.083063 0.076555
C148  C     C_R   0.192914 0.210650 0.905883 0.077732
C149  C     C_R   0.617271 0.329110 0.048682 -0.173438
C150  C     C_R   0.385635 0.673013 0.949275 -0.173970
C151  C     C_R   0.388740 0.311078 0.952488 -0.177383
C152  C     C_R   0.621385 0.671904 0.043772 -0.170816
C153  C     C_R   0.160322 0.903509 0.996580 -0.172348
C154  C     C_R   0.883160 0.171531 0.951091 -0.172575
C155  C     C_R   0.892120 0.813509 0.946067 -0.177103
C156  C     C_R   0.111636 0.188260 0.047300 -0.184146
C157  C     C_R   0.647869 0.317550 0.091713 -0.205543
C158  C     C_R   0.355622 0.686189 0.905766 -0.204684
C159  C     C_R   0.361994 0.288851 0.905694 -0.194021
C160  C     C_R   0.652147 0.682338 0.086999 -0.202899
C161  C     C_R   0.188425 0.887967 0.042968 -0.200742
C162  C     C_R   0.852664 0.183341 0.907927 -0.203226
C163  C     C_R   0.866393 0.790280 0.897831 -0.198868
C164  C     C_R   0.138453 0.210234 0.094036 -0.200169
C165  C     C_R   0.747170 0.198102 0.790315 -0.156744
C166  C     C_R   0.261981 0.815390 0.203342 -0.166226
C167  C     C_R   0.224739 0.276347 0.235341 -0.159146
C168  C     C_R   0.779937 0.720440 0.756976 -0.156975
C169  C     C_R   0.246766 0.702491 0.794538 -0.153431
C170  C     C_R   0.753267 0.302567 0.209458 -0.159609
C171  C     C_R   0.754567 0.693335 0.209759 -0.160083
C172  C     C_R   0.275527 0.223278 0.764327 -0.159141
C173  C     C_R   0.778579 0.186230 0.831960 -0.197064
C174  C     C_R   0.236484 0.838066 0.154594 -0.195867
C175  C     C_R   0.196040 0.259510 0.190227 -0.194138
C176  C     C_R   0.810130 0.736203 0.800096 -0.194321
C177  C     C_R   0.278493 0.690278 0.835806 -0.191750
C178  C     C_R   0.721962 0.314676 0.167670 -0.200390
C179  C     C_R   0.724228 0.679849 0.166612 -0.203220
C180  C     C_R   0.304291 0.239956 0.809404 -0.192417
H21   H     H_    0.575896 0.346039 0.091456 0.179396
H22   H     H_    0.425888 0.652209 0.906979 0.183497
H23   H     H_    0.431487 0.324379 0.913483 0.167297
H24   H     H_    0.578261 0.663093 0.086088 0.173259
H25   H     H_    0.138392 0.954149 0.013692 0.184151
H26   H     H_    0.924512 0.154444 0.908443 0.179954
H27   H     H_    0.932421 0.835946 0.906881 0.180410
H28   H     H_    0.068876 0.175070 0.086407 0.170721
H29   H     H_    0.628571 0.329602 0.162862 0.166144
H30   H     H_    0.373289 0.670302 0.835824 0.171202
H31   H     H_    0.386102 0.290097 0.833425 0.167486
H32   H     H_    0.630969 0.679292 0.159716 0.170509
H33   H     H_    0.183962 0.926066 0.094503 0.150909
H34   H     H_    0.872004 0.171353 0.836759 0.167359
H35   H     H_    0.887305 0.801635 0.826565 0.173151
H36   H     H_    0.114403 0.208751 0.166311 0.167120
H37   H     H_    0.756161 0.163618 0.733434 0.184447
H38   H     H_    0.251388 0.844953 0.264507 0.181044
H39   H     H_    0.200926 0.284716 0.307138 0.198133
H40   H     H_    0.802649 0.716345 0.684545 0.205122
H41   H     H_    0.250517 0.663691 0.744029 0.176115
H42   H     H_    0.744261 0.336910 0.266466 0.182126
H43   H     H_    0.742776 0.662061 0.269946 0.186759
H44   H     H_    0.299281 0.215141 0.692478 0.198703
H45   H     H_    0.810680 0.146648 0.801116 0.162237
H46   H     H_    0.205469 0.878882 0.186020 0.159353
H47   H     H_    0.152754 0.253815 0.232128 0.167358
H48   H     H_    0.852994 0.746074 0.757270 0.173003
H49   H     H_    0.305631 0.644259 0.812394 0.161154
H50   H     H_    0.689908 0.354326 0.198484 0.158953
H51   H     H_    0.689693 0.643636 0.199643 0.163214
H52   H     H_    0.347561 0.245817 0.767446 0.167868
O33   O     O_R   0.062020 0.072840 0.007170 -0.636171
O34   O     O_R   0.937980 0.927160 0.992830 -0.620647
O35   O     O_R   0.937980 0.072840 0.992830 -0.626692
O36   O     O_R   0.062020 0.927160 0.007170 -0.629449
O37   O     O_R   0.562020 0.572840 0.007170 -0.621237
O38   O     O_R   0.437980 0.427160 0.992830 -0.613941
O39   O     O_R   0.437980 0.572840 0.992830 -0.627397
O40   O     O_R   0.562020 0.427160 0.007170 -0.627912
O41   O     O_R   0.947860 0.073950 0.109290 -0.611939
O42   O     O_R   0.052140 0.926050 0.890710 -0.619918
O43   O     O_R   0.052140 0.073950 0.890710 -0.616882
O44   O     O_R   0.947860 0.926050 0.109290 -0.600929
O45   O     O_R   0.447860 0.573950 0.109290 -0.612229
O46   O     O_R   0.552140 0.426050 0.890710 -0.612349
O47   O     O_R   0.552140 0.573950 0.890710 -0.610032
O48   O     O_R   0.447860 0.426050 0.109290 -0.611625
C181  C     C_R   0.070857 0.104106 0.937469 0.875257
C182  C     C_R   0.928580 0.896380 0.062962 0.923442
C183  C     C_R   0.927450 0.102247 0.064053 0.901794
C184  C     C_R   0.079671 0.909192 0.928749 0.921634
C185  C     C_R   0.572375 0.602699 0.936342 0.898127
C186  C     C_R   0.429221 0.395819 0.062463 0.895108
C187  C     C_R   0.427412 0.602082 0.064169 0.907999
C188  C     C_R   0.572613 0.397822 0.935902 0.899426
Zn9   Zn    Zn3+2 0.505960 0.500000 0.080520 0.981315
Zn10  Zn    Zn3+2 0.494040 0.500000 0.919480 0.988874
Zn11  Zn    Zn3+2 0.005960 1.000000 0.080520 0.988848
Zn12  Zn    Zn3+2 0.994040 0.000000 0.919480 0.982384
N1    N     N_R   0.041306 0.232711 0.521745 0.218859
O49   O     O_R   0.007920 0.182750 0.573430 -0.335784
O50   O     O_R   0.092938 0.218374 0.475325 -0.397020
N2    N     N_R   0.956831 0.767203 0.483929 0.218874
O51   O     O_R   0.989963 0.817899 0.433500 -0.322536
O52   O     O_R   0.905038 0.780688 0.529716 -0.403297
N3    N     N_R   0.964344 0.233354 0.460434 0.218763
O53   O     O_R   0.999285 0.187727 0.403183 -0.350934
O54   O     O_R   0.913404 0.214594 0.506268 -0.380012
N4    N     N_R   0.033717 0.766519 0.545401 0.219399
O55   O     O_R   0.998496 0.811272 0.603754 -0.356596
O56   O     O_R   0.084430 0.786246 0.499240 -0.375189
N5    N     N_R   0.538616 0.732657 0.528757 0.218301
O57   O     O_R   0.504592 0.684084 0.582323 -0.341606
O58   O     O_R   0.589966 0.716741 0.482168 -0.383329
N6    N     N_R   0.457573 0.267211 0.482715 0.218838
O59   O     O_R   0.490983 0.317262 0.431291 -0.335618
O60   O     O_R   0.405881 0.281346 0.528526 -0.398228
N7    N     N_R   0.461846 0.733165 0.467039 0.218191
O61   O     O_R   0.496296 0.686079 0.411730 -0.344490
O62   O     O_R   0.410586 0.715917 0.512511 -0.380193
N8    N     N_R   0.534586 0.266682 0.543920 0.218661
O63   O     O_R   0.499700 0.312194 0.601476 -0.352586
O64   O     O_R   0.585441 0.285683 0.497437 -0.380215

loop_
_geom_bond_atom_site_label_1
_geom_bond_atom_site_label_2
_geom_bond_distance
_ccdc_geom_bond_type
N8    O64   1.301276 A    
O4    C4    1.245018 A    
C155  H27   1.078688 S    
O5    C5    1.248395 A    
C138  C146  1.412655 A    
O7    Zn7   2.012679 S    
C29   N4    1.436067 S    
O8    Zn8   2.012679 S    
C136  C168  1.413088 A    
C152  H24   1.080556 S    
N1    O49   1.301068 A    
O18   Zn2   2.011551 S    
C44   C68   1.414746 A    
O39   Zn10  1.985382 S    
C118  H14   1.084721 S    
C46   C66   1.405589 A    
C12   C59   1.464442 S    
C135  C143  1.409426 A    
C133  C141  1.412681 A    
C22   C30   1.414412 A    
C178  H50   1.079972 S    
C139  C171  1.416027 A    
C154  C162  1.390899 A    
C6    C130  1.470303 S    
O48   C186  1.271332 A    
C136  C144  1.409341 A    
C19   C33   1.406000 A    
C78   C142  1.433952 A    
C55   C62   1.379755 A    
O2    C2    1.252976 A    
C91   C99   1.419790 A    
O44   C182  1.272908 A    
C140  C148  1.409422 A    
C158  H30   1.081367 S    
O33   C181  1.228753 A    
O6    Zn6   2.013053 S    
C36   C43   1.409840 A    
C112  C185  1.457066 S    
C101  C141  1.408670 A    
C37   C39   1.407145 A    
N4    O56   1.301268 A    
C114  C122  1.377349 A    
C71   H7    1.077383 S    
C91   C179  1.401718 A    
C105  C145  1.405289 A    
O41   Zn11  2.001943 S    
C150  H22   1.076531 S    
C10   C57   1.462784 S    
C53   C61   1.379832 A    
C94   C161  1.405307 A    
C152  C160  1.392721 A    
O27   C3    1.294434 A    
C101  C109  1.436666 A    
N6    O59   1.301076 A    
C4    C128  1.450816 S    
C156  C164  1.392648 A    
C7    C131  1.469377 S    
C38   C42   1.410026 A    
C8    C132  1.452565 S    
O45   C187  1.272552 A    
O46   C188  1.274799 A    
C20   C73   1.400897 A    
O23   Zn7   2.021727 S    
C57   C63   1.379705 A    
O41   C183  1.274611 A    
C48   C65   1.406023 A    
O42   C184  1.266197 A    
O30   Zn1   2.068504 S    
C23   C31   1.414720 A    
C160  H32   1.080927 S    
C87   C175  1.412020 A    
C156  H28   1.081752 S    
O17   Zn1   2.011551 S    
C78   C86   1.412173 A    
C102  C110  1.435244 A    
O36   Zn11  1.985384 S    
C164  H36   1.076303 S    
C123  H19   1.084704 S    
C129  C137  1.443575 A    
C124  H20   1.085081 S    
C52   C67   1.406305 A    
C107  C147  1.410184 A    
O24   Zn8   2.021727 S    
O44   Zn11  1.992151 S    
O9    C9    1.257974 A    
C135  C167  1.406405 A    
C149  C157  1.390814 A    
C133  C165  1.413931 A    
C102  C150  1.416203 A    
O13   C13   1.257726 A    
C90   C98   1.425121 A    
O38   Zn10  1.978828 S    
O39   C187  1.222103 A    
C18   C75   1.400677 A    
C107  C115  1.435075 A    
C132  C140  1.434061 A    
C47   C69   1.413673 A    
C77   C85   1.413637 A    
C27   N6    1.436607 S    
C54   C62   1.380210 A    
O12   C12   1.252272 A    
O7    C7    1.246887 A    
C63   H3    1.084448 S    
O9    Zn6   2.098892 S    
O8    C8    1.248509 A    
C33   C43   1.409771 A    
C95   C164  1.416049 A    
C108  C156  1.401997 A    
N7    O62   1.301305 A    
O47   Zn10  1.992150 S    
O16   Zn3   2.105892 S    
C109  C117  1.377180 A    
C122  H18   1.084842 S    
C18   C36   1.406824 A    
O22   Zn6   2.011551 S    
C47   C66   1.406019 A    
C115  C182  1.464833 S    
O30   C6    1.308703 A    
C34   C36   1.407244 A    
C22   C40   1.407440 A    
O18   C10   1.299862 A    
C38   C40   1.407139 A    
C35   C44   1.409596 A    
N5    O58   1.301309 A    
O38   C186  1.228984 A    
C92   C180  1.412137 A    
C2    C126  1.477247 S    
C52   C74   1.413996 A    
O2    Zn2   2.013053 S    
C19   C27   1.414691 A    
C45   C53   1.430288 A    
C47   C55   1.432386 A    
O6    C6    1.249789 A    
C77   C141  1.434128 A    
C26   N7    1.436442 S    
N2    O52   1.301303 A    
C119  H15   1.085072 S    
C157  H29   1.079983 S    
C103  C143  1.410194 A    
C117  H13   1.084864 S    
O20   C12   1.297785 A    
C176  H48   1.078834 S    
O21   C13   1.298987 A    
C175  H47   1.076547 S    
C161  H33   1.078755 S    
C107  C155  1.411803 A    
C5    C129  1.468084 S    
O24   C16   1.297924 A    
C105  C113  1.432024 A    
C103  C111  1.428726 A    
O47   C185  1.275740 A    
C48   C56   1.433180 A    
C50   C76   1.412227 A    
C51   C68   1.406324 A    
C108  C148  1.410222 A    
O3    C3    1.248640 A    
C15   C56   1.463268 S    
C153  H25   1.078821 S    
O34   C182  1.226749 A    
C20   C28   1.414549 A    
O25   Zn6   2.068504 S    
C17   C76   1.401104 A    
C114  C183  1.461517 S    
C19   C74   1.400247 A    
C113  C184  1.443227 S    
C112  C120  1.369451 A    
C109  C188  1.461349 S    
C110  C187  1.459486 S    
C111  C119  1.371441 A    
C83   C147  1.432344 A    
C116  C124  1.371206 A    
C171  H43   1.075872 S    
C172  H44   1.079761 S    
C24   C38   1.406121 A    
C126  C134  1.445809 A    
C34   C44   1.409580 A    
C39   C42   1.409188 A    
C1    C125  1.470232 S    
C168  H40   1.078684 S    
C169  H41   1.079737 S    
C106  C154  1.413047 A    
C151  C159  1.393195 A    
C166  C174  1.398505 A    
C17   C35   1.407570 A    
O23   C15   1.298570 A    
C22   C71   1.401125 A    
C92   C100  1.429047 A    
C21   C39   1.407821 A    
O40   C188  1.221660 A    
C98   C157  1.405305 A    
C28   N5    1.436384 S    
N8    O63   1.301077 A    
C115  C123  1.378441 A    
C30   N3    1.436203 S    
O12   Zn7   2.105892 S    
C79   C87   1.421603 A    
O11   Zn8   2.105892 S    
C173  H45   1.079957 S    
O13   Zn2   2.098892 S    
C69   H5    1.076642 S    
C51   C59   1.432154 A    
C73   H9    1.076722 S    
O25   C1    1.308889 A    
C75   H11   1.077327 S    
C170  H42   1.077315 S    
O10   C10   1.256266 A    
C33   C35   1.407204 A    
C137  C145  1.417153 A    
C166  H38   1.077656 S    
O14   C14   1.256908 A    
C108  C116  1.428571 A    
C85   C93   1.425113 A    
C96   C163  1.409727 A    
C45   C65   1.405578 A    
C82   C146  1.433963 A    
C134  C142  1.416132 A    
C100  C159  1.416236 A    
N6    O60   1.301339 A    
O10   Zn5   2.098892 S    
C153  C161  1.391469 A    
C49   C75   1.412898 A    
C25   C27   1.409407 A    
O48   Zn9   1.992151 S    
C51   C73   1.413280 A    
O15   C15   1.250739 A    
C79   C143  1.431466 A    
C120  H16   1.085374 S    
C162  H34   1.079988 S    
C59   C64   1.379895 A    
C121  H17   1.085393 S    
C116  C181  1.455746 S    
C159  H31   1.076241 S    
C56   C61   1.379396 A    
O40   Zn9   1.985384 S    
O16   C16   1.251585 A    
C79   C100  1.419275 A    
C102  C142  1.409651 A    
O19   C11   1.299056 A    
N1    O50   1.301332 A    
C80   C144  1.430462 A    
C89   C97   1.421462 A    
N3    O53   1.301081 A    
C106  C146  1.408690 A    
C151  H23   1.081752 S    
C45   C71   1.412479 A    
C11   C60   1.463828 S    
C25   N8    1.436090 S    
C84   C148  1.431495 A    
O3    Zn3   2.012679 S    
O27   Zn8   2.068654 S    
C93   C162  1.405436 A    
C60   C63   1.379099 A    
C149  H21   1.077965 S    
O33   Zn11  1.978828 S    
O32   Zn3   2.068654 S    
O34   Zn12  1.978828 S    
C82   C90   1.413565 A    
C110  C118  1.378519 A    
C37   C41   1.410150 A    
C118  C126  1.377390 A    
C21   C72   1.401405 A    
O15   Zn4   2.105892 S    
C31   N2    1.436685 S    
C122  C130  1.377050 A    
O22   C14   1.299629 A    
C41   C65   1.415380 A    
C137  C169  1.409850 A    
C43   C67   1.415688 A    
C86   C174  1.411091 A    
C64   H4    1.084320 S    
O35   Zn12  1.985382 S    
C130  C138  1.444092 A    
O5    Zn5   2.013053 S    
C90   C178  1.406341 A    
C82   C93   1.415977 A    
N4    O55   1.301096 A    
C72   H8    1.077406 S    
O45   Zn9   2.001943 S    
C17   C25   1.414280 A    
C76   H12   1.077428 S    
C179  H51   1.081302 S    
C80   C88   1.419041 A    
C81   C89   1.409775 A    
C165  C173  1.392454 A    
C134  C166  1.412789 A    
C84   C92   1.421702 A    
O35   C183  1.221985 A    
C101  C149  1.413162 A    
N5    O57   1.301071 A    
C97   C158  1.399939 A    
C48   C70   1.414078 A    
C124  C132  1.372707 A    
O1    C1    1.249508 A    
C117  C125  1.376865 A    
N7    O61   1.301088 A    
O28   C4    1.296572 A    
C3    C127  1.452626 S    
O29   C5    1.310728 A    
C88   C176  1.407874 A    
C80   C99   1.413203 A    
C99   C160  1.408364 A    
C177  H49   1.080921 S    
C81   C94   1.421813 A    
C113  C121  1.373247 A    
C26   C28   1.409526 A    
C16   C55   1.463533 S    
C104  C152  1.408493 A    
C50   C68   1.405373 A    
C88   C96   1.430596 A    
O42   Zn12  2.001944 S    
O43   C181  1.271355 A    
C87   C95   1.428597 A    
O4    Zn4   2.012679 S    
C42   C66   1.414896 A    
C46   C72   1.412147 A    
C131  C139  1.442741 A    
C123  C131  1.377486 A    
C174  H46   1.078453 S    
O14   Zn1   2.098892 S    
C81   C145  1.432061 A    
C111  C186  1.456165 S    
C171  C179  1.389839 A    
C121  C129  1.368792 A    
C29   C31   1.409426 A    
C46   C54   1.429570 A    
C23   C70   1.399902 A    
O43   Zn12  1.992150 S    
O26   C2    1.309814 A    
O11   C11   1.250481 A    
C167  H39   1.079754 S    
O32   C8    1.294584 A    
C13   C54   1.463590 S    
O28   Zn7   2.068654 S    
C18   C26   1.414575 A    
O29   Zn2   2.068504 S    
C61   H1    1.084425 S    
C49   C57   1.430686 A    
N3    O54   1.301287 A    
O36   C184  1.219102 A    
C163  H35   1.078391 S    
C78   C97   1.416808 A    
C139  C147  1.414591 A    
O37   C185  1.222562 A    
C154  H26   1.078022 S    
C128  C136  1.438025 A    
O37   Zn9   1.978828 S    
N2    O51   1.301054 A    
C170  C178  1.392568 A    
C85   C173  1.406219 A    
C104  C144  1.412223 A    
O26   Zn5   2.068504 S    
C52   C60   1.433662 A    
C23   C37   1.405727 A    
C21   C29   1.414284 A    
C89   C177  1.409950 A    
C24   C69   1.400160 A    
C127  C135  1.433780 A    
C125  C133  1.444332 A    
C40   C41   1.409323 A    
C155  C163  1.395878 A    
C138  C170  1.413855 A    
C167  C175  1.389963 A    
C49   C67   1.405334 A    
C105  C153  1.413369 A    
C150  C158  1.388188 A    
O31   Zn4   2.068654 S    
C119  C127  1.372820 A    
C86   C94   1.431186 A    
C180  H52   1.076572 S    
C103  C151  1.401972 A    
C165  H37   1.077247 S    
C77   C98   1.416064 A    
O20   Zn4   2.021727 S    
C32   N1    1.436487 S    
O21   Zn5   2.011551 S    
C14   C53   1.463386 S    
O1    Zn1   2.013053 S    
C120  C128  1.372357 A    
C58   C64   1.380562 A    
C20   C34   1.406846 A    
C83   C91   1.412965 A    
O31   C7    1.304227 A    
C62   H2    1.084353 S    
C24   C32   1.414549 A    
O17   C9    1.298554 A    
C168  C176  1.393795 A    
C84   C95   1.419185 A    
C70   H6    1.076536 S    
C106  C114  1.436433 A    
O19   Zn3   2.021727 S    
C140  C172  1.406559 A    
C104  C112  1.433534 A    
C83   C96   1.415870 A    
C172  C180  1.390381 A    
C9    C58   1.463240 S    
O46   Zn10  2.001944 S    
C30   C32   1.409407 A    
C74   H10   1.076524 S    
C169  C177  1.396179 A    
C50   C58   1.429205 A    
