data_mof_unit_55685.cif
_audit_creation_date              2013-03-05T15:41:12-0500
_audit_creation_method            fapswitch 2.2
_symmetry_space_group_name_H-M    P1
_symmetry_Int_Tables_number       1
_space_group_crystal_system       triclinic
_cell_length_a                    16.859204
_cell_length_b                    16.816676
_cell_length_c                    16.794374
_cell_angle_alpha                 68.193462
_cell_angle_beta                  67.935106
_cell_angle_gamma                 68.779623
_cell_volume                      3957.74294504

loop_
_atom_site_label
_atom_site_type_symbol
_atom_site_description
_atom_site_fract_x
_atom_site_fract_y
_atom_site_fract_z
_atom_type_partial_charge
O1    O     O_R   0.124540 0.978640 0.385460 -0.600131
O2    O     O_R   0.875460 0.021360 0.614540 -0.595026
O3    O     O_R   0.978640 0.385460 0.124540 -0.584552
O4    O     O_R   0.021360 0.614540 0.875460 -0.588413
O5    O     O_R   0.385460 0.124540 0.978640 -0.586404
O6    O     O_R   0.614540 0.875460 0.021360 -0.568992
O7    O     O_R   0.614540 0.021360 0.875460 -0.598773
O8    O     O_R   0.385460 0.978640 0.124540 -0.561770
O9    O     O_R   0.875460 0.614540 0.021360 -0.557598
O10   O     O_R   0.124540 0.385460 0.978640 -0.604700
O11   O     O_R   0.021360 0.875460 0.614540 -0.588061
O12   O     O_R   0.978640 0.124540 0.385460 -0.544182
C1    C     C_R   0.312694 0.003007 0.434176 -0.050085
C2    C     C_R   0.676899 0.060197 0.541260 -0.023269
C3    C     C_R   0.945424 0.453681 0.328740 -0.057478
C4    C     C_R   0.038096 0.550236 0.678784 -0.011931
C5    C     C_R   0.443086 0.318150 0.980180 -0.047707
C6    C     C_R   0.548531 0.676380 0.043264 -0.057642
C7    C     C_R   0.549811 0.048999 0.674728 -0.059197
C8    C     C_R   0.450999 0.971234 0.317359 -0.022071
C9    C     C_R   0.689201 0.574924 0.983091 -0.059512
C10   C     C_R   0.316432 0.449556 0.971633 -0.057580
C11   C     C_R   0.983408 0.691236 0.577565 -0.058431
C12   C     C_R   0.960184 0.320969 0.452434 -0.018422
Cu1   Cu    Cu3+1 0.995180 0.995180 0.424630 1.036354
Cu2   Cu    Cu3+1 0.004820 0.004820 0.575370 0.992956
Cu3   Cu    Cu3+1 0.995180 0.424630 0.995180 1.045223
Cu4   Cu    Cu3+1 0.004820 0.575370 0.004820 1.057915
Cu5   Cu    Cu3+1 0.424630 0.995180 0.995180 1.039182
Cu6   Cu    Cu3+1 0.575370 0.004820 0.004820 1.034946
C13   C     C_R   0.019235 0.829937 0.568237 0.864808
C14   C     C_R   0.979197 0.170478 0.433142 0.916633
C15   C     C_R   0.830532 0.569240 0.015303 0.879736
C16   C     C_R   0.171208 0.435063 0.973630 0.817546
C17   C     C_R   0.565095 0.028509 0.827871 0.822361
C18   C     C_R   0.435597 0.971994 0.171727 0.870917
C19   C     C_R   0.433824 0.171148 0.976475 0.844807
C20   C     C_R   0.564385 0.828407 0.027416 0.853070
C21   C     C_R   0.975685 0.434376 0.171560 0.861782
C22   C     C_R   0.029513 0.564224 0.828033 0.904594
C23   C     C_R   0.170402 0.980581 0.432240 0.832079
C24   C     C_R   0.828338 0.032359 0.562984 0.929772
O13   O     O_R   0.013780 0.867370 0.487190 -0.602839
O14   O     O_R   0.986220 0.132630 0.512810 -0.580311
O15   O     O_R   0.867370 0.487190 0.013780 -0.538455
O16   O     O_R   0.132630 0.512810 0.986220 -0.589471
O17   O     O_R   0.487190 0.013780 0.867370 -0.591296
O18   O     O_R   0.512810 0.986220 0.132630 -0.537688
O19   O     O_R   0.512810 0.132630 0.986220 -0.570738
O20   O     O_R   0.487190 0.867370 0.013780 -0.543343
O21   O     O_R   0.986220 0.512810 0.132630 -0.546602
O22   O     O_R   0.013780 0.487190 0.867370 -0.536366
O23   O     O_R   0.132630 0.986220 0.512810 -0.593734
O24   O     O_R   0.867370 0.013780 0.487190 -0.522257
C25   C     C_R   0.405410 0.992763 0.398962 -0.008047
C26   C     C_R   0.591047 0.047182 0.584654 0.004838
C27   C     C_R   0.957884 0.411388 0.414375 -0.024725
C28   C     C_R   0.003309 0.597809 0.605001 -0.007880
C29   C     C_R   0.402981 0.407934 0.979175 0.000138
C30   C     C_R   0.594828 0.601738 0.009355 -0.021867
C31   C     C_R   0.266876 0.978797 0.393462 -0.078704
C32   C     C_R   0.728756 0.055559 0.594659 -0.052950
C33   C     C_R   0.968150 0.398619 0.269721 -0.074248
C34   C     C_R   0.044771 0.598705 0.728714 -0.022629
C35   C     C_R   0.396588 0.268708 0.968989 -0.094843
C36   C     C_R   0.598934 0.729807 0.040210 -0.061583
C37   C     C_R   0.599808 0.048429 0.727288 -0.057757
C38   C     C_R   0.401965 0.960033 0.270430 -0.067220
C39   C     C_R   0.735332 0.611251 0.012526 -0.085720
C40   C     C_R   0.268896 0.400614 0.961667 -0.050981
C41   C     C_R   0.018479 0.734848 0.610386 -0.069342
C42   C     C_R   0.974107 0.267293 0.396945 -0.026231
C43   C     C_R   0.456314 0.063844 0.705352 0.290428
C44   C     C_R   0.545088 0.957079 0.287563 0.342803
C45   C     C_R   0.926257 0.736799 0.521313 0.291220
C46   C     C_R   0.942526 0.290035 0.546495 0.323007
C47   C     C_R   0.731875 0.511548 0.931541 0.319080
C48   C     C_R   0.282676 0.540906 0.970741 0.288240
C49   C     C_R   0.269922 0.036793 0.509949 0.293137
C50   C     C_R   0.704678 0.083880 0.445424 0.318429
C51   C     C_R   0.529405 0.282385 0.992652 0.288218
C52   C     C_R   0.454644 0.692722 0.082484 0.338635
C53   C     C_R   0.907237 0.547647 0.309453 0.334626
C54   C     C_R   0.066633 0.456271 0.698686 0.305271
C55   C     C_R   0.315140 0.950191 0.315592 0.027432
C56   C     C_R   0.685816 0.061751 0.683672 0.062829
C57   C     C_R   0.994918 0.305221 0.303938 0.071639
C58   C     C_R   0.052602 0.685975 0.685098 0.033369
C59   C     C_R   0.313330 0.314308 0.949990 0.026372
C60   C     C_R   0.687012 0.688686 0.042973 -0.000611
C61   C     C_R   0.661292 0.064807 0.398190 -0.052311
C62   C     C_R   0.319651 0.019914 0.568765 -0.023899
C63   C     C_R   0.030295 0.412028 0.668461 0.001314
C64   C     C_R   0.906170 0.598614 0.362843 -0.066164
C65   C     C_R   0.405153 0.646016 0.072138 -0.058853
C66   C     C_R   0.583208 0.341727 0.960084 -0.013035
C67   C     C_R   0.585283 0.996208 0.319643 -0.041132
C68   C     C_R   0.414672 0.033523 0.667244 -0.031796
C69   C     C_R   0.317026 0.572149 0.014828 -0.026461
C70   C     C_R   0.682859 0.459362 0.928700 -0.053079
C71   C     C_R   0.975098 0.326141 0.588604 0.005717
C72   C     C_R   0.925655 0.693172 0.463032 -0.035669
C73   C     C_R   0.689998 0.075071 0.304273 0.145533
C74   C     C_R   0.282247 0.008602 0.661962 0.205743
C75   C     C_R   0.025257 0.322424 0.710608 0.170525
C76   C     C_R   0.869479 0.692656 0.348174 0.113042
C77   C     C_R   0.310452 0.659406 0.106223 0.172437
C78   C     C_R   0.674359 0.321775 0.915409 0.155302
C79   C     C_R   0.664279 0.025225 0.270045 0.150291
C80   C     C_R   0.331284 0.013161 0.712213 0.198101
C81   C     C_R   0.266160 0.632730 0.066686 0.159160
C82   C     C_R   0.719631 0.389086 0.886060 0.160394
C83   C     C_R   0.997572 0.279473 0.670497 0.190243
C84   C     C_R   0.892594 0.739329 0.387628 0.182889
C85   C     C_R   0.540212 0.013224 0.403492 -0.004408
C86   C     C_R   0.457156 0.026149 0.579504 -0.015527
C87   C     C_R   0.979642 0.414826 0.548603 -0.019236
C88   C     C_R   0.952670 0.599654 0.485367 -0.014741
C89   C     C_R   0.406739 0.536742 0.009474 -0.009583
C90   C     C_R   0.590964 0.479190 0.968621 -0.016211
C91   C     C_R   0.583343 0.035853 0.446762 0.004848
C92   C     C_R   0.410132 0.016242 0.531638 -0.014763
C93   C     C_R   0.452770 0.580152 0.026842 -0.021393
C94   C     C_R   0.541693 0.425915 0.972279 -0.002386
C95   C     C_R   0.998724 0.459531 0.592565 -0.028800
C96   C     C_R   0.943248 0.553065 0.435542 -0.018756
C97   C     C_R   0.452313 0.006720 0.444877 0.012938
C98   C     C_R   0.543894 0.036735 0.536793 0.022394
C99   C     C_R   0.960582 0.460168 0.465713 0.012821
C100  C     C_R   0.986187 0.552155 0.560168 0.011173
C101  C     C_R   0.450470 0.456974 0.987181 0.008582
C102  C     C_R   0.546416 0.554155 0.001325 0.012549
C103  C     C_3   0.278353 0.899834 0.285981 -0.663674
H1    H     H_    0.332803 0.856180 0.249477 0.301043
H2    H     H_    0.243459 0.853758 0.343947 0.212376
H3    H     H_    0.234529 0.945821 0.243181 0.245152
C104  C     C_3   0.726521 0.094656 0.727980 -0.657497
H4    H     H_    0.675020 0.141570 0.765335 0.226907
H5    H     H_    0.763008 0.038279 0.772500 0.231858
H6    H     H_    0.771878 0.134352 0.678322 0.290825
C105  C     C_3   0.057679 0.247083 0.242510 -0.732191
H7    H     H_    0.102526 0.188959 0.276837 0.228268
H8    H     H_    0.019691 0.223836 0.217948 0.261174
H9    H     H_    0.103401 0.283085 0.185284 0.208575
C106  C     C_3   0.103376 0.722761 0.714703 -0.666619
H10   H     H_    0.150867 0.755221 0.656065 0.217903
H11   H     H_    0.057114 0.770076 0.754059 0.244454
H12   H     H_    0.144498 0.669326 0.756048 0.281144
C107  C     C_3   0.275606 0.274940 0.908941 -0.591197
H13   H     H_    0.329171 0.237880 0.864023 0.288284
H14   H     H_    0.234088 0.231381 0.961580 0.217504
H15   H     H_    0.237080 0.326721 0.864055 0.278727
C108  C     C_3   0.721317 0.720269 0.093241 -0.569847
H16   H     H_    0.752820 0.662968 0.138220 0.290274
H17   H     H_    0.767239 0.762165 0.047350 0.243200
H18   H     H_    0.666293 0.755054 0.139920 0.276918
C109  C     C_3   0.298260 0.988273 0.813399 -0.760406
H19   H     H_    0.346346 0.986460 0.844838 0.240964
H20   H     H_    0.234815 0.036180 0.835648 0.241378
H21   H     H_    0.287666 0.920765 0.838915 0.224676
C110  C     C_3   0.718090 0.010014 0.179424 -0.689239
H22   H     H_    0.766869 0.050015 0.141392 0.207284
H23   H     H_    0.758338 0.940373 0.188918 0.225557
H24   H     H_    0.674569 0.025927 0.136994 0.287024
C111  C     C_3   0.890341 0.836579 0.341762 -0.764136
H25   H     H_    0.925313 0.844916 0.269583 0.202588
H26   H     H_    0.821410 0.878675 0.348352 0.253936
H27   H     H_    0.924862 0.861711 0.368368 0.241651
C112  C     C_3   0.998189 0.182524 0.713388 -0.705087
H28   H     H_    0.061235 0.145419 0.730387 0.229166
H29   H     H_    0.943124 0.175001 0.775651 0.209341
H30   H     H_    0.993374 0.150679 0.668858 0.255612
C113  C     C_3   0.788669 0.396967 0.796491 -0.694152
H31   H     H_    0.766077 0.384491 0.749159 0.255804
H32   H     H_    0.798512 0.464616 0.764307 0.254737
H33   H     H_    0.851710 0.347572 0.803656 0.243394
C114  C     C_3   0.165633 0.659518 0.090028 -0.759605
H34   H     H_    0.136373 0.630134 0.161832 0.208631
H35   H     H_    0.141384 0.732863 0.074349 0.235368
H36   H     H_    0.139401 0.636728 0.053369 0.255964
C115  C     C_3   0.198028 0.977732 0.709570 -0.808758
H37   H     H_    0.215349 0.905964 0.744340 0.242192
H38   H     H_    0.153689 0.013620 0.760147 0.221622
H39   H     H_    0.160420 0.986597 0.663835 0.245700
C116  C     C_3   0.729836 0.150508 0.238369 -0.674773
H40   H     H_    0.699459 0.182588 0.182590 0.258260
H41   H     H_    0.714155 0.205466 0.267516 0.259865
H42   H     H_    0.802135 0.126108 0.209561 0.236412
C117  C     C_3   0.717236 0.237858 0.885273 -0.768626
H43   H     H_    0.790100 0.226365 0.858793 0.240366
H44   H     H_    0.704887 0.178809 0.941446 0.245354
H45   H     H_    0.689575 0.242397 0.832855 0.248465
C118  C     C_3   0.257432 0.685878 0.192252 -0.718933
H46   H     H_    0.214592 0.640568 0.236510 0.201552
H47   H     H_    0.299363 0.677264 0.233572 0.264684
H48   H     H_    0.214722 0.754571 0.178122 0.247615
C119  C     C_3   0.794370 0.744191 0.305504 -0.603500
H49   H     H_    0.746169 0.793703 0.341436 0.220921
H50   H     H_    0.819884 0.780464 0.235048 0.244525
H51   H     H_    0.753807 0.701809 0.312149 0.281593
C120  C     C_3   0.039150 0.274682 0.802962 -0.720125
H52   H     H_    0.100535 0.219681 0.798853 0.254055
H53   H     H_    0.043338 0.318871 0.835527 0.257747
H54   H     H_    0.982239 0.246951 0.848518 0.198247
N1    N     N_R   0.405379 0.136649 0.745118 0.138146
O25   O     O_R   0.319415 0.161583 0.762770 -0.340638
O26   O     O_R   0.445139 0.192423 0.740530 -0.370223
N2    N     N_R   0.595832 0.877252 0.260341 0.096852
O27   O     O_R   0.573776 0.803383 0.307947 -0.348979
O28   O     O_R   0.654757 0.878984 0.183531 -0.414080
N3    N     N_R   0.851345 0.809586 0.545072 0.133651
O29   O     O_R   0.839969 0.833658 0.614664 -0.387421
O30   O     O_R   0.782019 0.832274 0.516943 -0.369739
N4    N     N_R   0.864506 0.257188 0.595844 0.105825
O31   O     O_R   0.815138 0.255888 0.552677 -0.351821
O32   O     O_R   0.829628 0.252632 0.680296 -0.439687
N5    N     N_R   0.821422 0.505829 0.877343 0.104617
O33   O     O_R   0.843935 0.577108 0.821078 -0.406943
O34   O     O_R   0.880162 0.429648 0.883020 -0.386985
N6    N     N_R   0.249102 0.603889 0.897173 0.141233
O35   O     O_R   0.262429 0.578862 0.827561 -0.355793
O36   O     O_R   0.223283 0.688459 0.890489 -0.385130
N7    N     N_R   0.194666 0.113559 0.507065 0.140553
O37   O     O_R   0.171609 0.154472 0.433280 -0.402693
O38   O     O_R   0.165734 0.156265 0.567214 -0.369007
N8    N     N_R   0.767108 0.137379 0.398325 0.102725
O39   O     O_R   0.755402 0.207549 0.421329 -0.329205
O40   O     O_R   0.840060 0.111739 0.339466 -0.365858
N9    N     N_R   0.540670 0.212572 0.072730 0.145775
O41   O     O_R   0.472529 0.187176 0.133738 -0.369220
O42   O     O_R   0.614127 0.188513 0.093746 -0.429776
N10   N     N_R   0.412224 0.750881 0.138550 0.090577
O43   O     O_R   0.444530 0.739663 0.202361 -0.394311
O44   O     O_R   0.346520 0.818850 0.121222 -0.397514
N11   N     N_R   0.858672 0.587358 0.245200 0.095091
O45   O     O_R   0.880486 0.652046 0.176110 -0.396304
O46   O     O_R   0.800827 0.550126 0.250017 -0.392712
N12   N     N_R   0.148670 0.410532 0.723697 0.104563
O47   O     O_R   0.195396 0.335633 0.705103 -0.290834
O48   O     O_R   0.188990 0.453212 0.740088 -0.375030

loop_
_geom_bond_atom_site_label_1
_geom_bond_atom_site_label_2
_geom_bond_distance
_ccdc_geom_bond_type
C7    C26   1.414717 A    
O10   Cu3   1.976926 S    
C11   C28   1.410691 A    
C2    C26   1.411489 A    
C1    C49   1.418922 A    
C111  H25   1.110542 S    
C68   C80   1.422213 A    
O5    C19   1.303718 A    
C93   C102  1.413717 A    
C119  H51   1.106572 S    
C15   O15   1.297755 A    
C112  H28   1.102787 S    
C27   C99   1.414326 A    
C21   O21   1.280784 A    
N7    O37   1.301892 A    
C73   C116  1.516776 S    
C23   C31   1.501270 S    
C17   O17   1.298187 A    
C30   C102  1.400115 A    
N6    O36   1.301779 A    
C106  H10   1.110607 S    
C120  H53   1.106912 S    
Cu2   O14   1.975791 S    
C36   C60   1.403551 A    
C44   N2    1.440056 S    
C115  H37   1.110071 S    
C35   C59   1.426759 A    
C118  H46   1.108607 S    
C104  H5    1.110396 S    
Cu4   O16   1.986161 S    
C109  H19   1.108450 S    
C13   O13   1.293430 A    
C76   C84   1.417299 A    
C85   C91   1.415788 A    
O9    C15   1.302917 A    
C75   C83   1.426563 A    
O2    C24   1.306328 A    
C107  H14   1.110504 S    
Cu4   O21   1.966706 S    
N4    O32   1.299440 A    
C116  H41   1.107115 S    
C65   C93   1.404801 A    
C2    C32   1.436106 A    
C4    C54   1.420643 A    
C85   C97   1.406449 A    
C47   C70   1.428650 A    
C117  H44   1.107032 S    
O8    C18   1.313046 A    
C92   C97   1.402475 A    
C119  H50   1.108395 S    
C88   C96   1.419970 A    
C52   N10   1.423553 S    
C56   C104  1.515052 S    
C63   C75   1.426143 A    
C75   C120  1.522102 S    
C95   C100  1.409027 A    
C65   C77   1.440940 A    
C20   C36   1.505001 S    
C33   C57   1.418435 A    
N2    O27   1.301456 A    
C114  H35   1.110118 S    
C19   C35   1.504015 S    
C3    C27   1.406138 A    
C45   C72   1.429254 A    
C89   C101  1.390307 A    
C58   C106  1.514685 S    
O6    C20   1.308199 A    
C7    C37   1.427123 A    
C16   O16   1.289811 A    
C2    C50   1.435585 A    
C67   C85   1.407233 A    
Cu5   Cu6   2.671676 S    
C87   C99   1.411614 A    
C24   C32   1.504280 S    
N5    O34   1.301088 A    
C72   C88   1.411716 A    
C15   C39   1.512681 S    
Cu3   Cu4   2.664863 S    
C48   N6    1.444972 S    
Cu3   O15   1.986162 S    
C59   C107  1.513708 S    
C74   C115  1.515622 S    
C66   C78   1.408743 A    
O11   C13   1.294265 A    
C109  H20   1.110096 S    
O7    Cu6   1.959449 S    
C51   N9    1.442393 S    
O12   C14   1.307164 A    
O1    Cu1   1.971136 S    
C38   C55   1.411865 A    
N11   O46   1.301824 A    
Cu1   O13   1.975792 S    
C111  H26   1.109036 S    
C117  H43   1.107122 S    
C77   C81   1.426910 A    
C8    C25   1.405635 A    
C6    C52   1.432167 A    
N6    O35   1.301589 A    
C110  H23   1.106641 S    
C110  H22   1.106063 S    
C44   C67   1.429316 A    
O5    Cu5   1.973461 S    
Cu5   O20   1.984267 S    
C64   C96   1.414272 A    
C43   C68   1.414789 A    
C104  H6    1.096665 S    
N12   O48   1.301357 A    
C66   C94   1.388020 A    
O10   C16   1.301986 A    
C29   C101  1.407285 A    
C11   C41   1.431936 A    
C7    C43   1.418774 A    
C18   O18   1.284323 A    
Cu1   O24   1.974868 S    
C10   C48   1.428454 A    
C91   C98   1.408098 A    
C14   C42   1.493440 S    
C115  H38   1.105323 S    
C11   C45   1.421129 A    
C10   C29   1.403107 A    
O3    C21   1.313830 A    
C51   C66   1.412398 A    
N4    O31   1.302715 A    
C12   C46   1.415253 A    
C116  H42   1.109292 S    
C3    C53   1.434006 A    
O11   Cu2   1.969359 S    
C118  H47   1.105456 S    
N5    O33   1.300826 A    
C22   O22   1.290837 A    
C53   C64   1.444504 A    
C69   C89   1.391357 A    
C105  H9    1.110567 S    
C78   C82   1.426572 A    
C94   C101  1.388222 A    
C9    C39   1.442089 A    
C108  H18   1.103995 S    
C117  H45   1.109518 S    
O4    C22   1.305196 A    
N9    O41   1.302934 A    
C88   C100  1.412985 A    
C62   C92   1.401911 A    
C103  H3    1.110412 S    
C19   O19   1.296221 A    
C68   C86   1.406487 A    
N3    O29   1.301358 A    
C17   C37   1.512272 S    
N11   O45   1.302386 A    
C114  H36   1.106374 S    
C69   C81   1.413312 A    
C18   C38   1.496146 S    
N10   O44   1.302576 A    
C14   O14   1.281046 A    
C8    C44   1.429022 A    
O2    Cu2   1.971135 S    
Cu1   Cu2   2.663588 S    
C4    C28   1.410423 A    
C57   C105  1.523185 S    
C60   C108  1.500525 S    
C72   C84   1.415514 A    
C42   C57   1.407060 A    
C80   C109  1.517371 S    
C23   O23   1.284404 A    
C49   C62   1.414505 A    
C53   N11   1.418932 S    
C113  H32   1.107410 S    
C31   C55   1.410099 A    
C9    C30   1.424949 A    
C76   C119  1.514599 S    
C70   C90   1.404518 A    
N1    O25   1.301439 A    
C6    C30   1.413158 A    
O6    Cu6   1.973461 S    
Cu6   O19   1.984268 S    
Cu5   O17   1.963863 S    
C70   C82   1.434808 A    
C111  H27   1.109383 S    
N8    O40   1.301943 A    
C61   C91   1.411450 A    
C103  H1    1.086805 S    
C112  H30   1.107842 S    
C78   C117  1.512436 S    
C107  H15   1.104153 S    
C40   C59   1.421329 A    
C108  H17   1.110385 S    
O8    Cu5   1.959447 S    
O4    Cu4   1.961153 S    
C39   C60   1.426414 A    
Cu2   O23   1.974868 S    
C77   C118  1.517928 S    
C106  H12   1.103355 S    
Cu3   O22   1.966707 S    
C12   C42   1.430229 A    
C110  H24   1.107588 S    
C81   C114  1.519322 S    
C86   C92   1.405843 A    
C113  H33   1.103075 S    
Cu6   O18   1.963861 S    
C46   C71   1.422139 A    
C43   N1    1.448425 S    
N12   O47   1.301413 A    
C64   C76   1.435713 A    
C37   C56   1.415825 A    
C52   C65   1.424077 A    
C115  H39   1.107507 S    
N3    O30   1.301106 A    
C90   C102  1.405020 A    
O7    C17   1.305656 A    
C114  H34   1.108385 S    
C8    C38   1.432676 A    
C54   N12   1.451669 S    
O1    C23   1.307610 A    
C61   C73   1.427060 A    
C12   C27   1.405685 A    
C22   C34   1.500550 S    
C25   C97   1.414880 A    
C83   C112  1.515894 S    
N7    O38   1.299740 A    
C49   N7    1.446600 S    
C20   O20   1.292543 A    
C89   C93   1.399508 A    
C109  H21   1.110045 S    
C6    C36   1.420432 A    
C21   C33   1.502296 S    
C104  H4    1.110171 S    
C5    C35   1.428208 A    
C96   C99   1.405455 A    
C120  H52   1.110004 S    
O12   Cu1   1.969359 S    
C73   C79   1.424603 A    
C71   C87   1.407526 A    
C50   C61   1.435968 A    
C105  H8    1.110276 S    
C67   C79   1.428511 A    
C5    C29   1.409876 A    
C84   C111  1.520031 S    
N9    O42   1.296750 A    
C79   C110  1.512819 S    
C105  H7    1.110522 S    
C24   O24   1.291606 A    
C118  H48   1.109874 S    
C74   C80   1.421160 A    
C47   N5    1.429832 S    
C116  H40   1.102647 S    
C28   C100  1.411691 A    
C106  H11   1.110162 S    
O3    Cu3   1.961151 S    
N10   O43   1.301786 A    
C120  H54   1.109376 S    
C34   C58   1.405961 A    
C82   C113  1.511016 S    
C5    C51   1.423092 A    
C54   C63   1.425031 A    
C26   C98   1.412459 A    
C119  H49   1.110339 S    
C71   C83   1.423168 A    
C63   C95   1.411218 A    
C62   C74   1.416939 A    
C113  H31   1.109143 S    
C41   C58   1.419403 A    
C46   N4    1.445332 S    
C1    C31   1.435709 A    
N2    O28   1.296917 A    
N8    O39   1.301350 A    
C86   C98   1.410723 A    
C9    C47   1.437171 A    
C48   C69   1.411049 A    
C103  H2    1.110616 S    
C3    C33   1.458218 A    
C45   N3    1.455236 S    
C32   C56   1.420452 A    
C4    C34   1.423144 A    
C50   N8    1.440201 S    
C108  H16   1.082306 S    
C107  H13   1.096838 S    
N1    O26   1.302941 A    
C87   C95   1.407017 A    
C16   C40   1.495185 S    
C10   C40   1.424175 A    
C90   C94   1.398552 A    
O9    Cu4   1.976926 S    
C55   C103  1.507933 S    
C13   C41   1.491747 S    
C1    C25   1.417402 A    
C112  H29   1.108444 S    
