data_mof_unit_44008.cif
_audit_creation_date              2012-12-10T18:59:57-0500
_audit_creation_method            fapswitch 2.2
_symmetry_space_group_name_H-M    P1
_symmetry_Int_Tables_number       1
_space_group_crystal_system       triclinic
_cell_length_a                    10.729436
_cell_length_b                    10.638639
_cell_length_c                    9.9663
_cell_angle_alpha                 90.718388
_cell_angle_beta                  93.041663
_cell_angle_gamma                 89.713648
_cell_volume                      1135.91657418

loop_
_atom_site_label
_atom_site_type_symbol
_atom_type_description
_atom_site_fract_x
_atom_site_fract_y
_atom_site_fract_z
_atom_type_partial_charge
C1    C     C_R   0.502150 0.260269 0.499568 1.040971
C2    C     C_R   0.498003 0.738951 0.500557 1.033837
C3    C     C_R   0.874183 0.485635 0.511434 -0.286067
C4    C     C_R   0.126250 0.521034 0.490322 -0.294283
C5    C     C_R   0.944564 0.538441 0.621354 -0.162345
C6    C     C_R   0.054940 0.470150 0.379954 -0.143805
C7    C     C_R   0.404672 0.063927 0.429545 0.355680
C8    C     C_R   0.603574 0.932330 0.558317 0.347652
C9    C     C_R   0.396107 0.933824 0.440380 0.371127
C10   C     C_R   0.601713 0.063634 0.568614 0.333224
C11   C     C_R   0.498112 0.870989 0.501624 -0.380601
C12   C     C_R   0.503075 0.126829 0.499340 -0.377863
C13   C     C_R   0.511278 0.610322 0.072877 0.606686
C14   C     C_R   0.479159 0.391141 0.925183 0.617078
C15   C     C_R   0.513670 0.608752 0.929746 -0.225549
C16   C     C_R   0.482898 0.391824 0.069474 -0.345164
C17   C     C_R   0.260071 0.507891 0.496576 0.935808
C18   C     C_R   0.740117 0.494443 0.503806 0.927078
C19   C     C_R   0.179508 0.569948 0.049381 0.526809
C20   C     C_R   0.822915 0.439493 0.951977 0.507953
C21   C     C_R   0.138031 0.573147 0.180694 -0.249897
C22   C     C_R   0.865038 0.436297 0.821982 -0.132006
C23   C     C_R   0.100959 0.462404 0.242141 0.178540
C24   C     C_R   0.896936 0.547369 0.758080 0.150951
C25   C     C_R   0.101701 0.348592 0.169380 -0.025199
C26   C     C_R   0.890891 0.662447 0.827797 -0.014856
C27   C     C_R   0.138581 0.346043 0.037090 -0.309751
C28   C     C_R   0.854870 0.665556 0.960359 -0.267582
C29   C     C_R   0.178544 0.455851 0.977980 -0.085242
C30   C     C_R   0.820500 0.554760 0.022446 -0.238545
C31   C     C_R   0.931915 0.439805 0.397483 0.476443
C32   C     C_R   0.069342 0.564110 0.606847 0.449961
H1    H     H_    0.210397 0.451385 0.876983 0.215947
H2    H     H_    0.792223 0.558434 0.124941 0.174697
H3    H     H_    0.519400 0.696079 0.876324 0.181021
H4    H     H_    0.466827 0.307009 0.122706 0.183100
H5    H     H_    0.136003 0.661404 0.235894 0.145739
H6    H     H_    0.871351 0.347249 0.769083 0.146576
H7    H     H_    0.074235 0.261890 0.214729 0.160059
H8    H     H_    0.915423 0.749201 0.780650 0.145599
H9    H     H_    0.138109 0.258329 0.980854 0.164460
H10   H     H_    0.853719 0.754086 0.014836 0.141746
N1    N     N_R   0.499970 0.499970 0.857200 -0.142995
N2    N     N_R   0.500030 0.500030 0.142800 -0.145819
O1    O     O_R   0.499990 0.316750 0.614620 -0.542378
O2    O     O_R   0.500010 0.683250 0.385380 -0.548025
O3    O     O_R   0.499990 0.316780 0.385290 -0.624651
O4    O     O_R   0.500010 0.683220 0.614710 -0.635345
O5    O     O_R   0.316760 0.500000 0.614660 -0.569764
O6    O     O_R   0.683240 0.500000 0.385340 -0.603715
O7    O     O_R   0.316760 0.500020 0.385330 -0.607213
O8    O     O_R   0.683240 0.499980 0.614670 -0.616517
Zn1   Zn    Zn3+2 0.500000 0.499980 0.653120 1.026598
Zn2   Zn    Zn3+2 0.500000 0.500020 0.346880 1.001176
O9    O     O_3   0.222093 0.676140 0.989282 -0.759680
H11   H     H_    0.217617 0.748189 0.053003 0.336248
O10   O     O_3   0.785201 0.328917 0.007007 -0.815530
H12   H     H_    0.739193 0.349605 0.087876 0.363437
O11   O     O_3   0.866400 0.371456 0.298187 -0.608971
C33   C     C_3   0.845331 0.249268 0.345878 -0.315478
H13   H     H_    0.932127 0.205206 0.390592 0.146749
H14   H     H_    0.811660 0.188837 0.260136 0.185961
H15   H     H_    0.771773 0.250527 0.419832 0.199690
O12   O     O_3   0.137501 0.619259 0.713970 -0.571662
C34   C     C_3   0.168513 0.743037 0.680255 -0.236420
H16   H     H_    0.084812 0.797838 0.645084 0.097143
H17   H     H_    0.240558 0.742984 0.604722 0.173163
H18   H     H_    0.209360 0.792120 0.770664 0.218573
O13   O     O_3   0.319535 0.130694 0.349286 -0.602325
C35   C     C_3   0.342865 0.103351 0.214049 -0.287417
H19   H     H_    0.444419 0.105636 0.195518 0.137596
H20   H     H_    0.295188 0.174779 0.150539 0.175956
H21   H     H_    0.304446 0.010685 0.181198 0.202938
O14   O     O_3   0.706891 0.862850 0.602814 -0.600547
C36   C     C_3   0.789208 0.853166 0.497358 -0.372885
H22   H     H_    0.746086 0.800080 0.410274 0.164536
H23   H     H_    0.873243 0.800048 0.533380 0.172832
H24   H     H_    0.820508 0.947303 0.465396 0.171463
O15   O     O_3   0.298638 0.864149 0.378722 -0.593138
C37   C     C_3   0.180125 0.913436 0.407993 -0.331516
H25   H     H_    0.113087 0.834513 0.408935 0.147364
H26   H     H_    0.144204 0.977007 0.327487 0.206466
H27   H     H_    0.179479 0.962483 0.507437 0.154110
O16   O     O_3   0.699297 0.134396 0.628758 -0.629320
C38   C     C_3   0.752603 0.080359 0.747560 -0.207972
H28   H     H_    0.688028 0.018413 0.799974 0.149826
H29   H     H_    0.779795 0.156689 0.819188 0.199841
H30   H     H_    0.839181 0.028468 0.725075 0.185333
O17   O     O_3   0.497251 0.724189 0.138638 -0.551464
C39   C     C_3   0.606228 0.796756 0.132409 -0.351420
H31   H     H_    0.623014 0.825374 0.028136 0.143270
H32   H     H_    0.593981 0.884281 0.192100 0.183213
H33   H     H_    0.688420 0.746622 0.178499 0.149777
O18   O     O_3   0.435882 0.288125 0.850278 -0.575539
C40   C     C_3   0.482512 0.172923 0.900095 -0.342696
H34   H     H_    0.487368 0.106178 0.814471 0.201056
H35   H     H_    0.415318 0.132108 0.966829 0.142180
H36   H     H_    0.577423 0.179920 0.950407 0.173921

loop_
_geom_bond_atom_site_label_1
_geom_bond_atom_site_label_2
_ccdc_geom_bond_type
O9    H11   S    
C27   C29   A    
C40   H34   S    
C26   H8    S    
C17   O7    A    
C39   H31   S    
C40   H36   S    
C18   O8    A    
C20   C30   A    
C38   H28   S    
C2    O2    A    
O6    Zn2   S    
C33   H15   S    
C19   C21   A    
C24   C26   A    
C22   H6    S    
C29   H1    S    
C3    C18   S    
C33   H14   S    
C9    O15   S    
C31   O11   S    
N1    Zn1   S    
C34   H17   S    
C35   H19   S    
C16   N2    A    
C5    C32   A    
C6    C31   A    
O1    Zn1   S    
O11   C33   S    
C7    C12   A    
C1    C12   S    
C37   H27   S    
C2    C11   S    
C15   H3    S    
C38   H29   S    
C21   C23   A    
O4    Zn1   S    
O14   C36   S    
C30   H2    S    
O16   C38   S    
C32   O12   S    
C37   H26   S    
C17   O5    A    
C1    O3    A    
C2    O4    A    
C33   H13   S    
C36   H22   S    
C9    C11   A    
C27   H9    S    
C39   H32   S    
C34   H18   S    
O2    Zn2   S    
C35   H21   S    
C8    O14   S    
O18   C40   S    
C3    C31   A    
C36   H23   S    
C4    C32   A    
C10   C12   A    
O3    Zn2   S    
C4    C17   S    
C4    C6    A    
C20   C22   A    
C13   C15   A    
C14   C16   A    
C19   C29   A    
O8    Zn1   S    
C18   O6    A    
C39   H33   S    
C38   H30   S    
C19   O9    S    
C7    C9    A    
C28   H10   S    
C13   O17   S    
C37   H25   S    
C3    C5    A    
C7    O13   S    
C40   H35   S    
C25   C27   A    
C26   C28   A    
O7    Zn2   S    
O12   C34   S    
C28   C30   A    
O17   C39   S    
C15   N1    A    
C25   H7    S    
C1    O1    A    
O10   H12   S    
C5    C24   S    
C8    C11   A    
O5    Zn1   S    
C6    C23   S    
C10   O16   S    
C22   C24   A    
C23   C25   A    
O13   C35   S    
C36   H24   S    
O15   C37   S    
N2    Zn2   S    
C21   H5    S    
C8    C10   A    
C34   H16   S    
C35   H20   S    
C20   O10   S    
C14   O18   S    
C13   N2    A    
C16   H4    S    
C14   N1    A    
