data_mof_unit_47342.cif
_audit_creation_date              2012-10-26T19:38:02-0400
_audit_creation_method            fapswitch 2.2
_symmetry_space_group_name_H-M    P1
_symmetry_Int_Tables_number       1
_space_group_crystal_system       triclinic
_cell_length_a                    10.698555
_cell_length_b                    15.966003
_cell_length_c                    17.052452
_cell_angle_alpha                 94.116203
_cell_angle_beta                  94.999437
_cell_angle_gamma                 90.895947
_cell_volume                      2893.51429225

loop_
_atom_site_label
_atom_site_type_symbol
_atom_type_description
_atom_site_fract_x
_atom_site_fract_y
_atom_site_fract_z
_atom_type_partial_charge
C1    C     C_R   0.496459 0.490795 0.349042 0.587644
C2    C     C_R   0.542343 0.245714 0.551665 0.095662
C3    C     C_R   0.465776 0.843241 0.447977 -0.030526
C4    C     C_R   0.534776 0.156685 0.551453 -0.030049
C5    C     C_R   0.527160 0.890505 0.513530 0.186069
C6    C     C_R   0.469521 0.109722 0.486954 0.186974
C7    C     C_R   0.583718 0.846332 0.575113 -0.145146
C8    C     C_R   0.410082 0.154317 0.426505 -0.147303
C9    C     C_R   0.576453 0.757924 0.572353 0.020092
C10   C     C_R   0.418522 0.242738 0.429141 0.022361
C11   C     C_R   0.259414 0.500786 0.498223 0.599642
C12   C     C_R   0.504696 0.509278 0.651158 0.588074
C13   C     C_R   0.740777 0.499067 0.502014 0.586793
C14   C     C_3   0.029478 0.459469 0.432150 -0.117554
C15   C     C_3   0.971359 0.539170 0.568362 -0.136942
C16   C     C_3   0.947916 0.537797 0.439808 0.065723
C17   C     C_3   0.053005 0.460983 0.560422 0.060595
C18   C     C_3   0.877817 0.497680 0.502457 0.000740
C19   C     C_3   0.122701 0.501336 0.497895 0.010797
C20   C     C_3   0.958366 0.418911 0.495603 -0.161401
C21   C     C_3   0.042304 0.579996 0.504861 -0.153866
C22   C     C_R   0.482851 0.487206 0.262910 -0.010884
C23   C     C_R   0.466165 0.481211 0.097708 0.180855
C24   C     C_R   0.515691 0.512475 0.737519 -0.011204
C25   C     C_R   0.576811 0.524439 0.224835 -0.184602
C26   C     C_R   0.430176 0.464361 0.773558 -0.173352
C27   C     C_R   0.569781 0.520930 0.143275 -0.113897
C28   C     C_R   0.437860 0.462754 0.854929 -0.112785
C29   C     C_2   0.887818 0.580970 0.371558 0.546324
C30   C     C_2   0.115500 0.417713 0.627914 0.545154
C31   C     C_R   0.255126 0.409902 0.086678 0.083096
C32   C     C_R   0.137365 0.445625 0.095446 -0.065954
C33   C     C_R   0.031321 0.415112 0.047583 -0.103193
C34   C     C_R   0.535072 0.507136 0.902121 0.182578
C35   C     C_R   0.041928 0.349027 0.990415 -0.100501
C36   C     C_R   0.158472 0.312920 0.981429 -0.112260
C37   C     C_R   0.264710 0.343031 0.029389 -0.055402
C38   C     C_R   0.733476 0.593361 0.916622 0.076208
C39   C     C_R   0.855082 0.566471 0.904023 -0.074487
C40   C     C_R   0.958561 0.599659 0.952753 -0.105118
C41   C     C_R   0.941476 0.659711 0.014424 -0.102044
C42   C     C_R   0.820940 0.687158 0.027081 -0.113220
C43   C     C_R   0.717197 0.654324 0.978331 -0.054925
C44   C     C_2   0.277366 0.407559 0.259223 0.556560
C45   C     C_R   0.369062 0.444627 0.135348 -0.023637
C46   C     C_2   0.692957 0.621018 0.748894 0.558397
C47   C     C_R   0.611229 0.290620 0.621705 0.090625
C48   C     C_R   0.737688 0.313600 0.619896 -0.076766
C49   C     C_R   0.809339 0.342666 0.689228 -0.107003
C50   C     C_R   0.756783 0.346015 0.761445 -0.102467
C51   C     C_R   0.632353 0.319969 0.764438 -0.114748
C52   C     C_R   0.559314 0.293068 0.694944 -0.074863
C53   C     C_R   0.393607 0.709206 0.376571 0.090155
C54   C     C_R   0.449645 0.706354 0.304684 -0.073436
C55   C     C_R   0.379829 0.679854 0.233936 -0.114814
C56   C     C_R   0.623269 0.554919 0.866864 -0.022141
C57   C     C_R   0.254036 0.655615 0.234244 -0.099726
C58   C     C_R   0.197645 0.658544 0.305196 -0.093175
C59   C     C_R   0.266556 0.686270 0.375959 -0.071386
C60   C     C_R   0.589464 0.114520 0.621166 0.055510
C61   C     C_R   0.510803 0.083700 0.674793 -0.076964
C62   C     C_R   0.562171 0.044351 0.740438 -0.115724
C63   C     C_R   0.692040 0.035544 0.752874 -0.106098
C64   C     C_R   0.770781 0.065948 0.699610 -0.108688
C65   C     C_R   0.719829 0.105227 0.633824 -0.073688
C66   C     C_R   0.413856 0.885383 0.377578 0.055659
C67   C     C_R   0.378291 0.446145 0.218648 0.029913
C68   C     C_R   0.283736 0.894297 0.362709 -0.074225
C69   C     C_R   0.235409 0.933729 0.296368 -0.110275
C70   C     C_R   0.316541 0.964685 0.244766 -0.108124
C71   C     C_R   0.446175 0.956258 0.259415 -0.115425
C72   C     C_R   0.494920 0.916742 0.325616 -0.075983
C73   C     C_R   0.610211 0.561439 0.784361 0.025763
C74   C     C_R   0.459533 0.754125 0.447555 0.095610
Cu1   Cu    Cu3+1 0.493870 0.415220 0.496180 1.010568
Cu2   Cu    Cu3+1 0.506130 0.584780 0.503820 1.011829
H1    H     H_    0.633572 0.880584 0.625776 0.134915
H2    H     H_    0.655891 0.556553 0.258547 0.167760
H3    H     H_    0.370289 0.424230 0.880606 0.148826
H4    H     H_    0.644437 0.551305 0.116127 0.153520
H5    H     H_    0.787386 0.678835 0.334827 0.315224
H6    H     H_    0.213302 0.318091 0.663206 0.315434
H7    H     H_    0.127697 0.497199 0.139029 0.115591
H8    H     H_    0.941020 0.443049 0.054517 0.129777
H9    H     H_    0.959863 0.325807 0.953103 0.107809
H10   H     H_    0.166580 0.261715 0.937134 0.103073
H11   H     H_    0.354514 0.314640 0.021636 0.114922
H12   H     H_    0.356788 0.120389 0.376971 0.128623
H13   H     H_    0.869497 0.519272 0.857025 0.117414
H14   H     H_    0.051906 0.578304 0.943101 0.130129
H15   H     H_    0.021610 0.684920 0.052420 0.107927
H16   H     H_    0.807824 0.733672 0.074863 0.103198
H17   H     H_    0.624237 0.675853 0.988952 0.119086
H18   H     H_    0.158139 0.309470 0.264628 0.328155
H19   H     H_    0.794662 0.645534 0.659802 0.321237
H20   H     H_    0.781824 0.304947 0.565504 0.105162
H21   H     H_    0.906815 0.359598 0.687486 0.159800
H22   H     H_    0.813226 0.366902 0.815248 0.107486
H23   H     H_    0.620132 0.726333 0.620946 0.164613
H24   H     H_    0.592645 0.320186 0.820664 0.115637
H25   H     H_    0.463433 0.271739 0.698237 0.093047
H26   H     H_    0.546318 0.727010 0.303428 0.095530
H27   H     H_    0.422961 0.678870 0.178794 0.114756
H28   H     H_    0.199702 0.636280 0.179303 0.102760
H29   H     H_    0.099435 0.642172 0.304908 0.162989
H30   H     H_    0.219666 0.694094 0.429464 0.103884
H31   H     H_    0.410106 0.090401 0.665709 0.108875
H32   H     H_    0.501325 0.020698 0.781679 0.111032
H33   H     H_    0.731639 0.005052 0.803719 0.119757
H34   H     H_    0.370966 0.275138 0.382003 0.158987
H35   H     H_    0.871289 0.058980 0.709251 0.110697
H36   H     H_    0.781556 0.128285 0.592731 0.103467
H37   H     H_    0.220168 0.870859 0.402534 0.103078
H38   H     H_    0.135083 0.940408 0.285021 0.108608
H39   H     H_    0.278973 0.995304 0.193492 0.114732
H40   H     H_    0.508874 0.980334 0.219457 0.108512
H41   H     H_    0.595460 0.910362 0.336433 0.108296
H42   H     H_    0.047259 0.424804 0.375895 0.189932
H43   H     H_    0.955070 0.569840 0.626507 0.170816
H44   H     H_    0.926363 0.352296 0.490465 0.125977
H45   H     H_    0.075330 0.646444 0.509373 0.126717
H46   H     H_    0.357507 0.427237 0.738338 0.163883
N1    N     N_2   0.452537 0.481581 0.014225 -0.253196
N2    N     N_2   0.549377 0.503647 0.985141 -0.257423
N3    N     N_R   0.515330 0.712130 0.509560 -0.237330
N4    N     N_R   0.484670 0.287870 0.490440 -0.237651
N5    N     N_2   0.541092 0.980651 0.518112 -0.225236
N6    N     N_2   0.455180 0.019524 0.482282 -0.224589
O1    O     O_R   0.494270 0.420530 0.382500 -0.497812
O2    O     O_R   0.823642 0.655362 0.385411 -0.692867
O3    O     O_2   0.113729 0.448910 0.695376 -0.564132
O4    O     O_R   0.175414 0.341804 0.613140 -0.692199
O5    O     O_2   0.238365 0.445418 0.316470 -0.553270
O6    O     O_R   0.226491 0.328549 0.231885 -0.707442
O7    O     O_2   0.712932 0.691818 0.780378 -0.532236
O8    O     O_R   0.747569 0.596966 0.679789 -0.708608
O9    O     O_R   0.505730 0.579470 0.617500 -0.486464
O10   O     O_R   0.504620 0.563720 0.388950 -0.491314
O11   O     O_R   0.495380 0.436280 0.611050 -0.497788
O12   O     O_R   0.311680 0.428420 0.496760 -0.451465
O13   O     O_R   0.688320 0.571580 0.503240 -0.452212
O14   O     O_R   0.322030 0.571610 0.503210 -0.521001
O15   O     O_R   0.677970 0.428390 0.496790 -0.522307
O16   O     O_2   0.895500 0.551048 0.304192 -0.565107

loop_
_geom_bond_atom_site_label_1
_geom_bond_atom_site_label_2
_ccdc_geom_bond_type
C15   C18   S    
C66   C68   A    
C32   H7    S    
C34   C56   A    
C16   C21   S    
C23   C45   A    
C41   C42   A    
C53   C74   S    
C11   O12   A    
C53   C59   A    
N1    N2    D    
C53   C54   A    
C11   C19   S    
C13   C18   S    
C36   C37   A    
C19   C21   S    
C24   C26   A    
C1    O1    A    
Cu1   O12   S    
C38   C39   A    
C24   C73   A    
C74   N3    A    
C62   H32   S    
C30   O3    D    
C55   H27   S    
C44   O5    D    
C17   C20   S    
C15   C17   S    
C3    C74   A    
C28   H3    S    
H18   O6    S    
C46   O7    D    
C66   C72   A    
C47   C48   A    
C68   C69   A    
C14   H42   S    
C22   C25   A    
C72   H41   S    
C45   C67   A    
C70   C71   A    
C23   C27   A    
C42   H16   S    
C68   H37   S    
C7    H1    S    
Cu2   O13   S    
C28   C34   A    
C1    C22   S    
C9    H23   S    
C17   C30   S    
C4    C60   S    
C61   C62   A    
C11   O14   A    
C54   H26   S    
C57   C58   A    
C44   O6    S    
C69   H38   S    
C52   H25   S    
C50   H22   S    
C59   H30   S    
C25   H2    S    
C14   C20   S    
C4    C6    A    
C27   H4    S    
C39   C40   A    
C5    C7    A    
C17   C19   S    
C64   H35   S    
C23   N1    S    
C36   H10   S    
C16   C29   S    
Cu2   O9    S    
C29   O16   D    
C49   H21   S    
C9    N3    A    
C51   C52   A    
C60   C61   A    
C8    H12   S    
C35   C36   A    
C63   H33   S    
C2    C4    A    
Cu1   Cu2   S    
C65   H36   S    
C62   C63   A    
C29   O2    S    
C5    N5    S    
C50   C51   A    
C12   O11   A    
C38   C56   S    
Cu1   O15   S    
C2    N4    A    
C16   C18   S    
C48   C49   A    
C41   H15   S    
C60   C65   A    
C13   O13   A    
C55   C57   A    
C2    C47   S    
C14   C16   S    
C3    C66   S    
C42   C43   A    
H6    O4    S    
N5    N6    D    
C20   H44   S    
C51   H24   S    
C7    C9    A    
C57   H28   S    
C54   C55   A    
C40   C41   A    
C34   N2    S    
C56   C73   A    
C48   H20   S    
Cu2   N3    S    
C14   C19   S    
C37   H11   S    
C31   C32   A    
C3    C5    A    
C6    C8    A    
C47   C52   A    
Cu2   O10   S    
C70   H39   S    
C25   C27   A    
C12   C24   S    
C26   C28   A    
C43   H17   S    
Cu1   N4    S    
C64   C65   A    
C58   H29   S    
C58   C59   A    
C6    N6    S    
C38   C43   A    
Cu1   O11   S    
C32   C33   A    
C35   H9    S    
H5    O2    S    
C30   O4    S    
H19   O8    S    
C33   C35   A    
C15   H43   S    
C71   H40   S    
C10   H34   S    
C18   C20   S    
C13   O15   A    
C21   H45   S    
C69   C70   A    
C61   H31   S    
C33   H8    S    
C22   C67   A    
C46   O8    S    
C63   C64   A    
C31   C37   A    
C15   C21   S    
C71   C72   A    
C8    C10   A    
C49   C50   A    
C31   C45   S    
C12   O9    A    
C44   C67   S    
C26   H46   S    
C40   H14   S    
C10   N4    A    
C39   H13   S    
C46   C73   S    
C1    O10   A    
Cu1   O1    S    
Cu2   O14   S    
