data_mof_unit_39098.cif
_audit_creation_date              2012-12-10T17:32:20-0500
_audit_creation_method            fapswitch 2.2
_symmetry_space_group_name_H-M    P1
_symmetry_Int_Tables_number       1
_space_group_crystal_system       triclinic
_cell_length_a                    12.331255
_cell_length_b                    13.183106
_cell_length_c                    15.058436
_cell_angle_alpha                 77.408735
_cell_angle_beta                  101.512752
_cell_angle_gamma                 116.602185
_cell_volume                      2121.53951728

loop_
_atom_site_label
_atom_site_type_symbol
_atom_type_description
_atom_site_fract_x
_atom_site_fract_y
_atom_site_fract_z
_atom_type_partial_charge
C1    C     C_R   0.854885 0.286614 0.507197 0.807101
C2    C     C_R   0.099304 0.496099 0.109922 0.104107
C3    C     C_R   0.794126 0.491603 0.014392 -0.170388
C4    C     C_R   0.794032 0.491786 0.921730 -0.155275
C5    C     C_R   0.895105 0.493696 0.891042 0.097572
C6    C     C_R   0.996946 0.494540 0.953993 0.061989
C7    C     C_R   0.098880 0.495906 0.923875 0.104591
C8    C     C_R   0.199705 0.496865 0.986808 -0.180118
C9    C     C_R   0.199949 0.497028 0.079379 -0.168314
C10   C     C_R   0.896400 0.495238 0.798416 -0.174853
C11   C     C_R   0.997952 0.497174 0.768299 -0.075712
C12   C     C_R   0.999227 0.499067 0.671251 0.839993
C13   C     C_R   0.098491 0.496859 0.831182 -0.231486
C14   C     C_R   0.268491 0.030120 0.396366 0.002514
C15   C     C_R   0.227732 0.835667 0.471294 -0.098583
C16   C     C_R   0.816797 0.083409 0.558030 -0.151886
C17   C     C_R   0.738557 0.967883 0.572304 -0.110931
C18   C     C_R   0.614421 0.931339 0.543097 -0.141734
C19   C     C_R   0.565954 0.010230 0.495267 0.120321
C20   C     C_R   0.648821 0.125400 0.470589 0.105225
C21   C     C_R   0.438378 0.978700 0.470630 0.104405
C22   C     C_R   0.395970 0.060078 0.416704 0.081082
C23   C     C_R   0.145113 0.713636 0.487344 0.808158
C24   C     C_R   0.482111 0.167173 0.381338 -0.228661
C25   C     C_R   0.605794 0.198218 0.406406 -0.158729
C26   C     C_R   0.351802 0.868477 0.499023 -0.212656
C27   C     C_R   0.185928 0.916915 0.422855 -0.160457
C28   C     C_R   0.772968 0.163701 0.509287 -0.089657
C29   C     C_R   0.343750 0.324753 0.645860 -0.212498
C30   C     C_R   0.754664 0.646129 0.374944 0.015672
C31   C     C_R   0.663401 0.686819 0.358904 0.382574
C32   C     C_R   0.564477 0.631496 0.409037 -0.289846
C33   C     C_R   0.554233 0.536931 0.476570 -0.072738
C34   C     C_R   0.999761 0.499368 0.328874 0.806058
C35   C     C_R   0.654541 0.505764 0.497630 0.191263
C36   C     C_R   0.448847 0.474844 0.525345 -0.055531
C37   C     C_R   0.446816 0.384436 0.597462 0.021150
C38   C     C_R   0.547615 0.356145 0.619489 0.351718
C39   C     C_R   0.648231 0.416991 0.570410 -0.248375
C40   C     C_R   0.343524 0.498010 0.504307 0.049434
C41   C     C_R   0.245046 0.353400 0.622824 0.044756
C42   C     C_R   0.099309 0.497286 0.202195 -0.209597
C43   C     C_R   0.998660 0.497141 0.232222 -0.075421
C44   C     C_R   0.896718 0.494457 0.169784 -0.194417
C45   C     C_R   0.895331 0.493418 0.077254 0.099017
C46   C     C_R   0.997123 0.494540 0.047103 0.063470
Cu1   Cu    Cu3+1 0.098270 0.475420 0.521130 0.951664
Cu2   Cu    Cu3+1 0.901730 0.524580 0.478870 0.936472
H1    H     H_    0.178171 0.499364 0.250392 0.158492
H2    H     H_    0.455858 0.227812 0.332421 0.134658
H3    H     H_    0.378338 0.805032 0.542422 0.150500
H4    H     H_    0.911579 0.110065 0.586769 0.157185
H5    H     H_    0.559969 0.840449 0.557746 0.125120
H6    H     H_    0.773700 0.906442 0.608973 0.146923
H7    H     H_    0.666991 0.279311 0.372488 0.169677
H8    H     H_    0.166398 0.307218 0.660355 0.133498
H9    H     H_    0.337587 0.255984 0.701634 0.217311
H10   H     H_    0.818085 0.492532 0.193148 0.182813
H11   H     H_    0.335168 0.561906 0.448771 0.125508
H12   H     H_    0.497021 0.665350 0.394103 0.180689
H13   H     H_    0.720895 0.392089 0.591947 0.253778
H14   H     H_    0.715378 0.490538 0.036851 0.165035
H15   H     H_    0.715221 0.490832 0.874051 0.171060
H16   H     H_    0.818192 0.494477 0.749989 0.169750
H17   H     H_    0.177134 0.498498 0.807993 0.161348
H18   H     H_    0.278441 0.497872 0.964376 0.155534
H19   H     H_    0.278861 0.498177 0.127017 0.159846
H20   H     H_    0.088778 0.891742 0.404960 0.190197
N1    N     N_R   0.246280 0.438190 0.553160 -0.183922
N2    N     N_R   0.754320 0.561190 0.447410 -0.250156
O1    O     O_R   0.972510 0.318130 0.526570 -0.579805
O2    O     O_R   0.806530 0.359650 0.490890 -0.600468
O3    O     O_R   0.082980 0.479210 0.647590 -0.587025
O4    O     O_R   0.917000 0.520730 0.611900 -0.597879
O5    O     O_R   0.193470 0.640350 0.509110 -0.585033
O6    O     O_R   0.027490 0.681870 0.473430 -0.612686
O7    O     O_R   0.083000 0.479270 0.388100 -0.582912
O8    O     O_R   0.917020 0.520790 0.352410 -0.609114
C47   C     C_2   0.218842 0.114891 0.349427 0.375155
H21   H     H_    0.274950 0.206239 0.346110 0.059981
O9    O     O_2   0.112570 0.083341 0.315164 -0.509328
S1    S     S_3+6 0.551906 0.243017 0.707393 -0.028548
O10   O     O_2   0.542013 0.267955 0.797480 -0.305341
O11   O     O_2   0.446194 0.132467 0.686206 -0.288786
O12   O     O_3   0.682874 0.229208 0.715238 -0.564731
H22   H     H_    0.675798 0.163733 0.764449 0.387528
C48   C     C_2   0.845621 0.692428 0.309067 0.548062
H23   H     H_    0.942080 0.732510 0.330279 0.080672
O13   O     O_2   0.811967 0.686823 0.227639 -0.524860
S2    S     S_3+6 0.671693 0.809702 0.278075 0.022559
O14   O     O_2   0.623462 0.774634 0.184443 -0.242629
O15   O     O_2   0.596250 0.861332 0.301782 -0.299817
O16   O     O_3   0.817462 0.908395 0.277733 -0.507929
H24   H     H_    0.814705 0.971899 0.229441 0.395644

loop_
_geom_bond_atom_site_label_1
_geom_bond_atom_site_label_2
_ccdc_geom_bond_type
C16   C28   A    
C48   H23   S    
C8    H18   S    
O16   H24   S    
C12   O4    A    
Cu2   O6    S    
C19   C20   A    
C23   O6    A    
C21   C26   A    
C7    C8    A    
C13   H17   S    
O12   H22   S    
C2    C46   A    
C4    H15   S    
C1    O1    A    
C5    C6    A    
C36   C37   A    
C19   C21   A    
C34   O7    A    
C30   C31   A    
C20   C25   A    
C33   C36   A    
C18   C19   A    
Cu2   O8    S    
Cu1   N1    S    
C27   H20   S    
C18   H5    S    
C15   C27   A    
Cu1   Cu2   S    
C35   N2    A    
C44   H10   S    
C8    C9    A    
C1    C28   S    
C14   C27   A    
C15   C23   S    
C40   H11   S    
C21   C22   A    
C38   S1    S    
Cu2   O2    S    
C30   N2    A    
C24   H2    S    
C39   H13   S    
C1    O2    A    
C40   N1    A    
Cu2   O4    S    
C36   C40   A    
C24   C25   A    
Cu1   O3    S    
C16   H4    S    
Cu2   N2    S    
C47   O9    D    
C16   C17   A    
C15   C26   A    
C20   C28   A    
C45   C46   A    
C3    C45   A    
C35   C39   A    
C43   C44   A    
C9    H19   S    
C41   H8    S    
C37   C38   A    
S2    O15   D    
C31   C32   A    
C31   S2    S    
C17   C18   A    
C14   C47   S    
Cu1   O1    S    
C29   H9    S    
S1    O11   D    
C48   O13   D    
C22   C24   A    
C42   C43   A    
Cu1   O7    S    
C3    C4    A    
C44   C45   A    
S2    O16   S    
C41   N1    A    
C3    H14   S    
C6    C46   A    
C29   C41   A    
C10   H16   S    
C34   C43   S    
C25   H7    S    
C23   O5    A    
C4    C5    A    
C11   C12   S    
C6    C7    A    
S1    O12   S    
C32   C33   A    
C14   C22   A    
Cu1   O5    S    
C5    C10   A    
C26   H3    S    
C34   O8    A    
C11   C13   A    
S2    O14   D    
C38   C39   A    
C2    C42   A    
C33   C35   A    
C10   C11   A    
C42   H1    S    
C47   H21   S    
C7    C13   A    
S1    O10   D    
C29   C37   A    
C32   H12   S    
C30   C48   S    
C12   O3    A    
C2    C9    A    
C17   H6    S    
