data_mof_unit_44251.cif
_audit_creation_date              2012-10-26T20:31:43-0400
_audit_creation_method            fapswitch 2.2
_symmetry_space_group_name_H-M    P1
_symmetry_Int_Tables_number       1
_space_group_crystal_system       triclinic
_cell_length_a                    15.906371
_cell_length_b                    10.83634
_cell_length_c                    9.634844
_cell_angle_alpha                 91.137818
_cell_angle_beta                  90.544273
_cell_angle_gamma                 92.041035
_cell_volume                      1659.26022627

loop_
_atom_site_label
_atom_site_type_symbol
_atom_type_description
_atom_site_fract_x
_atom_site_fract_y
_atom_site_fract_z
_atom_type_partial_charge
C1    C     C_R   0.496345 0.262282 0.498509 0.592581
C2    C     C_R   0.483947 0.128320 0.496774 -0.028563
C3    C     C_R   0.451048 0.058927 0.380391 0.255611
C4    C     C_R   0.340633 0.499261 0.499411 0.562161
C5    C     C_R   0.445546 0.928612 0.385178 0.249653
C6    C     C_R   0.477248 0.868307 0.502893 -0.044806
C7    C     C_R   0.490501 0.939474 0.623453 -0.037579
C8    C     C_3   0.548060 0.934115 0.745747 0.162875
C9    C     C_3   0.558094 0.075341 0.736742 0.462885
C10   C     C_R   0.572574 0.523982 0.074405 0.155995
C11   C     C_R   0.431614 0.456570 0.071847 0.240745
C12   C     C_3   0.950029 0.408813 0.616534 0.154037
C13   C     C_R   0.432487 0.453825 0.923043 0.240332
C14   C     C_R   0.572714 0.522364 0.928379 0.155912
C15   C     C_3   0.634355 0.628897 0.921335 0.169982
C16   C     C_R   0.493630 0.736711 0.500956 0.550264
C17   C     C_3   0.634053 0.633494 0.080632 0.299401
C18   C     C_R   0.659480 0.499162 0.500401 0.576434
C19   C     C_3   0.049114 0.425305 0.624523 0.036769
C20   C     C_3   0.046299 0.433802 0.362379 0.136972
C21   C     C_3   0.948074 0.449223 0.350496 0.170931
C22   C     C_1   0.748976 0.497599 0.500881 0.085173
C23   C     C_3   0.917160 0.498655 0.498728 0.112394
C24   C     C_3   0.083914 0.500463 0.497451 -0.014236
C25   C     C_3   0.954647 0.638105 0.526220 0.190572
C26   C     C_3   0.054958 0.639154 0.509093 0.318368
C27   C     C_1   0.824417 0.497274 0.499931 0.056899
C28   C     C_1   0.176136 0.498774 0.497061 0.095660
C29   C     C_1   0.251412 0.498673 0.497870 0.091645
C30   C     C_R   0.495645 0.065368 0.619576 -0.002741
Cl1   Cl    Cl    0.417257 0.129834 0.227438 -0.407505
Cl2   Cl    Cl    0.089415 0.722357 0.356592 -0.455653
Cl3   Cl    Cl    0.393987 0.844454 0.247688 -0.409692
Cl4   Cl    Cl    0.488559 0.880138 0.890544 -0.463255
Cl5   Cl    Cl    0.522362 0.163515 0.882301 -0.394296
Cl6   Cl    Cl    0.660580 0.126034 0.682338 -0.533544
Cl7   Cl    Cl    0.102630 0.282918 0.650337 -0.576488
Cl8   Cl    Cl    0.731606 0.585976 0.846642 -0.551144
Cl9   Cl    Cl    0.732144 0.600318 0.163201 -0.493501
Cl10  Cl    Cl    0.102631 0.463669 0.204121 -0.547864
Cu1   Cu    Cu3+1 0.500000 0.499980 0.640670 1.100309
Cu2   Cu    Cu3+1 0.500000 0.500020 0.359330 1.109181
H1    H     H_    0.065952 0.475943 0.721874 0.163765
H2    H     H_    0.852669 0.724737 0.438209 0.253655
H3    H     H_    0.341068 0.323964 0.107257 0.275155
H4    H     H_    0.308366 0.470759 0.115747 0.259040
H5    H     H_    0.358025 0.302876 0.874044 0.272064
H6    H     H_    0.307997 0.439353 0.874129 0.234086
H7    H     H_    0.534367 0.744992 0.124072 0.288708
H8    H     H_    0.615307 0.759932 0.238575 0.280075
H9    H     H_    0.843743 0.338376 0.291298 0.289842
H10   H     H_    0.934812 0.290498 0.226562 0.266066
H11   H     H_    0.969288 0.605047 0.226102 0.337923
H12   H     H_    0.605988 0.883195 0.723432 0.131578
H13   H     H_    0.921989 0.487207 0.142973 0.284160
H14   H     H_    0.100740 0.660822 0.716671 0.209041
H15   H     H_    0.160508 0.730093 0.599850 0.277933
H16   H     H_    0.964754 0.647589 0.746434 0.283743
H17   H     H_    0.867791 0.674905 0.681864 0.288559
H18   H     H_    0.607658 0.709354 0.870725 0.157121
H19   H     H_    0.057581 0.333929 0.374443 0.198847
H20   H     H_    0.923826 0.227174 0.676024 0.291922
H21   H     H_    0.962625 0.235051 0.517273 0.298321
H22   H     H_    0.944341 0.393780 0.830738 0.271686
H23   H     H_    0.851117 0.414375 0.754830 0.313003
H24   H     H_    0.940200 0.813005 0.449332 0.310204
N1    N     N_R   0.500530 0.500930 0.147930 -0.234863
N2    N     N_3   0.924778 0.534048 0.239027 -0.493421
N3    N     N_3   0.097804 0.709175 0.624811 -0.523089
N4    N     N_3   0.932282 0.686711 0.665101 -0.559602
N5    N     N_R   0.500530 0.500890 0.852020 -0.226111
N6    N     N_3   0.922407 0.278979 0.585580 -0.526939
N7    N     N_3   0.914652 0.442403 0.752495 -0.617971
N8    N     N_3   0.917854 0.722835 0.426178 -0.509577
N9    N     N_3   0.357517 0.413585 0.141352 -0.505580
N10   N     N_3   0.363396 0.395868 0.847724 -0.526985
N11   N     N_3   0.599804 0.748688 0.133454 -0.530985
N12   N     N_3   0.907317 0.327863 0.315506 -0.601437
O1    O     O_R   0.500000 0.319640 0.618810 -0.445873
O2    O     O_R   0.500010 0.319680 0.381230 -0.441668
O3    O     O_R   0.379430 0.499990 0.618840 -0.480409
O4    O     O_R   0.379440 0.500030 0.381260 -0.447639
O5    O     O_R   0.499990 0.680320 0.618770 -0.499223
O6    O     O_R   0.500000 0.680360 0.381190 -0.497739
O7    O     O_R   0.620560 0.499970 0.618740 -0.461025
O8    O     O_R   0.620570 0.500010 0.381160 -0.479237

loop_
_geom_bond_atom_site_label_1
_geom_bond_atom_site_label_2
_ccdc_geom_bond_type
Cu1   Cu2   S    
Cu2   O2    S    
C15   H18   S    
H6    N10   S    
Cu2   O4    S    
H13   N2    S    
C7    C8    S    
C10   N1    A    
C26   Cl2   S    
C12   C23   S    
C18   O8    A    
C28   C29   T    
C24   C26   S    
H5    N10   S    
C1    C2    S    
C17   Cl9   S    
C5    C6    A    
C20   Cl10  S    
C10   C17   S    
H24   N8    S    
C16   O6    A    
H23   N7    S    
C25   N8    S    
C14   N5    A    
C20   H19   S    
H11   N2    S    
C19   Cl7   S    
C4    O3    A    
C20   C24   S    
C11   N1    A    
C8    C9    S    
C5    Cl3   S    
C21   N12   S    
C9    Cl6   S    
H22   N7    S    
Cu2   O8    S    
C23   C27   S    
C4    C29   S    
Cu1   N5    S    
C12   N6    S    
C7    C30   A    
C12   N7    S    
H10   N12   S    
H4    N9    S    
C19   H1    S    
C18   O7    A    
Cu2   O6    S    
C10   C14   A    
C8    H12   S    
H16   N4    S    
C13   N5    A    
C25   C26   S    
C16   O5    A    
C3    Cl1   S    
C15   Cl8   S    
C13   N10   S    
Cu1   O3    S    
C17   N11   S    
H20   N6    S    
C8    Cl4   S    
H21   N6    S    
H2    N8    S    
C9    C30   S    
C22   C27   T    
C21   C23   S    
C21   N2    S    
Cu2   N1    S    
C1    O1    A    
H8    N11   S    
C15   C17   S    
C18   C22   S    
C24   C28   S    
C3    C5    A    
Cu1   O1    S    
C6    C7    A    
Cu1   O7    S    
C2    C30   A    
H3    N9    S    
C2    C3    A    
H9    N12   S    
C11   N9    S    
C11   C13   A    
C12   C19   S    
H7    N11   S    
C19   C24   S    
C23   C25   S    
H17   N4    S    
C6    C16   S    
C4    O4    A    
C20   C21   S    
H14   N3    S    
C9    Cl5   S    
C26   N3    S    
C14   C15   S    
C1    O2    A    
C25   N4    S    
H15   N3    S    
Cu1   O5    S    
