data_mof_unit_6707.cif
_audit_creation_date              2013-03-05T16:30:50-0500
_audit_creation_method            fapswitch 2.2
_symmetry_space_group_name_H-M    P1
_symmetry_Int_Tables_number       1
_space_group_crystal_system       triclinic
_cell_length_a                    10.992694
_cell_length_b                    10.893702
_cell_length_c                    9.6948
_cell_angle_alpha                 90.133048
_cell_angle_beta                  102.023868
_cell_angle_gamma                 92.857071
_cell_volume                      1133.98542525

loop_
_atom_site_label
_atom_site_type_symbol
_atom_site_description
_atom_site_fract_x
_atom_site_fract_y
_atom_site_fract_z
_atom_type_partial_charge
O1    O     O_R   0.500000 0.319640 0.618810 -0.522397
O2    O     O_R   0.500010 0.319680 0.381230 -0.545047
C1    C     C_R   0.497149 0.262571 0.499397 0.830708
O3    O     O_R   0.320680 0.500000 0.575130 -0.537193
O4    O     O_R   0.320690 0.500040 0.337550 -0.531429
C2    C     C_R   0.263317 0.498444 0.442443 0.863354
Cu1   Cu    Cu3+1 0.499990 0.499980 0.640670 1.018244
Cu2   Cu    Cu3+1 0.500010 0.500020 0.359330 1.069106
O5    O     O_R   0.499990 0.680320 0.618770 -0.597525
O6    O     O_R   0.500000 0.680360 0.381190 -0.537489
O7    O     O_R   0.679310 0.499960 0.662450 -0.583515
O8    O     O_R   0.679320 0.500000 0.424870 -0.550059
C3    C     C_R   0.499319 0.736861 0.499846 0.833782
C4    C     C_R   0.736757 0.501171 0.557337 0.823775
H1    H     H_    0.885436 0.437882 0.392207 0.208716
H2    H     H_    0.111243 0.575786 0.595453 0.206804
C5    C     C_2   0.128292 0.484686 0.410387 -0.307402
C6    C     C_2   0.065066 0.520002 0.505167 -0.110649
H3    H     H_    0.920647 0.553023 0.688733 0.173979
C7    C     C_2   0.872018 0.513330 0.588112 -0.299786
C8    C     C_2   0.933437 0.485377 0.488386 -0.072142
H4    H     H_    0.081314 0.438088 0.313137 0.192628
C9    C     C_R   0.545029 0.065356 0.622727 -0.138333
C10   C     C_R   0.497234 0.128645 0.498798 -0.150235
C11   C     C_R   0.455397 0.060001 0.372026 0.481498
C12   C     C_R   0.464136 0.932177 0.372164 -0.198674
H5    H     H_    0.431042 0.881472 0.274265 0.204117
C13   C     C_R   0.501584 0.869964 0.498915 -0.051752
C14   C     C_R   0.541689 0.938216 0.622899 -0.119107
C15   C     C_3   0.501086 0.927147 0.760406 0.224663
C16   C     C_3   0.514858 0.067967 0.768499 0.856461
H6    H     H_    0.568225 0.880586 0.842928 0.088880
C17   C     C_R   0.608946 0.515854 0.098317 0.102638
N1    N     N_R   0.500780 0.500930 0.148120 -0.269407
C18   C     C_R   0.393375 0.476045 0.047424 0.330186
C19   C     C_R   0.394508 0.469067 0.901214 0.271099
N2    N     N_R   0.500790 0.500890 0.852210 -0.252265
C20   C     C_R   0.607955 0.516585 0.952014 0.113788
C21   C     C_3   0.701254 0.620801 0.962126 -0.585387
C22   C     C_3   0.704106 0.623210 0.120990 0.720422
H7    H     H_    0.788166 0.590778 0.933857 0.207262
H8    H     H_    0.662823 0.702525 0.904403 0.187502
O9    O     O_3   0.612220 0.116690 0.880514 -0.611177
C23   C     C_3   0.734331 0.102262 0.859785 -0.323291
H9    H     H_    0.754425 0.163128 0.774556 0.183605
H10   H     H_    0.750789 0.005064 0.837777 0.140058
H11   H     H_    0.801157 0.130843 0.958161 0.215717
N3    N     N_R   0.275145 0.462766 0.085116 0.180597
O10   O     O_R   0.222375 0.353824 0.089370 -0.383978
O11   O     O_R   0.208396 0.558665 0.081397 -0.380281
N4    N     N_R   0.281572 0.426610 0.807056 0.149111
O12   O     O_R   0.278578 0.326120 0.733962 -0.311071
O13   O     O_R   0.176724 0.474580 0.812512 -0.368079
O14   O     O_3   0.819045 0.590150 0.204807 -0.600084
C24   C     C_3   0.918395 0.673527 0.189131 -0.257056
H12   H     H_    0.974163 0.699264 0.295091 0.202218
H13   H     H_    0.889100 0.760439 0.134446 0.161783
H14   H     H_    0.979592 0.627196 0.129915 0.205678
N5    N     N_R   0.657286 0.734777 0.172701 0.120630
O15   O     O_R   0.555747 0.780521 0.103660 -0.467253
O16   O     O_R   0.715091 0.787389 0.290473 -0.350948
O17   O     O_3   0.398360 0.115602 0.249185 -0.579697
C25   C     C_3   0.268112 0.098587 0.235876 -0.271562
H15   H     H_    0.236005 0.155905 0.315216 0.189011
H16   H     H_    0.237396 0.000422 0.244811 0.135113
H17   H     H_    0.221301 0.127525 0.129578 0.208847
O18   O     O_3   0.374178 0.883588 0.734624 -0.567414
C26   C     C_3   0.353184 0.796161 0.834877 -0.178695
H18   H     H_    0.421540 0.723622 0.847712 0.183545
H19   H     H_    0.259592 0.750476 0.797506 0.185770
H20   H     H_    0.353679 0.841015 0.937672 0.176040
O19   O     O_3   0.400099 0.121410 0.767848 -0.546702
C27   C     C_3   0.375592 0.124261 0.905547 0.015348
H21   H     H_    0.408667 0.043580 0.969951 0.142094
H22   H     H_    0.273509 0.125803 0.896943 0.169572
H23   H     H_    0.419750 0.209123 0.962066 0.182733

loop_
_geom_bond_atom_site_label_1
_geom_bond_atom_site_label_2
_geom_bond_distance
_ccdc_geom_bond_type
C24   H12   1.108530 S    
C25   H16   1.114323 S    
C6    C8    1.452459 S    
C27   H21   1.111024 S    
H3    C7    1.087232 S    
Cu1   Cu2   2.727583 S    
C21   H7    1.111159 S    
Cu1   O7    1.938269 S    
C12   H5    1.082561 S    
O17   C25   1.413311 S    
C16   O9    1.436299 S    
C9    C14   1.383693 A    
C13   C14   1.390818 A    
N2    C20   1.362888 A    
C15   C16   1.534187 S    
O7    C4    1.305663 A    
N1    C18   1.380990 A    
O5    C3    1.307261 A    
C18   C19   1.422021 A    
C26   H18   1.106905 S    
C9    C10   1.404230 A    
C3    C13   1.449035 S    
C16   O19   1.414323 S    
C15   O18   1.421981 S    
C23   H11   1.109101 S    
N3    O11   1.302546 A    
C25   H17   1.105855 S    
N5    O15   1.299204 A    
C22   N5    1.469828 S    
C27   H22   1.108775 S    
C1    C10   1.458996 S    
O3    Cu1   1.940927 S    
C18   N3    1.422311 S    
C23   H10   1.110641 S    
C17   N1    1.376103 A    
C21   H8    1.107040 S    
C20   C21   1.480507 S    
N5    O16   1.301647 A    
C17   C22   1.513721 S    
O18   C26   1.407420 S    
C4    C7    1.453530 S    
C10   C11   1.416739 A    
O3    C2    1.309028 A    
C21   C22   1.534065 S    
C11   C12   1.400539 A    
N4    O12   1.297965 A    
N4    O13   1.299844 A    
C9    C16   1.517909 S    
O9    C23   1.414294 S    
C14   C15   1.494718 S    
Cu2   O8    1.940928 S    
C5    C6    1.329099 D    
Cu1   N2    2.049022 S    
Cu2   N1    2.049463 S    
C19   N4    1.434256 S    
H2    C6    1.083869 S    
N3    O10   1.299320 A    
O8    C4    1.307433 A    
C22   O14   1.416115 S    
C24   H13   1.114804 S    
C27   H23   1.110222 S    
C23   H9    1.111372 S    
Cu1   O5    1.976501 S    
C2    C5    1.451750 S    
O14   C24   1.418353 S    
C19   N2    1.379314 A    
O1    Cu1   1.975487 S    
Cu2   O6    1.975488 S    
O2    Cu2   1.976500 S    
C17   C20   1.416193 A    
O19   C27   1.416387 S    
O6    C3    1.304976 A    
O4    Cu2   1.938267 S    
C12   C13   1.399902 A    
C5    H4    1.087230 S    
O2    C1    1.310273 A    
C15   H6    1.111408 S    
O4    C2    1.303218 A    
C26   H20   1.107782 S    
C11   O17   1.381445 S    
C25   H15   1.113073 S    
H1    C8    1.086787 S    
C7    C8    1.332070 D    
C26   H19   1.109165 S    
C24   H14   1.109171 S    
O1    C1    1.306642 A    
