data_mof_unit_54693.cif
_audit_creation_date              2012-12-10T17:41:00-0500
_audit_creation_method            fapswitch 2.2
_symmetry_space_group_name_H-M    P1
_symmetry_Int_Tables_number       1
_space_group_crystal_system       triclinic
_cell_length_a                    14.966576
_cell_length_b                    13.861529
_cell_length_c                    11.675432
_cell_angle_alpha                 89.876137
_cell_angle_beta                  89.103099
_cell_angle_gamma                 90.106964
_cell_volume                      2421.87397146

loop_
_atom_site_label
_atom_site_type_symbol
_atom_type_description
_atom_site_fract_x
_atom_site_fract_y
_atom_site_fract_z
_atom_type_partial_charge
C1    C     C_R   0.329020 0.499618 0.500687 0.790020
C2    C     C_R   0.670954 0.499746 0.501607 0.800213
C3    C     C_R   0.907022 0.434826 0.428853 0.002340
C4    C     C_R   0.092781 0.543279 0.595007 0.013977
C5    C     C_R   0.951238 0.594235 0.678974 -0.297177
C6    C     C_R   0.048428 0.380860 0.347636 -0.292666
C7    C     C_R   0.044529 0.591490 0.682319 0.414473
C8    C     C_R   0.955181 0.376516 0.350525 0.443679
C9    C     C_R   0.429404 0.795405 0.547704 0.501695
C10   C     C_R   0.558608 0.206723 0.429300 0.487781
C11   C     C_R   0.570461 0.794988 0.450244 0.486680
C12   C     C_R   0.441372 0.206255 0.570566 0.486058
C13   C     C_R   0.567487 0.898007 0.441141 -0.100934
C14   C     C_R   0.436561 0.103537 0.565482 -0.102354
C15   C     C_R   0.434060 0.897725 0.559399 -0.096138
C16   C     C_R   0.564434 0.104144 0.435396 -0.098236
C17   C     C_R   0.501266 0.949329 0.501231 0.019725
C18   C     C_R   0.501011 0.052464 0.501102 0.030783
C19   C     C_R   0.630516 0.950942 0.375312 -0.178066
C20   C     C_R   0.369376 0.050564 0.623474 -0.195942
C21   C     C_R   0.369532 0.949664 0.622765 -0.168041
C22   C     C_R   0.630722 0.051890 0.375422 -0.193936
C23   C     C_R   0.499317 0.500135 0.284195 0.807420
C24   C     C_R   0.500090 0.499960 0.715825 0.803683
C25   C     C_1   0.498434 0.500467 0.162486 -0.191041
C26   C     C_1   0.499731 0.499987 0.837558 -0.193593
C27   C     C_1   0.498404 0.500377 0.059928 -0.005823
C28   C     C_1   0.499059 0.500119 0.940125 -0.006902
C29   C     C_R   0.813916 0.439755 0.426440 -0.226216
C30   C     C_R   0.186104 0.546549 0.589906 -0.225401
C31   C     C_R   0.767414 0.497452 0.504958 -0.070008
C32   C     C_R   0.232500 0.497418 0.503538 -0.069648
C33   C     C_R   0.812439 0.548069 0.589763 -0.231522
C34   C     C_R   0.187275 0.441211 0.423923 -0.204942
C35   C     C_R   0.905391 0.544542 0.593641 0.073623
C36   C     C_R   0.094297 0.437207 0.426955 0.065348
C37   C     C_R   0.953049 0.489636 0.511338 -0.000012
C38   C     C_R   0.046684 0.489960 0.511225 -0.002957
Cu1   Cu    Cu3+1 0.500000 0.597420 0.500000 1.001851
Cu2   Cu    Cu3+1 0.500000 0.402580 0.500000 0.998993
H1    H     H_    0.777031 0.400061 0.362661 0.192744
H2    H     H_    0.223336 0.586024 0.653455 0.190771
H3    H     H_    0.774964 0.589079 0.653174 0.122597
H4    H     H_    0.224671 0.401497 0.359177 0.133325
H5    H     H_    0.914800 0.634621 0.743875 0.159802
H6    H     H_    0.084919 0.339110 0.284018 0.157157
H7    H     H_    0.680860 0.914679 0.323763 0.169395
H8    H     H_    0.315671 0.086571 0.669321 0.167158
H9    H     H_    0.318961 0.912461 0.673039 0.180960
H10   H     H_    0.683332 0.088611 0.327835 0.156538
N1    N     N_R   0.500000 0.743810 0.500000 -0.259369
N2    N     N_R   0.500000 0.256190 0.500000 -0.255945
O1    O     O_R   0.370260 0.582280 0.500020 -0.555471
O2    O     O_R   0.629740 0.417720 0.499980 -0.544014
O3    O     O_R   0.629740 0.582280 0.499980 -0.551144
O4    O     O_R   0.370260 0.417720 0.500020 -0.536511
O5    O     O_R   0.500010 0.582270 0.337200 -0.548866
O6    O     O_R   0.499990 0.417730 0.662800 -0.567006
O7    O     O_R   0.499990 0.582270 0.662800 -0.561743
O8    O     O_R   0.500010 0.417730 0.337200 -0.567864
O9    O     O_3   0.088101 0.639365 0.768945 -0.625785
C39   C     C_3   0.100716 0.574071 0.860353 0.037890
H11   H     H_    0.135243 0.507182 0.830453 0.141926
H12   H     H_    0.035051 0.554323 0.900277 0.153485
C40   C     C_3   0.158698 0.621999 0.950649 -0.314494
H13   H     H_    0.223690 0.643713 0.910878 0.225542
H14   H     H_    0.124651 0.687862 0.983310 0.223912
C41   C     C_3   0.176162 0.553828 0.050760 -0.926525
H15   H     H_    0.112158 0.531949 0.092843 0.263017
H16   H     H_    0.218050 0.590937 0.114888 0.255116
H17   H     H_    0.212146 0.488447 0.020355 0.255916
O10   O     O_3   0.912047 0.318840 0.271953 -0.620695
C42   C     C_3   0.883322 0.232092 0.325704 0.055276
H18   H     H_    0.821159 0.208430 0.283421 0.174932
H19   H     H_    0.865737 0.240588 0.418458 0.140376
C43   C     C_3   0.953705 0.152946 0.310230 -0.359465
H20   H     H_    0.970869 0.145256 0.217737 0.229387
H21   H     H_    0.015229 0.173152 0.356559 0.214233
C44   C     C_3   0.919570 0.056285 0.356351 -0.919025
H22   H     H_    0.902732 0.062082 0.449083 0.258763
H23   H     H_    0.972156 0.000593 0.344825 0.257577
H24   H     H_    0.859240 0.033114 0.309371 0.249302
O11   O     O_3   0.351454 0.748696 0.581503 -0.560480
C45   C     C_3   0.281530 0.771126 0.503839 0.070998
H25   H     H_    0.269361 0.708256 0.447733 0.177703
H26   H     H_    0.295780 0.832766 0.444493 0.115679
C46   C     C_3   0.194796 0.792879 0.569436 -0.806390
H27   H     H_    0.187751 0.871602 0.583846 0.216940
H28   H     H_    0.136502 0.768427 0.519315 0.217563
H29   H     H_    0.193617 0.755954 0.653712 0.295235
O12   O     O_3   0.615019 0.257958 0.356154 -0.560477
C47   C     C_3   0.586540 0.246596 0.241563 0.061741
H30   H     H_    0.516053 0.269894 0.231381 0.160027
H31   H     H_    0.590467 0.170706 0.212026 0.121641
C48   C     C_3   0.646342 0.306589 0.162262 -0.774697
H32   H     H_    0.714310 0.274984 0.157765 0.236010
H33   H     H_    0.618359 0.307618 0.074732 0.200510
H34   H     H_    0.651531 0.381684 0.194204 0.253882
O13   O     O_3   0.641658 0.745967 0.400782 -0.544020
C49   C     C_3   0.720514 0.762959 0.464310 0.073556
H35   H     H_    0.718750 0.721345 0.545388 0.158954
H36   H     H_    0.730564 0.839350 0.489623 0.117268
C50   C     C_3   0.801618 0.733029 0.392658 -0.771136
H37   H     H_    0.809214 0.781672 0.317427 0.229452
H38   H     H_    0.862867 0.737679 0.444874 0.207051
H39   H     H_    0.793654 0.657951 0.361696 0.263691
O14   O     O_3   0.382306 0.257294 0.639811 -0.544580
C51   C     C_3   0.406583 0.247553 0.756213 0.085309
H40   H     H_    0.476303 0.271975 0.770395 0.155919
H41   H     H_    0.402161 0.171961 0.787069 0.116035
C52   C     C_3   0.343116 0.307544 0.830068 -0.783979
H42   H     H_    0.274365 0.277660 0.825492 0.235276
H43   H     H_    0.364848 0.306119 0.920573 0.194980
H44   H     H_    0.342180 0.383408 0.799511 0.250378

loop_
_geom_bond_atom_site_label_1
_geom_bond_atom_site_label_2
_ccdc_geom_bond_type
Cu1   N1    S    
C46   H27   S    
Cu2   O8    S    
C42   H18   S    
C14   C18   A    
C48   H32   S    
C9    N1    A    
C45   C46   S    
C10   N2    A    
C21   H9    S    
C48   H34   S    
C39   H11   S    
O11   C45   S    
C35   C37   A    
C1    O4    A    
C24   C26   S    
C2    O3    A    
C41   H17   S    
C19   H7    S    
Cu1   O5    S    
C51   H40   S    
C11   O13   S    
C3    C29   A    
C1    O1    A    
C7    O9    S    
C39   H12   S    
Cu1   O3    S    
C52   H42   S    
C6    C36   A    
C41   H15   S    
Cu2   O4    S    
O14   C51   S    
C31   C33   A    
C52   H44   S    
C22   H10   S    
C23   C25   S    
C42   H19   S    
C4    C7    A    
C49   H36   S    
C12   N2    A    
C23   O8    A    
C8    O10   S    
Cu2   O6    S    
C13   C19   A    
C33   H3    S    
C14   C20   A    
C19   C22   A    
C34   H4    S    
C45   H25   S    
C50   H38   S    
C3    C8    A    
C2    O2    A    
Cu1   Cu2   S    
C5    C7    A    
C6    C8    A    
C40   H14   S    
Cu2   N2    S    
C5    H5    S    
C1    C32   S    
C2    C31   S    
C32   C34   A    
C49   C50   S    
C37   C38   A    
C44   H24   S    
O13   C49   S    
C40   C41   S    
Cu1   O7    S    
C47   H31   S    
C17   C18   A    
C52   H43   S    
C43   H20   S    
C20   H8    S    
C9    O11   S    
C16   C18   A    
C12   C14   A    
C10   O12   S    
Cu2   O2    S    
C46   H28   S    
C42   C43   S    
O12   C47   S    
C44   H23   S    
C23   O5    A    
C16   C22   A    
C6    H6    S    
C39   C40   S    
C29   H1    S    
C30   H2    S    
C43   H21   S    
O10   C42   S    
C12   O14   S    
C48   H33   S    
C15   C17   A    
C25   C27   T    
C26   C28   T    
C51   C52   S    
C13   C17   A    
C36   C38   A    
C9    C15   A    
C29   C31   A    
C10   C16   A    
C30   C32   A    
C11   C13   A    
Cu1   O1    S    
C24   O7    A    
C5    C35   A    
C47   H30   S    
C33   C35   A    
C51   H41   S    
C50   H39   S    
C34   C36   A    
C47   C48   S    
O9    C39   S    
C11   N1    A    
C44   H22   S    
C15   C21   A    
C43   C44   S    
C20   C21   A    
C3    C37   A    
C24   O6    A    
C40   H13   S    
C46   H29   S    
C50   H37   S    
C41   H16   S    
C45   H26   S    
C49   H35   S    
C4    C38   A    
C4    C30   A    
C27   C28   S    
