data_mof_unit_16312.cif
_audit_creation_date              2013-03-05T15:42:26-0500
_audit_creation_method            fapswitch 2.2
_symmetry_space_group_name_H-M    P1
_symmetry_Int_Tables_number       1
_space_group_crystal_system       triclinic
_cell_length_a                    13.015406
_cell_length_b                    10.936477
_cell_length_c                    9.701415
_cell_angle_alpha                 90.384017
_cell_angle_beta                  96.253569
_cell_angle_gamma                 89.781691
_cell_volume                      1372.67094873

loop_
_atom_site_label
_atom_site_type_symbol
_atom_site_description
_atom_site_fract_x
_atom_site_fract_y
_atom_site_fract_z
_atom_type_partial_charge
O1    O     O_R   0.500020 0.321960 0.617050 -0.569243
O2    O     O_R   0.499980 0.321920 0.382890 -0.608617
C1    C     C_R   0.496176 0.265674 0.498898 0.935086
O3    O     O_R   0.349010 0.500000 0.598060 -0.553510
O4    O     O_R   0.348980 0.499950 0.363910 -0.581858
C2    C     C_R   0.300693 0.502821 0.473907 0.882575
Cu1   Cu    Cu3+1 0.500020 0.500020 0.638640 1.112717
Cu2   Cu    Cu3+1 0.499980 0.499980 0.361360 1.086304
O5    O     O_R   0.500020 0.678080 0.617110 -0.570883
O6    O     O_R   0.499980 0.678040 0.382950 -0.484796
O7    O     O_R   0.651020 0.500050 0.636090 -0.563411
O8    O     O_R   0.650990 0.500000 0.401940 -0.553880
C3    C     C_R   0.506830 0.734914 0.501099 0.861919
C4    C     C_R   0.698959 0.497255 0.525992 0.937305
C5    C     C_R   0.811175 0.484269 0.540314 -0.130787
C6    C     C_R   0.187428 0.508404 0.458002 -0.175143
C7    C     C_R   0.025425 0.592508 0.348889 -0.081755
C8    C     C_R   0.133842 0.585327 0.357649 -0.134157
C9    C     C_R   0.133021 0.434431 0.543607 0.292382
C10   C     C_R   0.024335 0.443639 0.537274 -0.062305
C11   C     C_R   0.972949 0.535107 0.452009 -0.002301
C12   C     C_R   0.870842 0.567997 0.473592 -0.051050
C13   C     C_R   0.858012 0.381309 0.608491 -0.181227
C14   C     C_R   0.965272 0.364494 0.613309 0.300064
C15   C     C_2   0.522704 0.936100 0.389910 0.349340
C16   C     C_2   0.532694 0.865625 0.506328 -0.272159
C17   C     C_2   0.529123 0.069829 0.397019 -0.133732
C18   C     C_2   0.489619 0.134009 0.496563 -0.228601
H1    H     H_    0.561458 0.116223 0.312937 0.187321
H2    H     H_    0.453048 0.089794 0.578290 0.155212
C19   C     C_2   0.443732 0.426912 0.915376 0.048682
N1    N     N_2   0.498860 0.498660 0.846770 -0.084042
H3    H     H_    0.403902 0.351141 0.860596 0.171086
C20   C     C_2   0.432675 0.440350 0.067883 -0.007990
N2    N     N_2   0.498840 0.498630 0.152900 -0.251013
H4    H     H_    0.368263 0.395274 0.108196 0.163689
H5    H     H_    0.567792 0.522607 0.118247 0.260933
C21   C     C_2   0.834857 0.697119 0.447334 0.488080
H6    H     H_    0.889984 0.767042 0.426860 0.085381
O9    O     O_2   0.745500 0.728871 0.453030 -0.532368
N3    N     N_R   0.520359 0.614571 0.902718 0.230384
O10   O     O_R   0.610757 0.662190 0.893762 -0.303000
O11   O     O_R   0.445378 0.685293 0.933836 -0.286713
C22   C     C_2   0.796099 0.286939 0.671333 0.487717
H7    H     H_    0.822601 0.248913 0.771880 0.139308
O12   O     O_2   0.717281 0.246625 0.608242 -0.529364
C23   C     C_2   0.967349 0.651724 0.225706 0.356972
H8    H     H_    0.998685 0.730490 0.177596 0.087328
O13   O     O_2   0.884560 0.610653 0.174741 -0.475483
N4    N     N_R   0.009999 0.255984 0.677485 0.146306
O14   O     O_R   0.017846 0.244469 0.811643 -0.305127
O15   O     O_R   0.030803 0.162953 0.600835 -0.280712
C24   C     C_2   0.190135 0.661661 0.264191 0.431230
H9    H     H_    0.166072 0.662858 0.153567 0.089659
O16   O     O_2   0.261627 0.726980 0.310980 -0.494200
N5    N     N_R   0.189899 0.356358 0.643220 0.153218
O17   O     O_R   0.244273 0.265785 0.601902 -0.347128
O18   O     O_R   0.198103 0.385733 0.774141 -0.326978
N6    N     N_R   0.503250 0.884086 0.253293 0.158506
O19   O     O_R   0.423813 0.921427 0.171165 -0.285871
O20   O     O_R   0.577186 0.825755 0.200486 -0.253673
C25   C     C_2   0.580040 0.912442 0.643573 0.404633
H10   H     H_    0.555928 0.876064 0.738668 0.158698
O21   O     O_2   0.649888 0.987242 0.651637 -0.458960

loop_
_geom_bond_atom_site_label_1
_geom_bond_atom_site_label_2
_geom_bond_distance
_ccdc_geom_bond_type
C9    N5    1.435748 S    
O4    Cu2   1.968175 S    
N4    O15   1.301184 A    
N1    N3    1.392933 S    
C19   H3    1.084074 S    
C25   H10   1.084818 S    
O2    C1    1.291940 A    
C17   H1    1.087158 S    
C7    C23   1.492901 S    
N3    O10   1.300238 A    
Cu1   O7    1.968175 S    
C19   N1    1.299556 D    
O8    C4    1.294498 A    
Cu2   O8    1.961998 S    
C10   C11   1.420462 A    
C9    C10   1.412463 A    
C5    C13   1.412060 A    
N4    O14   1.301300 A    
C16   C25   1.493069 S    
C19   C20   1.508193 S    
N6    O19   1.300863 A    
C23   O13   1.221453 D    
C6    C8    1.414422 A    
O1    Cu1   1.957186 S    
C24   H9    1.084882 S    
C22   H7    1.083733 S    
C21   O9    1.219397 D    
N3    O11   1.302716 A    
O4    C2    1.296243 A    
O3    Cu1   1.961998 S    
C18   H2    1.085427 S    
C1    C18   1.442686 S    
N2    H5    1.027558 S    
N5    O18   1.301175 A    
C7    C8    1.406304 A    
C20   H4    1.084421 S    
C24   O16   1.221010 D    
C14   N4    1.435435 S    
C21   H6    1.084576 S    
O7    C4    1.294489 A    
C7    C11   1.421938 A    
C3    C16   1.469140 S    
N6    O20   1.301454 A    
O3    C2    1.297107 A    
C15   C17   1.465963 S    
C13   C14   1.403163 A    
C2    C6    1.466500 S    
C12   C21   1.500724 S    
C10   C14   1.421777 A    
Cu1   Cu2   2.689948 S    
N5    O17   1.301475 A    
Cu2   O6    1.957186 S    
C20   N2    1.292490 D    
C17   C18   1.336398 D    
Cu1   O5    1.959910 S    
O5    C3    1.300924 A    
C4    C5    1.458463 S    
C25   O21   1.221100 D    
Cu1   N1    2.021012 S    
C15   N6    1.436034 S    
C8    C24   1.488400 S    
C15   C16   1.365821 D    
C11   C12   1.412575 A    
O6    C3    1.295087 A    
C5    C12   1.408342 A    
O2    Cu2   1.959910 S    
C13   C22   1.485932 S    
C23   H8    1.084329 S    
C22   O12   1.218364 D    
O1    C1    1.293669 A    
Cu2   N2    2.020751 S    
C6    C9    1.409661 A    
