data_mof_unit_29033.cif
_audit_creation_date              2013-03-05T15:55:10-0500
_audit_creation_method            fapswitch 2.2
_symmetry_space_group_name_H-M    P1
_symmetry_Int_Tables_number       1
_space_group_crystal_system       triclinic
_cell_length_a                    14.460049
_cell_length_b                    16.423646
_cell_length_c                    6.916158
_cell_angle_alpha                 90.000145
_cell_angle_beta                  98.588559
_cell_angle_gamma                 90.000045
_cell_volume                      1624.07713537

loop_
_atom_site_label
_atom_site_type_symbol
_atom_site_description
_atom_site_fract_x
_atom_site_fract_y
_atom_site_fract_z
_atom_type_partial_charge
O1    O     O_R   0.831700 0.662810 0.581550 -0.589112
O2    O     O_R   0.168300 0.337190 0.418450 -0.583314
O3    O     O_R   0.168300 0.162810 0.418450 -0.589155
O4    O     O_R   0.831700 0.837190 0.581550 -0.583278
O5    O     O_R   0.842890 0.834390 0.255500 -0.561060
O6    O     O_R   0.157110 0.165610 0.744500 -0.572063
O7    O     O_R   0.157110 0.334390 0.744500 -0.561102
O8    O     O_R   0.842890 0.665610 0.255500 -0.572069
O9    O     O_R   0.661690 0.835580 0.024130 -0.580182
O10   O     O_R   0.338310 0.164420 0.975870 -0.583190
O11   O     O_R   0.338310 0.335580 0.975870 -0.580205
O12   O     O_R   0.661690 0.664420 0.024130 -0.583195
C1    C     C_R   0.866181 0.864243 0.430398 1.095716
C2    C     C_R   0.135400 0.134783 0.569693 1.105923
C3    C     C_R   0.133823 0.364246 0.569604 1.095877
C4    C     C_R   0.864595 0.634780 0.430304 1.105798
C5    C     C_R   0.067807 0.064365 0.537771 -0.490490
C6    C     C_R   0.934676 0.934286 0.460463 -0.487272
C7    C     C_R   0.932179 0.564356 0.462213 -0.490461
C8    C     C_R   0.065332 0.434295 0.539544 -0.487291
C9    C     C_R   0.012426 0.939861 0.357051 0.257380
C10   C     C_R   0.990677 0.058721 0.640974 0.266400
C11   C     C_R   0.987585 0.439869 0.642970 0.257323
C12   C     C_R   0.009311 0.558721 0.359026 0.266549
O13   O     O_3   0.687240 0.750000 0.366320 -0.234171
O14   O     O_3   0.312760 0.250000 0.633680 -0.234145
V1    V     V_3+5 0.757720 0.750000 0.115230 1.394160
V2    V     V_3+5 0.242280 0.250000 0.884770 1.394073
O15   O     O_R   0.650500 0.664000 0.690740 -0.559562
O16   O     O_R   0.349500 0.336000 0.309260 -0.559834
O17   O     O_R   0.349500 0.164000 0.309260 -0.559558
O18   O     O_R   0.650500 0.836000 0.690740 -0.559888
C13   C     C_R   0.627622 0.637014 0.854059 1.083147
C14   C     C_R   0.372399 0.362946 0.145987 1.083825
C15   C     C_R   0.372377 0.137014 0.145941 1.083167
C16   C     C_R   0.627602 0.862946 0.854013 1.083894
C17   C     C_R   0.078250 0.004003 0.396375 0.293041
C18   C     C_R   0.924044 0.995356 0.600862 0.283198
C19   C     C_R   0.921737 0.503993 0.603604 0.293063
C20   C     C_R   0.075954 0.495362 0.399126 0.283058
V3    V     V_3+5 0.735670 0.750000 0.607790 1.396512
V4    V     V_3+5 0.264330 0.250000 0.392210 1.396466
O19   O     O_3   0.806150 0.750000 0.906560 -0.256826
O20   O     O_3   0.193850 0.250000 0.093440 -0.256928
C21   C     C_2   0.562998 0.932909 0.847018 -0.441109
C22   C     C_2   0.437026 0.067042 0.152758 -0.437759
C23   C     C_2   0.436999 0.432912 0.152983 -0.441053
C24   C     C_2   0.562980 0.567037 0.847242 -0.437756
C25   C     C_2   0.525923 0.960438 0.004446 0.264606
C26   C     C_2   0.472915 0.038782 0.994501 0.261967
C27   C     C_2   0.474087 0.460432 0.995566 0.264554
C28   C     C_2   0.527077 0.538787 0.005490 0.261954
H1    H     H_    0.450416 0.034857 0.290926 0.226043
H2    H     H_    0.550724 0.965757 0.709631 0.225512
H3    H     H_    0.549611 0.534840 0.709089 0.226059
H4    H     H_    0.449251 0.465773 0.290354 0.225534
N1    N     N_R   0.029031 0.878420 0.218686 0.268495
O21   O     O_R   0.110296 0.842850 0.237685 -0.246602
O22   O     O_R   0.975695 0.875083 0.049961 -0.307083
N2    N     N_R   0.973419 0.122855 0.770758 0.270880
O23   O     O_R   0.982764 0.110367 0.958403 -0.293815
O24   O     O_R   0.957016 0.195891 0.702396 -0.332254
N3    N     N_R   0.971021 0.378453 0.781424 0.268534
O25   O     O_R   0.889782 0.342838 0.762473 -0.246623
O26   O     O_R   0.024361 0.375181 0.950153 -0.307272
N4    N     N_R   0.026582 0.622878 0.229332 0.270902
O27   O     O_R   0.016753 0.610538 0.041573 -0.293845
O28   O     O_R   0.043277 0.695844 0.297923 -0.332061
N5    N     N_R   0.157737 0.006143 0.294208 0.261858
O29   O     O_R   0.146233 0.007065 0.104000 -0.327728
O30   O     O_R   0.241832 0.001270 0.391213 -0.338624
N6    N     N_R   0.840161 0.998287 0.688828 0.256801
O31   O     O_R   0.759173 0.004408 0.579138 -0.339635
O32   O     O_R   0.844203 0.996153 0.877911 -0.313254
N7    N     N_R   0.842227 0.506110 0.705708 0.261870
O33   O     O_R   0.853695 0.506998 0.895914 -0.327584
O34   O     O_R   0.758145 0.501264 0.608634 -0.338677
N8    N     N_R   0.159818 0.498283 0.311076 0.256768
O35   O     O_R   0.240842 0.504182 0.420732 -0.339813
O36   O     O_R   0.155708 0.496586 0.121936 -0.313177
N9    N     N_R   0.461033 0.084118 0.814912 0.237926
O37   O     O_R   0.405541 0.057119 0.663184 -0.360829
O38   O     O_R   0.506216 0.151991 0.803071 -0.309514
N10   N     N_R   0.536074 0.914086 0.182462 0.238839
O39   O     O_R   0.591222 0.939703 0.336185 -0.358638
O40   O     O_R   0.490998 0.845880 0.189798 -0.308219
N11   N     N_R   0.538926 0.584144 0.185049 0.237936
O41   O     O_R   0.594396 0.557162 0.336828 -0.360830
O42   O     O_R   0.493750 0.652026 0.196798 -0.309517
N12   N     N_R   0.463970 0.414059 0.817582 0.238856
O43   O     O_R   0.408849 0.439661 0.663805 -0.358623
O44   O     O_R   0.509034 0.345842 0.810339 -0.308218

loop_
_geom_bond_atom_site_label_1
_geom_bond_atom_site_label_2
_geom_bond_distance
_ccdc_geom_bond_type
C24   H3    1.083874 S    
N4    O28   1.298151 A    
N11   O41   1.300072 A    
N3    O26   1.300283 A    
O3    V4    2.021627 S    
O17   V4    2.012925 S    
C17   N5    1.436729 S    
C6    C9    1.422700 A    
N9    O37   1.300071 A    
N12   O43   1.300013 A    
O9    V1    2.009827 S    
C1    C6    1.511972 S    
O18   C16   1.300889 A    
C25   N10   1.436289 S    
N10   O40   1.300818 A    
C27   N12   1.436292 S    
C10   N2    1.429802 S    
C8    C20   1.420277 A    
N8    O36   1.300872 A    
N1    O22   1.300274 A    
O4    V3    2.021624 S    
C10   C18   1.417229 A    
O15   C13   1.301280 A    
N2    O24   1.298132 A    
O4    C1    1.301738 A    
N5    O30   1.300591 A    
O5    V1    2.005496 S    
O6    V2    2.005496 S    
O9    C16   1.286873 A    
O18   V3    2.012925 S    
O10   C15   1.286753 A    
C19   N7    1.436743 S    
O5    C1    1.302042 A    
C12   N4    1.429743 S    
O7    C3    1.302047 A    
N4    O27   1.300934 A    
O8    C4    1.305054 A    
V3    O19   2.163200 S    
C2    C5    1.509025 S    
V4    O20   2.163202 S    
N9    O38   1.300824 A    
C28   N11   1.436290 S    
C3    C8    1.511997 S    
C18   N6    1.436702 S    
O16   C14   1.300887 A    
O12   V1    2.009824 S    
C27   C28   1.494036 S    
N10   O39   1.300013 A    
N6    O32   1.300757 A    
O13   V3    1.711771 S    
N8    O35   1.300716 A    
C23   C27   1.360741 D    
V2    O20   1.695610 S    
O7    V2    2.005500 S    
N2    O23   1.300840 A    
N7    O33   1.301187 A    
C9    N1    1.435366 S    
O6    C2    1.305060 A    
N12   O44   1.300822 A    
C8    C11   1.422717 A    
C21   C25   1.360743 D    
C16   C21   1.477103 S    
O1    C4    1.296532 A    
C5    C17   1.416344 A    
O2    C3    1.301744 A    
N7    O34   1.300591 A    
O3    C2    1.296529 A    
C7    C19   1.416329 A    
O1    V3    2.021626 S    
C21   H2    1.083987 S    
N11   O42   1.300825 A    
C20   N8    1.436764 S    
O14   V4    1.711771 S    
O10   V2    2.009828 S    
C13   C24   1.477706 S    
O15   V3    2.012925 S    
O11   C14   1.286878 A    
N6    O31   1.300665 A    
O13   V1    2.140785 S    
C22   C26   1.361024 D    
O14   V2    2.140786 S    
C5    C10   1.414104 A    
C7    C12   1.414056 A    
C6    C18   1.420241 A    
N1    O21   1.301272 A    
O11   V2    2.009823 S    
O2    V4    2.021626 S    
C4    C7    1.509018 S    
C11   C19   1.418591 A    
C22   H1    1.083877 S    
C11   N3    1.435354 S    
C12   C20   1.417230 A    
O17   C15   1.301282 A    
N5    O29   1.301187 A    
N3    O25   1.301275 A    
V1    O19   1.695610 S    
C24   C28   1.361023 D    
C9    C17   1.418577 A    
C25   C26   1.494024 S    
O8    V1    2.005502 S    
O16   V4    2.012925 S    
C14   C23   1.477108 S    
O12   C13   1.286755 A    
C15   C22   1.477701 S    
C26   N9    1.436288 S    
C23   H4    1.083984 S    
