data_mof_unit_15746.cif
_audit_creation_date              2012-12-10T18:33:33-0500
_audit_creation_method            fapswitch 2.2
_symmetry_space_group_name_H-M    P1
_symmetry_Int_Tables_number       1
_space_group_crystal_system       triclinic
_cell_length_a                    8.748546
_cell_length_b                    15.129875
_cell_length_c                    13.947524
_cell_angle_alpha                 91.754887
_cell_angle_beta                  98.662609
_cell_angle_gamma                 92.540235
_cell_volume                      1822.00130669

loop_
_atom_site_label
_atom_site_type_symbol
_atom_type_description
_atom_site_fract_x
_atom_site_fract_y
_atom_site_fract_z
_atom_type_partial_charge
C1    C     C_R   0.501571 0.329921 0.499262 0.781348
C2    C     C_R   0.501578 0.669633 0.501410 0.773409
C3    C     C_R   0.608979 0.550480 0.120179 -0.326032
C4    C     C_R   0.457733 0.428750 0.888313 -0.342317
C5    C     C_R   0.609128 0.549219 0.221096 0.040562
C6    C     C_R   0.450395 0.427768 0.786477 0.030365
C7    C     C_R   0.385477 0.452306 0.195210 0.315524
C8    C     C_R   0.560079 0.573964 0.798892 0.295187
C9    C     C_R   0.362767 0.468533 0.093573 0.033514
C10   C     C_R   0.524855 0.585082 0.895076 0.053836
C11   C     C_R   0.485106 0.510709 0.053802 0.067304
C12   C     C_R   0.489461 0.508647 0.944757 0.056463
C13   C     C_R   0.203632 0.499846 0.474869 0.877725
C14   C     C_R   0.796377 0.500332 0.525137 0.873737
C15   C     C_2   0.037283 0.499942 0.461349 -0.376618
C16   C     C_2   0.962731 0.500479 0.538662 -0.370452
C17   C     C_R   0.457444 0.096496 0.578434 -0.172571
C18   C     C_R   0.624760 0.904326 0.466052 -0.166193
C19   C     C_R   0.452587 0.188012 0.575694 -0.180233
C20   C     C_R   0.620635 0.812325 0.464241 -0.194267
C21   C     C_R   0.505067 0.233291 0.499686 -0.025167
C22   C     C_R   0.506102 0.765475 0.504471 -0.007972
C23   C     C_R   0.565753 0.185806 0.427704 -0.213344
C24   C     C_R   0.394711 0.810394 0.545846 -0.195082
C25   C     C_R   0.565514 0.093846 0.428331 -0.162560
C26   C     C_R   0.395115 0.902276 0.544534 -0.169143
C27   C     C_R   0.511339 0.048079 0.503854 0.106124
C28   C     C_R   0.510697 0.950419 0.505010 0.103180
Cu1   Cu    Cu3+1 0.500000 0.499990 0.596430 0.917324
Cu2   Cu    Cu3+1 0.500000 0.500010 0.403570 0.917598
H1    H     H_    0.975985 0.499521 0.387484 0.168206
H2    H     H_    0.024018 0.500954 0.612530 0.172302
H3    H     H_    0.419800 0.064049 0.639509 0.121737
H4    H     H_    0.717914 0.939000 0.437506 0.122876
H5    H     H_    0.407847 0.223335 0.633378 0.136003
H6    H     H_    0.708147 0.777661 0.432906 0.127328
H7    H     H_    0.615321 0.219531 0.371732 0.136282
H8    H     H_    0.304932 0.774219 0.576359 0.132983
H9    H     H_    0.607017 0.058975 0.369220 0.123766
H10   H     H_    0.303188 0.935148 0.572949 0.123774
H11   H     H_    0.706538 0.583116 0.094790 0.132898
H12   H     H_    0.429635 0.367966 0.922058 0.148978
H13   H     H_    0.701211 0.584791 0.269496 0.131194
H14   H     H_    0.411147 0.367545 0.744730 0.133597
N1    N     N_R   0.500000 0.500020 0.258690 -0.199535
N2    N     N_R   0.500000 0.499980 0.741310 -0.199936
O1    O     O_R   0.500010 0.371450 0.581430 -0.588853
O2    O     O_R   0.499990 0.628550 0.418570 -0.573811
O3    O     O_R   0.500010 0.371460 0.418560 -0.602308
O4    O     O_R   0.499990 0.628540 0.581440 -0.612147
O5    O     O_R   0.274840 0.499990 0.562640 -0.569657
O6    O     O_R   0.725160 0.500010 0.437360 -0.581141
O7    O     O_R   0.274840 0.500000 0.399770 -0.608628
O8    O     O_R   0.725160 0.500000 0.600230 -0.604432
C29   C     C_3   0.304120 0.369742 0.227494 -0.388033
C30   C     C_3   0.402405 0.288409 0.222420 -0.335500
C31   C     C_3   0.391640 0.246414 0.120630 -0.876047
H15   H     H_    0.269453 0.227431 0.090369 0.248278
H16   H     H_    0.442101 0.292463 0.072213 0.254169
H17   H     H_    0.458650 0.185656 0.124166 0.241690
H18   H     H_    0.525862 0.307092 0.249459 0.234113
H19   H     H_    0.361277 0.237499 0.269607 0.216021
H20   H     H_    0.278191 0.378103 0.301367 0.213776
H21   H     H_    0.188206 0.354298 0.185110 0.177869
C32   C     C_3   0.685027 0.636334 0.768450 -0.377557
C33   C     C_3   0.847505 0.625898 0.826288 -0.374975
C34   C     C_3   0.880321 0.681197 0.920931 -0.849742
H22   H     H_    0.843013 0.749862 0.910255 0.251537
H23   H     H_    0.822838 0.649839 0.977291 0.247533
H24   H     H_    0.006270 0.684084 0.947486 0.236272
H25   H     H_    0.865808 0.555128 0.840865 0.226197
H26   H     H_    0.935351 0.647729 0.780778 0.202925
H27   H     H_    0.702824 0.621001 0.694782 0.232706
H28   H     H_    0.652511 0.706273 0.767234 0.167770
C35   C     C_3   0.211028 0.439144 0.028622 -0.452768
C36   C     C_3   0.068847 0.480781 0.060465 -0.370938
C37   C     C_3   0.920771 0.430965 0.010945 -0.836013
H29   H     H_    0.918688 0.425652 0.931201 0.250783
H30   H     H_    0.913046 0.363330 0.039198 0.248784
H31   H     H_    0.818413 0.466234 0.025504 0.253920
H32   H     H_    0.071468 0.480116 0.140219 0.217477
H33   H     H_    0.066923 0.551047 0.039870 0.219845
H34   H     H_    0.209673 0.458781 0.952763 0.212649
H35   H     H_    0.196675 0.365981 0.025418 0.215560
C38   C     C_3   0.509592 0.677411 0.939014 -0.414707
C39   C     C_3   0.340681 0.694217 0.948163 -0.354438
C40   C     C_3   0.326016 0.787559 0.989623 -0.855456
H36   H     H_    0.396048 0.796570 0.062911 0.258614
H37   H     H_    0.366109 0.837696 0.941186 0.251887
H38   H     H_    0.203335 0.798492 0.995997 0.240554
H39   H     H_    0.268187 0.686241 0.875471 0.217746
H40   H     H_    0.295955 0.645950 0.996789 0.228093
H41   H     H_    0.581814 0.687727 0.010882 0.203791
H42   H     H_    0.549333 0.729846 0.893843 0.202889

loop_
_geom_bond_atom_site_label_1
_geom_bond_atom_site_label_2
_ccdc_geom_bond_type
C40   H36   S    
C10   C38   S    
C1    C21   S    
Cu2   N1    S    
C7    C29   S    
C29   C30   S    
C35   H34   S    
C37   H29   S    
Cu1   O1    S    
C7    N1    A    
C22   C24   A    
Cu2   O2    S    
C19   C21   A    
C24   C26   A    
C39   H39   S    
C38   C39   S    
C35   H35   S    
C31   H16   S    
Cu1   O8    S    
C15   C16   D    
C32   H27   S    
C30   C31   S    
C2    O4    A    
C13   O5    A    
C38   H41   S    
C14   O6    A    
C29   H20   S    
C2    C22   S    
C24   H8    S    
C4    C12   A    
C30   H19   S    
C33   C34   S    
C5    H13   S    
C8    C32   S    
C6    H14   S    
C17   H3    S    
C13   O7    A    
Cu1   O4    S    
C37   H30   S    
Cu2   O7    S    
C33   H26   S    
C34   H22   S    
C17   C27   A    
C18   C28   A    
C36   C37   S    
C4    C6    A    
C36   H33   S    
C39   C40   S    
C1    O1    A    
C31   H17   S    
C2    O2    A    
C23   H7    S    
C5    N1    A    
C32   H28   S    
C34   H23   S    
C35   C36   S    
Cu1   Cu2   S    
C18   H4    S    
C38   H42   S    
C33   H25   S    
C29   H21   S    
C9    C11   A    
C10   C12   A    
C14   O8    A    
Cu2   O3    S    
C20   C22   A    
C13   C15   S    
C14   C16   S    
C25   C27   A    
Cu1   O5    S    
C37   H31   S    
C7    C9    A    
Cu2   O6    S    
C3    H11   S    
C6    N2    A    
C3    C5    A    
C36   H32   S    
C11   C12   S    
C15   H1    S    
C16   H2    S    
C26   C28   A    
Cu1   N2    S    
C34   H24   S    
C21   C23   A    
C19   H5    S    
C25   H9    S    
C26   H10   S    
C31   H15   S    
C4    H12   S    
C17   C19   A    
C18   C20   A    
C23   C25   A    
C8    N2    A    
C3    C11   A    
C20   H6    S    
C8    C10   A    
C32   C33   S    
C40   H38   S    
C27   C28   S    
C40   H37   S    
C30   H18   S    
C39   H40   S    
C9    C35   S    
C1    O3    A    
