data_mof_unit_33500.cif
_audit_creation_date              2013-03-05T16:21:40-0500
_audit_creation_method            fapswitch 2.2
_symmetry_space_group_name_H-M    P1
_symmetry_Int_Tables_number       1
_space_group_crystal_system       triclinic
_cell_length_a                    8.504363
_cell_length_b                    18.847164
_cell_length_c                    18.861135
_cell_angle_alpha                 104.411789
_cell_angle_beta                  91.540838
_cell_angle_gamma                 92.720666
_cell_volume                      2922.34819907

loop_
_atom_site_label
_atom_site_type_symbol
_atom_site_description
_atom_site_fract_x
_atom_site_fract_y
_atom_site_fract_z
_atom_type_partial_charge
P1    P     P_3+3 0.058010 0.429760 0.330690 0.517439
O1    O     O_2   0.885040 0.450540 0.321170 -0.339432
O2    O     O_3   0.133000 0.456200 0.410860 -0.435853
O3    O     O_3   0.639000 0.584840 0.375630 -0.373062
O4    O     O_2   0.747045 0.525820 0.248181 -0.343011
O5    O     O_3   0.045516 0.334100 0.307374 -0.488000
O6    O     O_3   0.684854 0.663602 0.275681 -0.422869
H1    H     H_    0.547932 0.711805 0.362039 0.040749
C1    C     C_3   0.634094 0.791110 0.306917 -0.838764
H2    H     H_    0.737436 0.807124 0.345892 0.252652
H3    H     H_    0.669476 0.794531 0.251602 0.292937
P2    P     P_3+3 0.631910 0.669560 0.569730 0.538330
P3    P     P_3+3 0.079471 0.715868 0.419048 0.452726
O7    O     O_2   0.804950 0.679010 0.548920 -0.380230
O8    O     O_3   0.051170 0.624120 0.414780 -0.342446
O9    O     O_2   0.957219 0.753168 0.472911 -0.410655
O10   O     O_3   0.620332 0.728200 0.659025 -0.669203
O11   O     O_3   0.006845 0.728248 0.335620 -0.484008
C2    C     C_3   0.127623 0.721797 0.285738 0.158845
H4    H     H_    0.163758 0.664178 0.269628 0.092359
H5    H     H_    0.230538 0.759507 0.309274 0.039133
C3    C     C_3   0.064621 0.744096 0.218336 -0.051337
H6    H     H_    0.972805 0.702693 0.188420 0.192087
H7    H     H_    0.009070 0.797593 0.236325 0.139613
C4    C     C_3   0.201634 0.691626 0.624579 0.225117
H8    H     H_    0.329696 0.700359 0.621946 0.056130
H9    H     H_    0.157859 0.653411 0.572561 0.076775
C5    C     C_3   0.123720 0.764540 0.629308 0.184856
H10   H     H_    0.128970 0.777046 0.575778 0.058110
H11   H     H_    0.998926 0.759774 0.642590 0.133378
Ba1   Ba    Ba6+2 0.844980 0.532260 0.467660 1.649809
C6    C     C_3   0.982403 0.306544 0.362967 0.429493
H12   H     H_    0.878220 0.336462 0.384763 0.072307
H13   H     H_    0.073546 0.311140 0.407396 0.094298
C7    C     C_3   0.932917 0.225787 0.330083 -0.749887
H14   H     H_    0.814433 0.220741 0.302626 0.273574
H15   H     H_    0.930717 0.194896 0.372866 0.162629
H16   H     H_    0.016835 0.199956 0.288587 0.311584
C8    C     C_3   0.614510 0.706430 0.725314 0.975492
C9    C     C_3   0.504283 0.756273 0.775057 -0.731157
H17   H     H_    0.528386 0.814301 0.773824 0.260581
H18   H     H_    0.522306 0.754449 0.832854 0.277199
H19   H     H_    0.381439 0.739188 0.757921 0.279856
P4    P     P_3+3 0.131690 0.570300 0.669320 0.590831
O12   O     O_2   0.304650 0.549490 0.678880 -0.315367
O13   O     O_3   0.056690 0.543860 0.589150 -0.400983
O14   O     O_3   0.550690 0.415220 0.624380 -0.341288
O15   O     O_3   0.170567 0.666133 0.687075 -0.470371
P5    P     P_3+3 0.109207 0.280328 0.568567 0.496495
O16   O     O_3   0.632900 0.410750 0.456460 -0.392717
O17   O     O_3   0.138520 0.375940 0.585230 -0.434406
O18   O     O_2   0.243120 0.244171 0.521286 -0.368660
O19   O     O_3   0.143261 0.258846 0.652508 -0.460617
Ba2   Ba    Ba6+2 0.344840 0.467800 0.532350 1.671208
P6    P     P_3+3 0.617257 0.576582 0.282795 0.521400
C10   C     C_3   0.572120 0.713597 0.305183 0.467835
H20   H     H_    0.461570 0.701037 0.270722 0.048322
H21   H     H_    0.540707 0.830104 0.324987 0.201670
O20   O     O_3   0.556800 0.589310 0.543550 -0.351995
C11   C     C_3   0.457238 0.350625 0.305632 0.494273
H22   H     H_    0.333349 0.331554 0.308625 0.129445
H23   H     H_    0.478090 0.407899 0.339254 0.052413
C12   C     C_3   0.490375 0.349490 0.226470 -0.842118
H24   H     H_    0.396054 0.375185 0.201872 0.207127
H25   H     H_    0.602905 0.380987 0.224550 0.256357
H26   H     H_    0.497230 0.292170 0.193274 0.301941
P7    P     P_3+3 0.560183 0.319572 0.423981 0.488326
O21   O     O_2   0.384750 0.321010 0.451130 -0.351168
O22   O     O_3   0.555336 0.302285 0.328398 -0.528011
C13   C     C_3   0.189434 0.323635 0.705586 0.646081
H27   H     H_    0.296071 0.348052 0.688400 0.111812
H28   H     H_    0.103587 0.366364 0.710061 0.049871
C14   C     C_3   0.213864 0.307689 0.780659 -0.834742
H29   H     H_    0.240031 0.359448 0.823658 0.197286
H30   H     H_    0.114296 0.275730 0.795683 0.318863
H31   H     H_    0.308980 0.271815 0.780109 0.263841
P8    P     P_3+3 0.582314 0.422153 0.720177 0.501199
C15   C     C_3   0.611845 0.276971 0.740100 1.199736
O23   O     O_2   0.449234 0.471531 0.753465 -0.380895
O24   O     O_3   0.523495 0.341651 0.749966 -0.692856
H32   H     H_    0.695550 0.211297 0.815088 0.280606
C16   C     C_3   0.599531 0.247967 0.810002 -0.844030
H33   H     H_    0.490537 0.213902 0.811050 0.229870
H34   H     H_    0.606343 0.294441 0.859722 0.231915
C17   C     C_R   0.998402 0.473871 0.047610 0.023317
C18   C     C_R   0.911582 0.435462 0.089941 0.045602
C19   C     C_R   0.756113 0.409108 0.066114 -0.037046
C20   C     C_R   0.689167 0.420090 0.001220 -0.209287
C21   C     C_R   0.777579 0.455217 0.956755 0.153095
C22   C     C_R   0.933080 0.481643 0.979629 0.096809
C23   C     C_R   0.715682 0.460620 0.888215 -0.194937
C24   C     C_R   0.810637 0.487792 0.839163 -0.010921
C25   C     C_R   0.964552 0.518160 0.863704 -0.037612
C26   C     C_R   0.025126 0.513603 0.933557 -0.004342
C27   C     C_R   0.766851 0.475664 0.763594 0.341004
C28   C     C_R   0.872936 0.497990 0.716390 -0.315825
C29   C     C_R   0.015158 0.538318 0.741409 0.245823
C30   C     C_R   0.061347 0.550115 0.817649 -0.187646
C31   C     C_R   0.153832 0.500277 0.070823 -0.016320
C32   C     C_R   0.214494 0.498748 0.141803 -0.014338
C33   C     C_R   0.122575 0.461774 0.186005 -0.143470
C34   C     C_R   0.986401 0.418109 0.151072 0.418344
H35   H     H_    0.685708 0.380036 0.097948 0.135360
H36   H     H_    0.569375 0.399119 0.984754 0.127777
H37   H     H_    0.842375 0.484440 0.658335 0.181754
H38   H     H_    0.596859 0.438700 0.871679 0.166411
C35   C     C_R   0.201447 0.590431 0.850852 0.356450
C36   C     C_R   0.274426 0.569083 0.909801 -0.013458
C37   C     C_R   0.182766 0.535763 0.954783 -0.000130
C38   C     C_R   0.246720 0.529444 0.023245 0.050120
C39   C     C_R   0.433503 0.587981 0.929544 -0.052807
C40   C     C_R   0.496805 0.580298 0.994998 -0.118769
C41   C     C_R   0.402503 0.555057 0.044664 0.020140
C42   C     C_R   0.366723 0.533289 0.167210 -0.151451
C43   C     C_R   0.460175 0.560906 0.116539 0.307114
C44   C     C_R   0.416201 0.539048 0.241681 0.118532
C45   C     C_R   0.313591 0.511497 0.287597 -0.478111
C46   C     C_R   0.171450 0.470164 0.261784 0.263180
H39   H     H_    0.510192 0.612121 0.896677 0.215456
H40   H     H_    0.619824 0.597471 0.007168 0.194684
H41   H     H_    0.350224 0.518768 0.344435 0.157329
C47   C     C_R   0.701051 0.946887 0.520328 0.035134
C48   C     C_R   0.780546 0.903744 0.559330 -0.169440
C49   C     C_R   0.915137 0.045494 0.543666 -0.167083
C50   C     C_R   0.762563 0.017522 0.516236 0.076915
C51   C     C_R   0.968106 0.116571 0.544260 -0.039583
C52   C     C_R   0.872138 0.163088 0.517053 0.009899
C53   C     C_R   0.725658 0.133872 0.481421 0.062730
C54   C     C_R   0.670230 0.061303 0.481951 0.088440
C55   C     C_R   0.917163 0.238036 0.525268 0.270481
C56   C     C_R   0.813502 0.282843 0.500978 -0.401529
C57   C     C_R   0.676805 0.253642 0.458611 0.217746
C58   C     C_R   0.633938 0.177267 0.445863 -0.145565
C59   C     C_R   0.550694 0.919828 0.487944 0.045165
C60   C     C_R   0.491722 0.847594 0.488201 0.025256
C61   C     C_R   0.583102 0.802040 0.520743 -0.005472
C62   C     C_R   0.721327 0.834097 0.560623 0.001826
H42   H     H_    0.844876 0.340985 0.511707 0.150148
H43   H     H_    0.085126 0.134399 0.567290 0.207296
H44   H     H_    0.787829 0.806433 0.593606 0.149613
C63   C     C_R   0.500664 0.142372 0.402142 0.400756
C64   C     C_R   0.444325 0.073182 0.406123 -0.256873
C65   C     C_R   0.521336 0.033528 0.449175 0.007695
C66   C     C_R   0.457749 0.964768 0.455801 0.094967
C67   C     C_R   0.300591 0.940783 0.433807 -0.169950
C68   C     C_R   0.338894 0.822417 0.458284 0.008911
C69   C     C_R   0.242801 0.871367 0.435042 -0.173664
C70   C     C_R   0.284553 0.749629 0.453415 0.102644
C71   C     C_R   0.383597 0.702167 0.478807 -0.553134
C72   C     C_R   0.530698 0.727472 0.514974 0.293886
H45   H     H_    0.121542 0.856924 0.416614 0.169967
H46   H     H_    0.340756 0.646368 0.475089 0.170876
H47   H     H_    0.997608 0.013607 0.565043 0.158429
H48   H     H_    0.888072 0.922926 0.591177 0.170825
H49   H     H_    0.344280 0.049218 0.370273 0.164787
H50   H     H_    0.217520 0.975497 0.416871 0.135361
S1    S     S_3+6 0.216196 0.843582 0.691295 -0.010230
O25   O     O_2   0.386242 0.851297 0.673483 -0.313007
O26   O     O_2   0.134960 0.909840 0.681680 -0.275408
O27   O     O_3   0.199573 0.838240 0.778403 -0.413175
H51   H     H_    0.252074 0.884371 0.808467 0.393024
S2    S     S_3+6 0.799320 0.726138 0.769890 0.048666
O28   O     O_2   0.799499 0.704659 0.841549 -0.230745
O29   O     O_2   0.900855 0.678634 0.718371 -0.295467
O30   O     O_3   0.859258 0.815068 0.783746 -0.420357
H52   H     H_    0.831763 0.828303 0.737512 0.339924
N1    N     N_R   0.569954 0.629335 0.717885 0.216654
O31   O     O_R   0.638988 0.579002 0.671413 -0.372455
O32   O     O_R   0.516205 0.611858 0.775209 -0.442300
N2    N     N_R   0.191372 0.751096 0.169693 0.253980
O33   O     O_R   0.235587 0.815127 0.160526 -0.307187
O34   O     O_R   0.253381 0.692844 0.131395 -0.371271
S3    S     S_3+6 0.814300 0.291503 0.730373 -0.080986
O35   O     O_2   0.889622 0.219006 0.711360 -0.236605
O36   O     O_2   0.840917 0.330652 0.671293 -0.418431
O37   O     O_3   0.884570 0.339461 0.813201 -0.610354
H53   H     H_    0.962471 0.375950 0.804200 0.332750
S4    S     S_3+6 0.533807 0.205045 0.663234 0.006175
O38   O     O_2   0.638318 0.141407 0.649063 -0.233439
O39   O     O_2   0.372671 0.176080 0.676249 -0.274506
O40   O     O_3   0.525659 0.237961 0.589049 -0.514275
H54   H     H_    0.475745 0.285081 0.605053 0.365502
S5    S     S_3+6 0.971330 0.322918 0.147724 -0.008774
O41   O     O_2   0.124729 0.298146 0.171685 -0.242682
O42   O     O_2   0.842172 0.306905 0.195177 -0.294560
O43   O     O_3   0.929350 0.274547 0.060779 -0.497898
H55   H     H_    0.824351 0.249610 0.061338 0.372713
N3    N     N_R   0.226308 0.666718 0.850147 0.253092
O44   O     O_R   0.116362 0.698432 0.823220 -0.214794
O45   O     O_R   0.322857 0.709816 0.898493 -0.356711
N4    N     N_R   0.603660 0.604720 0.138073 0.241856
O46   O     O_R   0.736782 0.573643 0.125867 -0.418058
O47   O     O_R   0.601978 0.674472 0.141158 -0.351243
N5    N     N_R   0.431162 0.170543 0.345931 0.243356
O48   O     O_R   0.495759 0.157130 0.282553 -0.353370
O49   O     O_R   0.283174 0.184877 0.349102 -0.405334

loop_
_geom_bond_atom_site_label_1
_geom_bond_atom_site_label_2
_geom_bond_distance
_ccdc_geom_bond_type
O5    C6    1.390004 S    
C19   C20   1.401762 A    
C12   H25   1.108234 S    
C25   C26   1.425690 A    
C45   C46   1.412546 A    
C14   H29   1.111190 S    
N5    O49   1.299529 A    
C27   C28   1.406179 A    
O6    P6    1.750017 S    
O7    Ba1   2.849918 S    
C28   H37   1.082100 S    
C53   C54   1.427860 A    
H1    C10   1.105731 S    
N4    O47   1.302134 A    
H32   C16   1.111764 S    
C60   C61   1.420493 A    
N1    O32   1.294619 A    
S3    O35   1.502469 D    
C10   H20   1.109876 S    
C4    C5    1.537572 S    
O30   H52   0.990040 S    
P3    O11   1.748169 S    
C11   H22   1.104447 S    
C11   C12   1.521995 S    
C33   C46   1.445645 A    
C39   H39   1.072673 S    
C5    H10   1.093990 S    
C2    H5    1.109605 S    
C1    H21   1.110087 S    
S5    O42   1.501506 D    
C17   C18   1.405459 A    
O2    Ba2   2.834668 S    
C15   O24   1.437628 S    
S4    O39   1.499972 D    
S3    O37   1.676395 S    
Ba2   O21   2.850143 S    
N2    O33   1.300748 A    
C65   C66   1.416053 A    
C29   C30   1.440023 A    
P1    Ba1   3.433349 S    
C36   C37   1.405746 A    
O8    Ba1   2.780714 S    
C11   H23   1.110788 S    
P1    O1    1.557228 D    
O10   C8    1.410941 S    
Ba1   O20   2.980605 S    
C45   H41   1.081630 S    
C47   C59   1.417483 A    
C20   H36   1.083597 S    
P2    O20   1.568121 S    
C63   C64   1.388196 A    
S1    O25   1.501918 D    
C2    H4    1.112875 S    
N3    O45   1.301222 A    
C57   C58   1.426857 A    
P5    O17   1.754814 S    
Ba1   O13   2.833994 S    
P2    O10   1.777755 S    
C15   S3    1.752229 S    
C35   C36   1.411587 A    
C13   H27   1.090748 S    
C64   H49   1.079658 S    
C21   C23   1.411613 A    
C1    H2    1.110633 S    
C68   C70   1.406677 A    
P4    Ba2   3.433935 S    
C63   N5    1.425329 S    
C43   N4    1.430598 S    
C60   C68   1.414754 A    
S3    O36   1.498132 D    
N5    O48   1.301041 A    
C12   H26   1.110732 S    
S1    O26   1.502490 D    
C49   H47   1.077529 S    
C14   H30   1.099802 S    
C23   H38   1.080913 S    
O6    C10   1.403603 S    
O19   C13   1.404385 S    
C40   C41   1.404631 A    
C67   C69   1.381473 A    
N1    O31   1.295952 A    
P4    O13   1.576218 S    
C22   C26   1.408221 A    
S2    O29   1.475427 D    
Ba2   O20   2.808096 S    
P8    O23   1.545485 D    
C62   H44   1.072017 S    
C51   H43   1.079034 S    
C13   H28   1.101800 S    
P7    O21   1.589610 D    
S4    O40   1.666866 S    
C33   C34   1.432166 A    
S4    O38   1.501448 D    
C7    H16   1.110065 S    
C32   C42   1.435539 A    
C70   C71   1.414966 A    
C71   H46   1.081287 S    
C21   C22   1.408144 A    
C23   C24   1.416723 A    
C40   H40   1.081634 S    
C18   C19   1.411162 A    
O11   C2    1.400664 S    
C4    H8    1.098014 S    
O40   H54   0.984488 S    
C31   C38   1.404983 A    
C35   N3    1.446701 S    
P8    C27   1.876208 S    
C24   C27   1.422534 A    
C30   C35   1.423442 A    
P1    O5    1.743516 S    
O1    Ba1   2.846821 S    
P7    O22   1.749365 S    
C7    H14   1.109451 S    
C6    H13   1.110452 S    
C69   H45   1.079494 S    
S5    O41   1.501746 D    
C67   H50   1.079330 S    
C17   C31   1.408751 A    
P2    C72   1.897708 S    
S2    O30   1.682567 S    
P4    C29   1.902089 S    
C15   C16   1.552026 S    
C61   C72   1.430874 A    
C31   C32   1.429241 A    
C4    O15   1.405948 S    
P5    O18   1.543501 D    
C28   C29   1.402422 A    
O13   Ba2   2.986302 S    
C13   C14   1.529832 S    
C1    C10   1.521610 S    
O16   Ba2   2.979737 S    
C8    S2    1.741585 S    
O2    Ba1   2.985360 S    
C24   C25   1.421128 A    
C1    H3    1.109821 S    
C38   C41   1.401724 A    
C3    N2    1.456371 S    
O14   Ba2   2.813758 S    
C19   H35   1.082208 S    
O37   H53   0.980607 S    
P2    O7    1.546722 D    
O12   Ba2   2.847470 S    
C16   H33   1.105708 S    
S1    O27   1.680163 S    
C16   H34   1.110572 S    
P3    O8    1.716010 S    
P2    Ba1   3.440764 S    
C14   H31   1.077242 S    
C3    H7    1.112874 S    
S5    O43   1.685599 S    
C4    H9    1.105935 S    
C34   S5    1.777772 S    
Ba1   O16   2.808709 S    
C52   C53   1.418571 A    
C18   C34   1.417484 A    
C8    C9    1.527632 S    
P4    O12   1.557447 D    
C49   C51   1.390167 A    
C68   C69   1.401714 A    
O16   P7    1.750861 S    
P8    O24   1.798689 S    
N4    O46   1.299072 A    
C9    H17   1.109180 S    
C39   C40   1.376775 A    
C7    H15   1.106408 S    
C15   S4    1.806806 S    
O4    P6    1.545283 D    
C3    H6    1.111873 S    
C6    C7    1.527619 S    
C61   C62   1.404084 A    
C42   C44   1.431702 A    
C17   C22   1.427229 A    
C42   C43   1.437054 A    
C59   C60   1.429524 A    
C54   C65   1.411899 A    
S2    O28   1.504297 D    
P5    C55   1.857511 S    
C48   C62   1.389651 A    
C26   C37   1.402403 A    
C58   C63   1.416399 A    
C36   C39   1.398881 A    
C66   C67   1.407916 A    
O17   Ba2   2.781388 S    
C9    H19   1.094380 S    
C47   C50   1.427963 A    
C5    H11   1.101645 S    
C55   C56   1.393456 A    
C47   C48   1.408021 A    
C52   C55   1.415092 A    
O3    P6    1.722940 S    
C56   H42   1.082546 S    
C53   C58   1.425686 A    
C6    H12   1.106158 S    
N2    O34   1.298420 A    
C11   O22   1.399307 S    
C51   C52   1.402634 A    
P5    O19   1.749272 S    
C9    H18   1.105984 S    
C5    S1    1.782416 S    
P7    C57   1.854859 S    
C44   C45   1.415135 A    
P1    C46   1.920945 S    
Ba1   Ba2   4.688795 S    
C8    N1    1.455329 S    
C56   C57   1.401169 A    
O27   H51   0.990432 S    
O3    Ba1   2.814444 S    
C59   C66   1.415321 A    
C12   H24   1.105409 S    
C50   C54   1.419667 A    
C20   C21   1.403572 A    
C2    C3    1.526615 S    
P6    C44   1.888423 S    
P3    O9    1.542045 D    
C37   C38   1.422074 A    
O14   P8    1.790838 S    
C64   C65   1.402428 A    
N3    O44   1.291538 A    
C32   C33   1.436753 A    
P3    C70   1.869615 S    
P1    O2    1.576187 S    
O43   H55   0.990695 S    
C71   C72   1.411839 A    
C25   C30   1.430641 A    
P4    O15   1.766355 S    
C49   C50   1.411525 A    
C41   C43   1.405431 A    
C48   H48   1.076418 S    
