data_mof_unit_5648.cif
_audit_creation_date              2012-12-11T15:21:30-0500
_audit_creation_method            fapswitch 2.2
_symmetry_space_group_name_H-M    P1
_symmetry_Int_Tables_number       1
_space_group_crystal_system       triclinic
_cell_length_a                    8.240648
_cell_length_b                    12.687116
_cell_length_c                    19.054577
_cell_angle_alpha                 94.028037
_cell_angle_beta                  93.794043
_cell_angle_gamma                 97.745407
_cell_volume                      1963.33222163

loop_
_atom_site_label
_atom_site_type_symbol
_atom_type_description
_atom_site_fract_x
_atom_site_fract_y
_atom_site_fract_z
_atom_type_partial_charge
Ba1   Ba    Ba6+2 0.160910 0.552960 0.466220 1.636813
Ba2   Ba    Ba6+2 0.649260 0.447030 0.533730 1.660017
C1    C     C_3   0.334460 0.808486 0.203659 -0.407130
C2    C     C_3   0.365793 0.780561 0.278711 0.335500
C3    C     C_3   0.540499 0.774902 0.641495 0.272539
C4    C     C_3   0.489341 0.884954 0.651018 -0.347368
C5    C     C_3   0.919246 0.161793 0.735521 0.328897
C6    C     C_3   0.849090 0.044835 0.738036 -0.172965
C7    C     C_3   0.387869 0.205498 0.727093 0.398351
C8    C     C_3   0.413061 0.170126 0.801155 -0.366668
C9    C     C_R   0.071716 0.184787 0.529702 -0.251713
C10   C     C_R   0.728173 0.819015 0.482040 -0.296368
C11   C     C_R   0.698896 0.998764 0.453968 -0.086577
C12   C     C_3   0.849038 0.818767 0.286515 0.324865
C13   C     C_R   0.634747 0.890651 0.453409 0.015558
C14   C     C_R   0.883496 0.852772 0.515323 0.056104
C15   C     C_R   0.946527 0.964723 0.521653 -0.056152
C16   C     C_R   0.852903 0.039113 0.489761 -0.058631
C17   C     C_R   0.918407 0.150686 0.493758 0.068943
C18   C     C_R   0.165831 0.112676 0.558232 -0.011662
C19   C     C_R   0.102281 0.004213 0.555954 -0.102467
C20   C     C_R   0.619718 0.533838 0.294618 -0.301598
C21   C     C_R   0.461654 0.484925 0.274223 0.035307
C22   C     C_R   0.403283 0.481254 0.202796 -0.140955
C23   C     C_3   0.800907 0.900740 0.237426 -0.394684
C24   C     C_R   0.510481 0.510593 0.150222 0.004645
C25   C     C_R   0.680698 0.543669 0.171202 -0.000489
C26   C     C_R   0.729805 0.562488 0.244661 0.013677
C27   C     C_R   0.459734 0.587714 0.030584 0.070352
C28   C     C_R   0.412214 0.570579 0.958041 -0.075521
C29   C     C_R   0.333501 0.472145 0.927753 0.026288
C30   C     C_R   0.304838 0.387860 0.970560 -0.111209
C31   C     C_R   0.363232 0.399146 0.042023 -0.007331
C32   C     C_R   0.443531 0.499511 0.073745 -0.022386
C33   C     C_R   0.125776 0.408123 0.825598 -0.147125
C34   C     C_3   0.754217 0.311396 0.321130 0.267872
C35   C     C_R   0.077358 0.402504 0.753326 -0.009127
C36   C     C_R   0.341044 0.497892 0.731066 0.043168
C37   C     C_R   0.390767 0.503509 0.802873 -0.120529
C38   C     C_R   0.283942 0.458346 0.850945 0.002646
C39   C     C_R   0.187585 0.443598 0.706228 -0.271632
C40   C     C_3   0.714239 0.276627 0.243447 -0.392051
C41   C     C_3   0.045720 0.672946 0.676011 0.301611
C42   C     C_3   0.078963 0.696595 0.755507 -0.416534
C43   C     C_3   0.203188 0.243757 0.270884 0.297132
C44   C     C_3   0.214757 0.127450 0.247454 -0.194699
H1    H     H_    0.249206 0.741685 0.295961 0.144918
H2    H     H_    0.616205 0.206765 0.237551 0.130801
H3    H     H_    0.671531 0.342333 0.215707 0.113660
H4    H     H_    0.824287 0.254121 0.218821 0.118770
H5    H     H_    0.153938 0.644833 0.653778 0.022775
H6    H     H_    0.938493 0.609668 0.665682 0.079488
H7    H     H_    0.185334 0.760500 0.767440 0.137239
H8    H     H_    0.106258 0.624551 0.780747 0.070575
H9    H     H_    0.969063 0.722361 0.778535 0.115930
H10   H     H_    0.234783 0.290541 0.225595 0.004262
H11   H     H_    0.074828 0.251014 0.282406 0.052829
H12   H     H_    0.307150 0.733063 0.169482 0.094739
H13   H     H_    0.108827 0.096856 0.209028 0.083446
H14   H     H_    0.327727 0.123621 0.219287 0.079427
H15   H     H_    0.457630 0.724034 0.279376 -0.004055
H16   H     H_    0.444176 0.858362 0.187341 0.116645
H17   H     H_    0.676590 0.782069 0.644345 0.007304
H18   H     H_    0.489285 0.740086 0.588241 0.053139
H19   H     H_    0.535353 0.923269 0.703907 0.127862
H20   H     H_    0.537554 0.934757 0.609401 0.097012
H21   H     H_    0.353676 0.877519 0.647874 0.130268
H22   H     H_    0.227305 0.852168 0.197852 0.137394
H23   H     H_    0.732586 0.859753 0.188772 0.102283
H24   H     H_    0.983184 0.169344 0.686042 -0.031926
H25   H     H_    0.006916 0.187919 0.782207 -0.004226
H26   H     H_    0.791108 0.016111 0.684647 0.086560
H27   H     H_    0.752550 0.036886 0.776202 0.123367
H28   H     H_    0.257332 0.216204 0.717375 -0.118456
H29   H     H_    0.466535 0.283144 0.724349 0.092534
H30   H     H_    0.365299 0.225877 0.839592 0.067178
H31   H     H_    0.545638 0.169652 0.815525 0.145469
H32   H     H_    0.908228 0.859691 0.337029 0.031194
H33   H     H_    0.347228 0.088495 0.803963 0.111774
H34   H     H_    0.626180 0.049822 0.426532 0.112277
H35   H     H_    0.177444 0.951455 0.579594 0.092123
H36   H     H_    0.123502 0.268057 0.531481 0.071318
H37   H     H_    0.677955 0.735321 0.478875 0.069805
H38   H     H_    0.510406 0.546197 0.821380 0.079125
H39   H     H_    0.432968 0.635862 0.924648 0.067132
H40   H     H_    0.275511 0.452471 0.187439 0.083898
H41   H     H_    0.245779 0.310712 0.947091 0.084345
H42   H     H_    0.733611 0.769365 0.298470 -0.036200
H43   H     H_    0.038768 0.377532 0.861943 0.073789
H44   H     H_    0.148906 0.441339 0.650690 0.059760
H45   H     H_    0.660957 0.543876 0.350114 0.066422
H46   H     H_    0.721784 0.952829 0.264111 0.108840
H47   H     H_    0.912000 0.950344 0.222033 0.119609
H48   H     H_    0.642972 0.335358 0.343432 0.037396
H49   H     H_    0.855277 0.379541 0.326909 0.047785
O1    O     O_2   0.160820 0.763040 0.533820 -0.467402
O2    O     O_3   0.307768 0.277780 0.332013 -0.629280
O3    O     O_3   0.961085 0.759995 0.254050 -0.617159
O4    O     O_2   0.649470 0.236890 0.466160 -0.448653
O5    O     O_3   0.919320 0.371390 0.464540 -0.488747
O6    O     O_3   0.424350 0.301430 0.591880 -0.474753
O7    O     O_3   0.801713 0.224628 0.354055 -0.648535
O8    O     O_3   0.382770 0.553920 0.582990 -0.480215
O9    O     O_3   0.848220 0.355290 0.626830 -0.465386
O10   O     O_2   0.743171 0.422222 0.749019 -0.492639
O11   O     O_3   0.789621 0.222893 0.736280 -0.587583
O12   O     O_3   0.890970 0.628600 0.535400 -0.489928
O13   O     O_3   0.427530 0.446070 0.416950 -0.454460
O14   O     O_2   0.637430 0.550200 0.669460 -0.460105
O15   O     O_3   0.481027 0.716300 0.696491 -0.643196
O16   O     O_2   0.501394 0.113538 0.547304 -0.473514
O17   O     O_3   0.430938 0.128022 0.678088 -0.597768
O18   O     O_3   0.385950 0.698560 0.408070 -0.495400
O19   O     O_2   0.291543 0.887301 0.443782 -0.488524
O20   O     O_3   0.014638 0.766878 0.646679 -0.656294
O21   O     O_3   0.422752 0.872973 0.322770 -0.645545
O22   O     O_2   0.172860 0.449730 0.330520 -0.480584
O23   O     O_3   0.962080 0.644700 0.373110 -0.475868
O24   O     O_2   0.075414 0.578413 0.250641 -0.516643
P1    P     P_3+3 0.986780 0.745970 0.554690 0.968448
P2    P     P_3+3 0.341450 0.417130 0.341310 0.993168
P3    P     P_3+3 0.932641 0.630265 0.280681 0.921906
P4    P     P_3+3 0.823520 0.254020 0.445250 0.988130
P5    P     P_3+3 0.865633 0.352450 0.718387 0.958362
P6    P     P_3+3 0.432091 0.837734 0.409879 0.927410
P7    P     P_3+3 0.459105 0.579714 0.671431 0.947962
P8    P     P_3+3 0.378952 0.162871 0.593088 0.977581
C45   C     C_3   0.219919 0.054723 0.308192 -0.148555
C46   C     C_3   0.091221 0.068853 0.360019 -0.392746
H50   H     H_    0.124312 0.146194 0.391671 0.132736
H51   H     H_    0.968049 0.065756 0.332180 0.127316
H52   H     H_    0.087971 0.004279 0.396245 0.141165
H53   H     H_    0.196535 0.971188 0.285548 0.144373
H54   H     H_    0.343654 0.069221 0.337041 0.164752
C47   C     C_3   0.980473 0.974762 0.756913 -0.274624
C48   C     C_3   0.028337 0.981921 0.836193 -0.418632
H55   H     H_    0.079687 0.064605 0.856364 0.138171
H56   H     H_    0.919603 0.955120 0.865200 0.138649
H57   H     H_    0.122873 0.929256 0.846798 0.129748
H58   H     H_    0.927867 0.891078 0.740486 0.164150
H59   H     H_    0.090954 0.995253 0.727419 0.129476
C49   C     C_3   0.528720 0.701023 0.058098 -0.211431
C50   C     C_3   0.414976 0.782073 0.037508 -0.424795
H60   H     H_    0.415833 0.794492 0.980487 0.128444
H61   H     H_    0.286747 0.755076 0.049591 0.137707
H62   H     H_    0.459251 0.860747 0.066382 0.129530
H63   H     H_    0.552222 0.708251 0.116182 0.106547
H64   H     H_    0.646846 0.723453 0.034621 0.109637
C51   C     C_2   0.350226 0.300890 0.079291 0.824421
O25   O     O_2   0.216291 0.246988 0.081712 -0.636877
O26   O     O_R   0.492608 0.265391 0.106426 -0.775050
H65   H     H_    0.469721 0.191693 0.123911 0.297850
C52   C     C_3   0.809301 0.538773 0.117470 -0.179837
C53   C     C_3   0.905245 0.646898 0.104668 -0.382359
H66   H     H_    0.846090 0.714355 0.125883 0.142756
H67   H     H_    0.032009 0.654715 0.129575 0.160345
H68   H     H_    0.915118 0.653185 0.047214 0.099853
H69   H     H_    0.896859 0.484934 0.135276 0.120771
H70   H     H_    0.752779 0.500217 0.065937 0.117414

loop_
_geom_bond_atom_site_label_1
_geom_bond_atom_site_label_2
_ccdc_geom_bond_type
C25   C52   S    
C50   H62   S    
Ba2   O14   S    
C23   H47   S    
C44   H13   S    
C34   C40   S    
C1    H22   S    
C34   H49   S    
O13   P2    S    
C45   C46   S    
C5    H24   S    
C5    C6    S    
C21   P2    S    
Ba2   P4    S    
C9    C17   A    
C24   C25   A    
C11   C16   A    
C44   C45   S    
C33   C35   A    
C22   C24   A    
C37   H38   S    
Ba1   Ba2   S    
C51   O26   S    
C5    H25   S    
C36   C37   A    
C26   P3    S    
C41   H6    S    
C1    H16   S    
O18   P6    S    
C3    O15   S    
C50   H60   S    
Ba2   O12   S    
C29   C38   S    
C3    H17   S    
C34   O7    S    
C16   C17   A    
O23   P3    S    
C52   H69   S    
O8    P7    S    
O22   P2    D    
O17   P8    S    
O2    P2    S    
C41   O20   S    
C8    H30   S    
C42   H7    S    
C24   C32   S    
C4    H19   S    
C10   C14   A    
C43   H10   S    
C14   C15   A    
C15   C16   A    
O26   H65   S    
C7    C8    S    
Ba1   O8    S    
C53   H67   S    
C46   H52   S    
C7    O17   S    
C39   H44   S    
C11   H34   S    
Ba2   O5    S    
C20   C26   A    
C6    C47   S    
Ba1   O18   S    
C48   H57   S    
Ba1   O5    S    
C36   P7    S    
C8    H31   S    
O1    P1    D    
C12   O3    S    
C9    H36   S    
C47   H58   S    
C43   H11   S    
C9    C18   A    
C6    H26   S    
C47   H59   S    
O15   P7    S    
C49   H64   S    
C47   C48   S    
C18   P8    S    
C48   H56   S    
C37   C38   A    
O19   P6    D    
Ba1   O22   S    
O10   P5    D    
C40   H3    S    
Ba2   O6    S    
C43   C44   S    
C30   H41   S    
C27   C32   A    
C15   C19   A    
C10   H37   S    
Ba1   P1    S    
C52   H70   S    
C41   C42   S    
C27   C28   A    
C45   H54   S    
C35   P5    S    
C36   C39   A    
C29   C30   A    
C10   C13   A    
Ba2   O9    S    
C28   C29   A    
C21   C22   A    
C17   P4    S    
C31   C32   A    
C5    O11   S    
C40   H2    S    
C28   H39   S    
C53   H66   S    
C53   H68   S    
O3    P3    S    
C33   H43   S    
C4    H21   S    
C40   H4    S    
Ba2   O4    S    
O21   P6    S    
C11   C13   A    
O16   P8    D    
C23   H23   S    
C7    H28   S    
O7    P4    S    
O12   P1    S    
O4    P4    D    
C46   H50   S    
O24   P3    D    
C50   H61   S    
C23   H46   S    
C44   H14   S    
C49   C50   S    
C49   H63   S    
C2    O21   S    
C19   H35   S    
C48   H55   S    
C20   H45   S    
C8    H33   S    
O9    P5    S    
O5    P4    S    
C30   C31   A    
C14   P1    S    
C33   C38   A    
C12   H42   S    
C43   O2    S    
C51   O25   D    
C42   H9    S    
C41   H5    S    
C3    C4    S    
Ba2   O8    S    
Ba1   O1    S    
C27   C49   S    
C2    H15   S    
Ba2   O13   S    
C6    H27   S    
O6    P8    S    
Ba1   O23   S    
C12   H32   S    
C12   C23   S    
C35   C39   A    
Ba1   P2    S    
Ba1   O13   S    
Ba1   O12   S    
C1    H12   S    
C42   H8    S    
O14   P7    D    
C4    H20   S    
C34   H48   S    
C18   C19   A    
C3    H18   S    
O20   P1    S    
C13   P6    S    
O11   P5    S    
C25   C26   A    
C20   C21   A    
C31   C51   S    
C7    H29   S    
C52   C53   S    
C45   H53   S    
C22   H40   S    
C1    C2    S    
C46   H51   S    
C2    H1    S    
