data_mof_unit_64588.cif
_audit_creation_date              2012-12-10T21:13:12-0500
_audit_creation_method            fapswitch 2.2
_symmetry_space_group_name_H-M    P1
_symmetry_Int_Tables_number       1
_space_group_crystal_system       triclinic
_cell_length_a                    17.523319
_cell_length_b                    16.733376
_cell_length_c                    14.984069
_cell_angle_alpha                 90.032913
_cell_angle_beta                  90.368205
_cell_angle_gamma                 89.741495
_cell_volume                      4393.55683008

loop_
_atom_site_label
_atom_site_type_symbol
_atom_type_description
_atom_site_fract_x
_atom_site_fract_y
_atom_site_fract_z
_atom_type_partial_charge
C1    C     C_R   0.352771 0.500161 0.503244 0.969383
C2    C     C_R   0.647158 0.499917 0.501959 0.979292
C3    C     C_R   0.377660 0.433068 0.046320 -0.177799
C4    C     C_R   0.623993 0.565182 0.955080 -0.180198
C5    C     C_R   0.851717 0.567231 0.501422 -0.149146
C6    C     C_R   0.148119 0.432229 0.517180 -0.141833
C7    C     C_R   0.156218 0.567375 0.573378 -0.140504
C8    C     C_R   0.843956 0.441914 0.581259 -0.137321
C9    C     C_R   0.773897 0.565516 0.484033 0.277782
C10   C     C_R   0.225800 0.431324 0.500033 0.278805
C11   C     C_R   0.234092 0.568437 0.557360 0.271279
C12   C     C_R   0.766002 0.438635 0.565105 0.253572
C13   C     C_R   0.729914 0.500332 0.515048 -0.195001
C14   C     C_R   0.270093 0.500475 0.518438 -0.192480
C15   C     C_R   0.886050 0.505748 0.549493 0.015407
C16   C     C_R   0.113969 0.499928 0.552882 0.018159
C17   C     C_1   0.966120 0.504563 0.558553 0.035110
C18   C     C_1   0.033847 0.502662 0.559665 0.035081
C19   C     C_R   0.446292 0.832181 0.448803 0.196607
C20   C     C_R   0.529273 0.167642 0.572970 0.197366
C21   C     C_R   0.553478 0.831854 0.551130 0.195207
C22   C     C_R   0.469591 0.168056 0.427189 0.197728
C23   C     C_R   0.447676 0.747997 0.449817 0.014208
C24   C     C_R   0.528699 0.251814 0.571435 0.014887
C25   C     C_R   0.552285 0.747672 0.550121 0.014448
C26   C     C_R   0.470441 0.252250 0.428855 0.009163
C27   C     C_R   0.499830 0.875499 0.499962 -0.049554
C28   C     C_R   0.499509 0.124361 0.499976 -0.054965
C29   C     C_1   0.499699 0.963393 0.499927 0.167387
C30   C     C_1   0.499574 0.036467 0.499896 0.167250
C31   C     C_R   0.499224 0.499963 0.326763 0.978857
C32   C     C_R   0.501164 0.500032 0.673262 0.979621
C33   C     C_R   0.565247 0.528194 0.814164 0.080676
C34   C     C_R   0.433405 0.478272 0.185569 0.068034
C35   C     C_R   0.501052 0.499868 0.768545 -0.178437
C36   C     C_R   0.499634 0.499880 0.231567 -0.189438
C37   C     C_R   0.436254 0.471732 0.812485 0.225077
C38   C     C_R   0.567135 0.519210 0.187593 0.230258
C39   C     C_R   0.438059 0.464176 0.905801 -0.018958
C40   C     C_R   0.565366 0.528805 0.094688 -0.021076
C41   C     C_R   0.501145 0.497465 0.953195 -0.013223
C42   C     C_R   0.501137 0.498893 0.046963 -0.012789
C43   C     C_R   0.564205 0.529805 0.907203 0.045710
C44   C     C_R   0.436516 0.470713 0.093066 0.042842
C45   C     C_R   0.379572 0.425839 0.954361 0.316337
C46   C     C_R   0.624570 0.566589 0.047407 0.312908
H1    H     H_    0.331661 0.404031 0.081139 0.214225
H2    H     H_    0.670047 0.595251 0.921680 0.212599
H3    H     H_    0.885796 0.616077 0.476137 0.190525
H4    H     H_    0.113860 0.380329 0.500983 0.190418
H5    H     H_    0.128369 0.619639 0.601261 0.190732
H6    H     H_    0.871878 0.394396 0.618460 0.192960
H7    H     H_    0.406613 0.714935 0.410396 0.178264
H8    H     H_    0.551231 0.284558 0.627851 0.198444
H9    H     H_    0.593420 0.714368 0.589540 0.185527
H10   H     H_    0.447069 0.285389 0.373007 0.191767
N1    N     N_R   0.500000 0.707230 0.500000 -0.131736
N2    N     N_R   0.500000 0.292770 0.500000 -0.136314
O1    O     O_R   0.389110 0.566570 0.500000 -0.597596
O2    O     O_R   0.610890 0.433430 0.500000 -0.582315
O3    O     O_R   0.610890 0.566570 0.500000 -0.591509
O4    O     O_R   0.389110 0.433430 0.500000 -0.570513
O5    O     O_R   0.499980 0.566550 0.367850 -0.599785
O6    O     O_R   0.500020 0.433450 0.632150 -0.608542
O7    O     O_R   0.500020 0.566550 0.632150 -0.597764
O8    O     O_R   0.499980 0.433450 0.367850 -0.614501
Zn1   Zn    Zn3+2 0.500000 0.588860 0.500000 1.046068
Zn2   Zn    Zn3+2 0.500000 0.411140 0.500000 1.048774
I1    I     I_    0.662884 0.568618 0.740320 -0.281808
I2    I     I_    0.329227 0.459745 0.256983 -0.255115
Br1   Br    Br    0.342822 0.463043 0.743003 -0.389349
Br2   Br    Br    0.661792 0.510798 0.254326 -0.369779
Br3   Br    Br    0.308677 0.348872 0.906726 -0.313616
Br4   Br    Br    0.699709 0.636367 0.099796 -0.301307
Br5   Br    Br    0.733511 0.653972 0.416185 -0.340486
Br6   Br    Br    0.264519 0.332976 0.450567 -0.376617
Br7   Br    Br    0.285668 0.664025 0.596068 -0.389411
Br8   Br    Br    0.713582 0.350670 0.619668 -0.420262
Br9   Br    Br    0.370575 0.885181 0.377051 -0.332957
Br10  Br    Br    0.570935 0.114632 0.675808 -0.318910
Br11  Br    Br    0.629060 0.884360 0.622928 -0.331087
Br12  Br    Br    0.427082 0.115599 0.324669 -0.324747

loop_
_geom_bond_atom_site_label_1
_geom_bond_atom_site_label_2
_ccdc_geom_bond_type
C31   O8    A    
O8    Zn2   S    
C27   C29   S    
C41   C42   A    
C1    O4    A    
C39   C41   A    
C4    C46   A    
C40   C46   A    
C25   N1    A    
O6    Zn2   S    
C35   C37   A    
C1    O1    A    
C11   C14   A    
C2    O2    A    
C24   H8    S    
C45   Br3   S    
C2    C13   S    
C9    C13   A    
C21   C25   A    
C11   Br7   S    
O1    Zn1   S    
C10   Br6   S    
C20   C24   A    
O7    Zn1   S    
C12   Br8   S    
C19   C27   A    
C34   I2    S    
C2    O3    A    
C33   I1    S    
C39   C45   A    
C40   C42   A    
C21   C27   A    
C24   N2    A    
C22   C28   A    
C41   C43   A    
C5    H3    S    
C42   C44   A    
N1    Zn1   S    
C23   H7    S    
O5    Zn1   S    
C38   Br2   S    
C3    C44   A    
C20   Br10  S    
C33   C43   A    
C32   C35   S    
C31   O5    A    
C34   C44   A    
C32   O6    A    
C10   C14   A    
C20   C28   A    
C3    C45   A    
C19   C23   A    
C5    C9    A    
C29   C30   T    
O3    Zn1   S    
C7    C11   A    
C8    C12   A    
C17   C18   T    
C6    H4    S    
C19   Br9   S    
C26   N2    A    
N2    Zn2   S    
C7    C16   A    
C21   Br11  S    
C8    C15   A    
C37   Br1   S    
C36   C38   A    
C22   Br12  S    
C46   Br4   S    
C4    H2    S    
C23   N1    A    
C8    H6    S    
C25   H9    S    
C26   H10   S    
C6    C10   A    
C15   C17   S    
C4    C43   A    
O4    Zn2   S    
C28   C30   S    
C7    H5    S    
C37   C39   A    
C38   C40   A    
C3    H1    S    
C33   C35   A    
C34   C36   A    
C5    C15   A    
C6    C16   A    
C12   C13   A    
O2    Zn2   S    
C16   C18   S    
C22   C26   A    
C31   C36   S    
C1    C14   S    
C9    Br5   S    
C32   O7    A    
