data_mof_unit_26341.cif
_audit_creation_date              2012-10-26T21:06:34-0400
_audit_creation_method            fapswitch 2.2
_symmetry_space_group_name_H-M    P1
_symmetry_Int_Tables_number       1
_space_group_crystal_system       triclinic
_cell_length_a                    15.844092
_cell_length_b                    10.801262
_cell_length_c                    9.625227
_cell_angle_alpha                 89.006328
_cell_angle_beta                  87.701111
_cell_angle_gamma                 91.792064
_cell_volume                      1644.80870819

loop_
_atom_site_label
_atom_site_type_symbol
_atom_type_description
_atom_site_fract_x
_atom_site_fract_y
_atom_site_fract_z
_atom_type_partial_charge
C1    C     C_R   0.502079 0.262821 0.500835 0.569036
C2    C     C_R   0.567160 0.552087 0.063860 0.132657
C3    C     C_R   0.340051 0.499454 0.502333 0.567009
C4    C     C_R   0.659952 0.500327 0.497694 0.565158
C5    C     C_3   0.967093 0.421081 0.597632 0.090007
C6    C     C_3   0.032960 0.578500 0.402537 0.090490
C7    C     C_3   0.026614 0.385908 0.475078 -0.007687
C8    C     C_3   0.973440 0.613685 0.525092 -0.006973
C9    C     C_1   0.250390 0.499428 0.506981 0.020966
C10   C     C_1   0.749628 0.500290 0.493069 0.020819
C11   C     C_3   0.024452 0.535523 0.627079 -0.128726
C12   C     C_R   0.496523 0.737298 0.499455 0.566756
C13   C     C_3   0.975602 0.464062 0.373097 -0.127809
C14   C     C_3   0.083346 0.500144 0.503121 0.004856
C15   C     C_3   0.916696 0.499444 0.497051 0.005546
C16   C     C_1   0.174881 0.499649 0.507031 -0.003643
C17   C     C_1   0.825146 0.500001 0.493092 -0.000196
C18   C     C_R   0.553188 0.065571 0.402888 0.043860
C19   C     C_R   0.443841 0.935062 0.598480 0.044355
C20   C     C_3   0.060001 0.257254 0.445437 -0.273946
C21   C     C_3   0.989216 0.165750 0.409502 -0.412789
C22   C     C_3   0.940084 0.742360 0.554714 -0.273973
C23   C     C_R   0.545095 0.937384 0.400568 -0.158438
C24   C     C_3   0.010899 0.833835 0.590600 -0.412686
C25   C     C_2   0.931747 0.333406 0.709246 0.566748
C26   C     C_2   0.068354 0.666074 0.290847 0.566303
C27   C     C_2   0.616512 0.128061 0.304745 0.586996
C28   C     C_2   0.381300 0.871981 0.697355 0.587769
C29   C     C_3   0.366907 0.359422 0.875631 -0.254591
C30   C     C_3   0.281691 0.422082 0.887328 -0.424380
C31   C     C_3   0.655250 0.585922 0.111916 -0.234668
C32   C     C_3   0.662772 0.712744 0.177888 -0.397714
C33   C     C_R   0.451268 0.063869 0.600243 -0.155689
C34   C     C_R   0.492873 0.871554 0.498263 -0.025674
C35   C     C_R   0.504281 0.129010 0.502715 -0.024336
C36   C     C_R   0.435727 0.444257 0.081611 0.041682
C37   C     C_R   0.562163 0.559766 0.917323 0.036554
C38   C     C_R   0.436517 0.439206 0.934115 0.132673
Cu1   Cu    Cu3+1 0.500000 0.500020 0.640660 0.981417
Cu2   Cu    Cu3+1 0.500000 0.499980 0.359340 0.987048
H1    H     H_    0.954860 0.435205 0.269368 0.134704
H2    H     H_    0.107072 0.264742 0.356767 0.151977
H3    H     H_    0.092093 0.222448 0.538192 0.170618
H4    H     H_    0.043105 0.801093 0.684130 0.168614
H5    H     H_    0.057896 0.845401 0.502329 0.181018
H6    H     H_    0.983955 0.925368 0.612988 0.151373
H7    H     H_    0.907984 0.777169 0.461966 0.170250
H8    H     H_    0.893026 0.734911 0.643401 0.152134
H9    H     H_    0.828562 0.253269 0.806766 0.341184
H10   H     H_    0.171590 0.745646 0.192881 0.341072
H11   H     H_    0.678238 0.127146 0.117230 0.340422
H12   H     H_    0.045239 0.564342 0.730799 0.133768
H13   H     H_    0.319127 0.873660 0.884444 0.340483
H14   H     H_    0.286310 0.517011 0.840989 0.201485
H15   H     H_    0.233740 0.366824 0.831883 0.150955
H16   H     H_    0.260010 0.428307 0.998078 0.148214
H17   H     H_    0.380643 0.332119 0.768275 0.198682
H18   H     H_    0.361483 0.270045 0.934970 0.126660
H19   H     H_    0.623070 0.779949 0.123930 0.173130
H20   H     H_    0.645490 0.707381 0.289776 0.173007
H21   H     H_    0.729494 0.747738 0.168683 0.140219
H22   H     H_    0.682954 0.510002 0.170848 0.191108
H23   H     H_    0.583244 0.888382 0.326236 0.146212
H24   H     H_    0.700894 0.591468 0.020820 0.100710
H25   H     H_    0.412595 0.114400 0.673963 0.148794
H26   H     H_    0.385301 0.397517 0.143198 0.123256
H27   H     H_    0.611664 0.606643 0.853785 0.124329
H28   H     H_    0.942205 0.154149 0.497748 0.181056
H29   H     H_    0.957022 0.198483 0.315957 0.168581
H30   H     H_    0.016186 0.074233 0.387115 0.151373
N1    N     N_R   0.500020 0.500030 0.852070 -0.230242
N2    N     N_R   0.499980 0.499970 0.147930 -0.223314
O1    O     O_R   0.500000 0.319660 0.618740 -0.519295
O2    O     O_R   0.844404 0.314542 0.728353 -0.694416
O3    O     O_2   0.020282 0.721025 0.217105 -0.530539
O4    O     O_R   0.155714 0.684491 0.271394 -0.695555
O5    O     O_2   0.655972 0.220899 0.339210 -0.506437
O6    O     O_R   0.633395 0.077429 0.174155 -0.709607
O7    O     O_2   0.343518 0.777131 0.664607 -0.507006
O8    O     O_R   0.363236 0.924116 0.826769 -0.705241
O9    O     O_R   0.500000 0.680340 0.381260 -0.504056
O10   O     O_R   0.499990 0.319630 0.381170 -0.475940
O11   O     O_R   0.500010 0.680370 0.618830 -0.475372
O12   O     O_R   0.379080 0.500000 0.618760 -0.498835
O13   O     O_R   0.620920 0.500000 0.381240 -0.501058
O14   O     O_R   0.379080 0.499970 0.381190 -0.501496
O15   O     O_R   0.620920 0.500030 0.618810 -0.500394
O16   O     O_2   0.979845 0.278706 0.783175 -0.531375

loop_
_geom_bond_atom_site_label_1
_geom_bond_atom_site_label_2
_ccdc_geom_bond_type
C22   H8    S    
Cu1   O15   S    
C27   O6    S    
C13   H1    S    
C33   H25   S    
C4    O15   A    
C30   H14   S    
C24   H5    S    
C9    C16   T    
C32   H21   S    
C5    C11   S    
C11   C14   S    
C36   H26   S    
C10   C17   T    
C25   O2    S    
Cu2   O14   S    
C28   O7    D    
C11   H12   S    
C7    C14   S    
C29   C38   S    
C8    C22   S    
C18   C35   A    
C23   H23   S    
C22   H7    S    
C3    O14   A    
C31   H22   S    
C2    N2    A    
Cu2   O9    S    
C18   C23   A    
Cu2   O10   S    
H13   O8    S    
C19   C33   A    
Cu1   Cu2   S    
C5    C7    S    
C6    C8    S    
C4    O13   A    
C1    O10   A    
C30   H16   S    
C25   O16   D    
C12   O11   A    
C21   H29   S    
C2    C31   S    
Cu2   O13   S    
C29   C30   S    
C3    C9    S    
H10   O4    S    
C6    C14   S    
C26   O4    S    
C31   C32   S    
C23   C34   A    
C26   O3    D    
C29   H18   S    
C19   C28   S    
C5    C25   S    
C29   H17   S    
C8    C15   S    
C13   C15   S    
C21   H28   S    
C24   H4    S    
C14   C16   S    
C32   H20   S    
C12   C34   S    
C20   H3    S    
C1    C35   S    
C15   C17   S    
C38   N1    A    
Cu2   N2    S    
C31   H24   S    
C18   C27   S    
C27   O5    D    
C19   C34   A    
Cu1   O12   S    
C20   H2    S    
C30   H15   S    
C21   H30   S    
C24   H6    S    
C37   N1    A    
H11   O6    S    
C1    O1    A    
C6    C13   S    
C2    C37   A    
C6    C26   S    
C8    C11   S    
C37   H27   S    
C36   C38   A    
C33   C35   A    
C12   O9    A    
C22   C24   S    
Cu1   O1    S    
C28   O8    S    
C5    C15   S    
Cu1   O11   S    
C7    C13   S    
C20   C21   S    
C7    C20   S    
C3    O12   A    
Cu1   N1    S    
H9    O2    S    
C32   H19   S    
C4    C10   S    
C36   N2    A    
