data_mof_unit_54154.cif
_audit_creation_date              2013-03-05T15:49:33-0500
_audit_creation_method            fapswitch 2.2
_symmetry_space_group_name_H-M    P1
_symmetry_Int_Tables_number       1
_space_group_crystal_system       triclinic
_cell_length_a                    25.129678
_cell_length_b                    7.238928
_cell_length_c                    22.164267
_cell_angle_alpha                 90.276931
_cell_angle_beta                  109.753615
_cell_angle_gamma                 90.271567
_cell_volume                      3794.55223148

loop_
_atom_site_label
_atom_site_type_symbol
_atom_site_description
_atom_site_fract_x
_atom_site_fract_y
_atom_site_fract_z
_atom_type_partial_charge
O1    O     O_R   0.554350 0.505270 0.581390 -0.584474
O2    O     O_R   0.445650 0.005270 0.418610 -0.594610
O3    O     O_R   0.553380 0.177580 0.454800 -0.576505
O4    O     O_R   0.446620 0.677580 0.545200 -0.576604
C1    C     C_R   0.563106 0.344528 0.435065 1.056660
C2    C     C_R   0.436661 0.844631 0.564685 1.054230
O5    O     O_R   0.560970 0.175640 0.583140 -0.570111
O6    O     O_R   0.439030 0.675640 0.416860 -0.563506
O7    O     O_R   0.453290 0.004120 0.547860 -0.535458
O8    O     O_R   0.546710 0.504120 0.452140 -0.531654
C3    C     C_R   0.576948 0.345041 0.606591 1.003778
C4    C     C_R   0.422897 0.843547 0.393468 1.006841
O9    O     O_3   0.464660 0.338800 0.488280 -0.266355
O10   O     O_3   0.535340 0.838800 0.511720 -0.261628
V1    V     V_3+5 0.506560 0.064420 0.502170 1.306538
V2    V     V_3+5 0.493440 0.564420 0.497830 1.313054
C5    C     C_R   0.147499 0.037027 0.281929 0.527435
C6    C     C_R   0.858959 0.392043 0.716118 0.530426
H1    H     H_    0.065756 0.081988 0.212637 0.195722
H2    H     H_    0.942429 0.392379 0.785030 0.205496
H3    H     H_    0.228385 0.006372 0.395610 0.221162
H4    H     H_    0.776304 0.387790 0.602963 0.216422
C7    C     C_R   0.120998 0.949454 0.170218 -0.317781
C8    C     C_R   0.879846 0.433810 0.829884 -0.319777
C9    C     C_R   0.396258 0.826743 0.276864 -0.147798
C10   C     C_R   0.603514 0.330764 0.723140 -0.144766
C11   C     C_R   0.358979 0.843329 0.214657 -0.098728
C12   C     C_R   0.641860 0.322042 0.785014 -0.092356
C13   C     C_R   0.301917 0.875752 0.203026 -0.049547
C14   C     C_R   0.699445 0.343685 0.796557 -0.039559
C15   C     C_R   0.279556 0.884602 0.253480 0.125558
C16   C     C_R   0.720682 0.382995 0.746528 0.122285
C17   C     C_R   0.318691 0.880128 0.318206 -0.062399
C18   C     C_R   0.681473 0.377201 0.681827 -0.070878
C19   C     C_R   0.220026 0.912763 0.241360 -0.087504
C20   C     C_R   0.780381 0.410664 0.758682 -0.090130
C21   C     C_R   0.203226 0.975994 0.293003 -0.080442
C22   C     C_R   0.800415 0.397754 0.705989 -0.086672
C23   C     C_R   0.241797 0.972906 0.355335 -0.143694
C24   C     C_R   0.761862 0.390495 0.643770 -0.139946
C25   C     C_R   0.297217 0.914668 0.368553 0.300388
C26   C     C_R   0.703888 0.386460 0.631307 0.306584
C27   C     C_R   0.176381 0.883279 0.180288 0.285475
C28   C     C_R   0.821401 0.447755 0.820859 0.291876
C29   C     C_R   0.107956 0.029695 0.220664 -0.247808
C30   C     C_R   0.897655 0.402487 0.777793 -0.270500
C31   C     C_R   0.377829 0.848732 0.329323 -0.178424
C32   C     C_R   0.621906 0.354465 0.670778 -0.181018
H5    H     H_    0.440548 0.803370 0.284193 0.165520
H6    H     H_    0.558969 0.312269 0.715848 0.167126
H7    H     H_    0.276540 0.902819 0.154015 0.157637
H8    H     H_    0.726792 0.319268 0.844960 0.163466
H9    H     H_    0.374727 0.834968 0.174898 0.137048
H10   H     H_    0.626859 0.294344 0.824503 0.139353
C33   C     C_R   0.117432 0.760834 0.875800 0.406211
C34   C     C_R   0.882429 0.261132 0.124062 0.393655
C35   C     C_R   0.151752 0.755308 0.837361 -0.229656
C36   C     C_R   0.847892 0.255686 0.162249 -0.225417
H11   H     H_    0.159612 0.622774 0.819163 0.153154
H12   H     H_    0.839946 0.123456 0.180395 0.152811
C37   C     C_R   0.177319 0.915709 0.824387 0.059618
C38   C     C_R   0.822235 0.415686 0.175043 0.058577
C39   C     C_R   0.167473 0.083826 0.850613 -0.110708
C40   C     C_R   0.832232 0.583317 0.148918 -0.116789
H13   H     H_    0.186897 0.210593 0.842289 0.137888
H14   H     H_    0.812754 0.709727 0.157111 0.138457
C41   C     C_R   0.132432 0.090889 0.888150 -0.097640
C42   C     C_R   0.867468 0.590320 0.111616 -0.066925
H15   H     H_    0.126621 0.221459 0.907974 0.226544
H16   H     H_    0.873368 0.720456 0.091836 0.227145
C43   C     C_R   0.105956 0.931659 0.900895 -0.294260
C44   C     C_R   0.894007 0.431527 0.099025 -0.295065
N1    N     N_R   0.244166 0.056488 0.776985 -0.072292
N2    N     N_R   0.755535 0.556282 0.222542 -0.071628
N3    N     N_R   0.278759 0.045792 0.742863 -0.071442
N4    N     N_R   0.720815 0.545615 0.256517 -0.071530
C45   C     C_R   0.285971 0.883685 0.715372 0.159308
C46   C     C_R   0.713099 0.383721 0.283469 0.159349
N5    N     N_R   0.256812 0.732686 0.723396 -0.065680
N6    N     N_R   0.741868 0.232931 0.275049 -0.065938
N7    N     N_R   0.222282 0.743313 0.757611 -0.064570
N8    N     N_R   0.776530 0.243538 0.240998 -0.065162
C47   C     C_R   0.215198 0.905333 0.785251 0.156160
C48   C     C_R   0.784138 0.405335 0.213914 0.157843
C49   C     C_R   0.329733 0.710024 0.644920 -0.118565
C50   C     C_R   0.668467 0.209598 0.352782 -0.121050
H17   H     H_    0.304666 0.589007 0.646229 0.149465
H18   H     H_    0.692723 0.088198 0.350447 0.149080
C51   C     C_R   0.366349 0.701984 0.609270 -0.071482
C52   C     C_R   0.632006 0.201483 0.388596 -0.068292
H19   H     H_    0.367900 0.575043 0.583909 0.210097
H20   H     H_    0.629743 0.073983 0.412946 0.214776
C53   C     C_R   0.399611 0.855810 0.605341 -0.237609
C54   C     C_R   0.599888 0.355844 0.394053 -0.242523
C55   C     C_R   0.395812 0.018484 0.639956 0.490719
C56   C     C_R   0.604316 0.518732 0.360268 0.486980
C57   C     C_R   0.358732 0.025133 0.674960 -0.209619
C58   C     C_R   0.641232 0.525436 0.325040 -0.211345
H21   H     H_    0.356680 0.151165 0.700611 0.161862
H22   H     H_    0.643851 0.651694 0.300124 0.161756
C59   C     C_R   0.325128 0.872392 0.677797 0.041733
C60   C     C_R   0.673945 0.372422 0.321045 0.042230
O11   O     O_R   0.953220 0.285790 0.047790 -0.559416
O12   O     O_R   0.046780 0.785790 0.952210 -0.549910
O13   O     O_R   0.939020 0.617570 0.916840 -0.582904
O14   O     O_R   0.060980 0.117570 0.083160 -0.595366
C61   C     C_R   0.923936 0.447591 0.893404 1.065856
C62   C     C_R   0.076208 0.949595 0.106719 1.057841
O15   O     O_R   0.946600 0.615450 0.045180 -0.568885
O16   O     O_R   0.053400 0.115450 0.954820 -0.577422
O17   O     O_R   0.054370 0.786770 0.081410 -0.569157
O18   O     O_R   0.945630 0.286770 0.918590 -0.589047
C63   C     C_R   0.933787 0.445834 0.061306 0.991316
C64   C     C_R   0.066261 0.945899 0.938723 0.980470
O19   O     O_3   0.035300 0.454160 0.011680 -0.249913
O20   O     O_3   0.964700 0.954160 0.988320 -0.256636
V3    V     V_3+5 0.993450 0.728620 0.997830 1.332058
V4    V     V_3+5 0.006550 0.228620 0.002170 1.312411
Cl1   Cl    Cl    0.437406 0.218294 0.644012 -0.701551
Cl2   Cl    Cl    0.563517 0.718419 0.357247 -0.702898
Cl3   Cl    Cl    0.125082 0.130281 0.343034 -0.568637
Cl4   Cl    Cl    0.886538 0.365283 0.653148 -0.565493
N9    N     N_R   0.185699 0.769119 0.131653 0.224334
O21   O     O_R   0.170923 0.824996 0.072584 -0.424869
O22   O     O_R   0.207199 0.605278 0.146032 -0.370041
N10   N     N_R   0.805025 0.522627 0.872087 0.218592
O23   O     O_R   0.771910 0.665300 0.861906 -0.376745
O24   O     O_R   0.824832 0.454100 0.929497 -0.437514
N11   N     N_R   0.329680 0.885165 0.434084 0.195209
O25   O     O_R   0.337740 0.715646 0.454105 -0.420936
O26   O     O_R   0.332945 0.017119 0.475274 -0.405920
N12   N     N_R   0.669345 0.376393 0.565825 0.190837
O27   O     O_R   0.661420 0.527243 0.532383 -0.397208
O28   O     O_R   0.665625 0.217991 0.536744 -0.426834
N13   N     N_R   0.097162 0.589288 0.891243 0.218613
O29   O     O_R   0.063723 0.485766 0.845945 -0.442695
O30   O     O_R   0.118927 0.524735 0.949041 -0.366349
N14   N     N_R   0.902742 0.089769 0.108710 0.218673
O31   O     O_R   0.936378 0.989173 0.154016 -0.438165
O32   O     O_R   0.881027 0.022622 0.050930 -0.381379

loop_
_geom_bond_atom_site_label_1
_geom_bond_atom_site_label_2
_geom_bond_distance
_ccdc_geom_bond_type
C36   C38   1.401814 A    
C25   N11   1.422831 S    
C39   H13   1.082894 S    
N10   O23   1.301371 A    
C7    C29   1.392186 A    
C27   N9    1.436530 S    
C11   C13   1.389824 A    
C61   O18   1.330678 A    
C45   C59   1.490835 S    
C18   C26   1.415042 A    
O2    C4    1.334151 A    
O16   V4    1.998664 S    
C2    O7    1.323458 A    
C1    C54   1.501774 S    
O15   V3    1.998248 S    
N9    O21   1.301332 A    
C23   C25   1.390733 A    
O5    C3    1.335386 A    
O13   C61   1.335609 A    
C28   N10   1.436792 S    
N2    N4    1.333518 A    
C16   C20   1.444566 A    
O11   C63   1.330928 A    
C5    C29   1.385945 A    
N11   O25   1.300258 A    
C10   H6    1.083144 S    
C46   N6    1.358567 A    
N9    O22   1.301345 A    
C46   C60   1.490703 S    
C36   H12   1.083543 S    
H2    C30   1.084435 S    
C7    C27   1.419041 A    
O20   V3    1.773014 S    
C37   C39   1.404787 A    
C38   C40   1.404690 A    
C57   H21   1.083283 S    
N12   O27   1.300626 A    
C34   C44   1.423530 A    
C56   C58   1.400779 A    
C8    C61   1.470657 S    
C15   C17   1.439922 A    
C33   C43   1.423678 A    
C51   H19   1.082613 S    
C19   C27   1.439517 A    
C9    C31   1.398074 A    
C10   C32   1.397752 A    
O19   V4    1.764812 S    
O5    V1    2.013803 S    
C53   C55   1.423475 A    
C22   C24   1.392427 A    
O14   V4    2.025868 S    
C51   C53   1.409779 A    
N1    N3    1.333472 A    
O13   V3    2.013801 S    
C3    C32   1.488925 S    
C4    C31   1.489256 S    
C6    C30   1.385543 A    
N7    C47   1.360626 A    
C52   C54   1.409928 A    
C45   N5    1.358578 A    
C21   C23   1.394273 A    
C39   C41   1.401935 A    
C49   H17   1.082799 S    
N4    C46   1.360450 A    
N13   O29   1.300835 A    
N6    N8    1.333611 A    
C50   C52   1.401640 A    
N5    N7    1.333741 A    
C12   H10   1.082743 S    
C55   Cl1   1.764546 S    
C58   C60   1.402652 A    
C44   C63   1.507880 S    
H1    C29   1.084665 S    
C43   C64   1.508026 S    
C42   C44   1.404979 A    
C41   H15   1.071643 S    
C40   H14   1.082892 S    
O4    V2    1.998374 S    
O18   V4    2.012269 S    
C34   N14   1.426368 S    
C52   H20   1.082331 S    
H3    C23   1.082220 S    
O6    C4    1.333872 A    
C2    C53   1.500854 S    
H4    C24   1.082525 S    
C55   C57   1.400457 A    
O1    V2    2.013447 S    
C5    C21   1.411102 A    
C54   C56   1.423754 A    
O2    V1    2.006543 S    
N3    C45   1.360481 A    
N14   O32   1.301227 A    
C6    Cl4   1.765874 S    
N12   O28   1.300046 A    
O12   C64   1.330120 A    
O4    C2    1.335047 A    
C8    C28   1.417850 A    
N8    C48   1.360495 A    
C33   C35   1.402817 A    
C37   C47   1.490747 S    
C17   C31   1.441239 A    
C15   C19   1.443408 A    
C20   C28   1.437850 A    
O11   V4    1.976586 S    
C18   C32   1.441266 A    
C20   C22   1.422337 A    
C50   C60   1.405341 A    
C40   C42   1.401785 A    
O16   C64   1.347459 A    
C49   C59   1.405670 A    
N10   O24   1.301255 A    
O12   V3    1.975973 S    
C13   H7    1.077063 S    
C5    Cl3   1.765708 S    
N13   O30   1.301221 A    
C38   C48   1.490618 S    
C49   C51   1.402128 A    
C19   C21   1.421728 A    
C10   C12   1.386138 A    
C56   Cl2   1.764592 S    
N2    C48   1.358508 A    
O3    C1    1.336474 A    
C11   H9    1.082717 S    
C35   C37   1.401701 A    
O15   C63   1.348074 A    
C9    C11   1.386587 A    
C58   H22   1.083294 S    
C62   O17   1.335860 A    
O17   V3    2.005475 S    
C8    C30   1.390101 A    
C12   C14   1.389704 A    
O7    V1    1.980696 S    
C17   C25   1.415828 A    
C1    O8    1.324141 A    
C13   C15   1.412387 A    
O8    V2    1.981337 S    
C14   C16   1.413148 A    
O14   C62   1.331592 A    
C33   N13   1.426433 S    
C7    C62   1.475427 S    
C50   H18   1.082817 S    
C24   C26   1.388208 A    
C34   C36   1.402747 A    
C41   C43   1.404986 A    
C6    C22   1.412061 A    
C9    H5    1.083320 S    
C35   H11   1.083549 S    
N14   O31   1.300881 A    
O6    V2    2.025885 S    
O9    V2    1.765600 S    
C42   H16   1.071558 S    
O10   V1    1.773815 S    
O3    V1    1.997962 S    
C26   N12   1.418472 S    
O1    C3    1.333382 A    
N1    C47   1.358417 A    
C57   C59   1.402602 A    
C16   C18   1.439803 A    
C14   H8    1.076608 S    
N11   O26   1.301081 A    
