data_mof_unit_49780.cif
_audit_creation_date              2012-12-11T14:19:26-0500
_audit_creation_method            fapswitch 2.2
_symmetry_space_group_name_H-M    P1
_symmetry_Int_Tables_number       1
_space_group_crystal_system       triclinic
_cell_length_a                    19.391852
_cell_length_b                    7.247663
_cell_length_c                    17.731682
_cell_angle_alpha                 89.959657
_cell_angle_beta                  107.591114
_cell_angle_gamma                 90.026799
_cell_volume                      2375.5721894

loop_
_atom_site_label
_atom_site_type_symbol
_atom_type_description
_atom_site_fract_x
_atom_site_fract_y
_atom_site_fract_z
_atom_type_partial_charge
O1    O     O_R   0.414820 0.494320 0.416790 -0.508146
O2    O     O_R   0.585180 0.994320 0.583210 -0.507913
O3    O     O_R   0.560270 0.819500 0.430140 -0.548512
O4    O     O_R   0.439730 0.319500 0.569860 -0.546772
C1    C     C_R   0.581311 0.655566 0.414912 0.731714
C2    C     C_R   0.418659 0.155431 0.585029 0.730961
O5    O     O_R   0.413840 0.823740 0.407440 -0.549514
O6    O     O_R   0.586160 0.323740 0.592560 -0.549856
O7    O     O_R   0.437710 0.998590 0.560350 -0.536137
O8    O     O_R   0.562290 0.498590 0.439650 -0.537423
C3    C     C_R   0.389427 0.654709 0.383414 0.632102
C4    C     C_R   0.610587 0.154660 0.616581 0.629768
O9    O     O_3   0.508000 0.662290 0.550200 -0.368208
O10   O     O_3   0.492000 0.162290 0.449800 -0.369395
V1    V     V_3+5 0.498520 0.935380 0.490690 1.510626
V2    V     V_3+5 0.501480 0.435380 0.509310 1.511442
C5    C     C_2   0.785367 0.264889 0.786571 -0.044053
C6    C     C_2   0.214632 0.764819 0.213441 -0.044328
C7    C     C_2   0.825164 0.112724 0.812609 -0.234204
C8    C     C_2   0.174984 0.612499 0.187259 -0.233018
H1    H     H_    0.801891 0.395988 0.816116 0.161878
H2    H     H_    0.197937 0.896094 0.184074 0.161322
H3    H     H_    0.811355 0.985462 0.779391 0.183606
H4    H     H_    0.188977 0.484978 0.220315 0.183798
C9    C     C_2   0.722891 0.266543 0.712991 -0.261335
C10   C     C_2   0.277076 0.766348 0.287047 -0.259720
C11   C     C_2   0.669061 0.139472 0.692760 0.322311
C12   C     C_2   0.331049 0.639729 0.307178 0.321267
H5    H     H_    0.720712 0.382892 0.673675 0.129197
H6    H     H_    0.279071 0.882160 0.326516 0.129004
C13   C     C_R   0.315051 0.284243 0.624579 -0.199646
C14   C     C_R   0.677746 0.798030 0.366684 -0.202267
C15   C     C_R   0.368556 0.147928 0.633612 -0.076763
C16   C     C_R   0.631317 0.648541 0.366183 -0.074575
C17   C     C_R   0.373305 0.004652 0.688443 -0.185351
C18   C     C_R   0.633670 0.492856 0.319797 -0.185453
C19   C     C_R   0.326369 0.999692 0.735305 0.095854
C20   C     C_R   0.680997 0.487357 0.273503 0.088408
C21   C     C_R   0.272366 0.136397 0.725418 0.046482
C22   C     C_R   0.727983 0.637616 0.274996 0.047348
C23   C     C_R   0.266155 0.277347 0.669003 0.037326
C24   C     C_R   0.726657 0.792389 0.322306 0.041467
C25   C     C_R   0.332409 0.860234 0.791820 -0.172060
C26   C     C_R   0.682180 0.333991 0.225790 -0.192365
C27   C     C_R   0.286038 0.857103 0.838791 -0.170018
C28   C     C_R   0.729306 0.329165 0.179824 -0.133250
C29   C     C_R   0.232075 0.991853 0.829358 0.099999
C30   C     C_R   0.776459 0.477051 0.181186 0.115721
C31   C     C_R   0.224385 0.131388 0.771684 0.010584
C32   C     C_R   0.776190 0.632668 0.229192 0.002693
C33   C     C_R   0.168322 0.263852 0.759570 0.023229
C34   C     C_R   0.824161 0.782013 0.231588 0.014984
C35   C     C_R   0.159860 0.397955 0.699059 0.282746
C36   C     C_R   0.825747 0.933838 0.283119 0.292598
C37   C     C_R   0.210033 0.406417 0.656323 -0.201316
C38   C     C_R   0.775043 0.938115 0.326104 -0.219048
C39   C     C_R   0.184824 0.986746 0.875601 -0.199721
C40   C     C_R   0.824097 0.470586 0.135616 -0.161449
C41   C     C_R   0.130281 0.119958 0.865791 -0.066196
C42   C     C_R   0.870101 0.619738 0.134924 -0.080579
C43   C     C_R   0.122724 0.258598 0.808419 -0.215798
C44   C     C_R   0.869082 0.775267 0.181943 -0.209628
H7    H     H_    0.310373 0.393320 0.581418 0.115909
H8    H     H_    0.676923 0.917627 0.403119 0.117905
H9    H     H_    0.414404 0.899129 0.695646 0.149289
H10   H     H_    0.597928 0.377175 0.318813 0.143941
H11   H     H_    0.373273 0.753880 0.799972 0.140475
H12   H     H_    0.646742 0.217407 0.224140 0.141916
H13   H     H_    0.291969 0.748053 0.882127 0.147511
H14   H     H_    0.729327 0.208714 0.143648 0.143992
H15   H     H_    0.190727 0.879328 0.919714 0.134917
H16   H     H_    0.824230 0.350453 0.099238 0.134932
H17   H     H_    0.080857 0.361092 0.802327 0.130083
H18   H     H_    0.903823 0.890098 0.179210 0.139019
H19   H     H_    0.203460 0.510999 0.610934 0.140623
H20   H     H_    0.773590 0.052951 0.364478 0.132957
O11   O     O_R   0.937810 0.773680 0.060480 -0.534681
O12   O     O_R   0.062190 0.273680 0.939520 -0.533185
O13   O     O_R   0.086190 0.439740 0.092580 -0.532268
O14   O     O_R   0.913810 0.939740 0.907420 -0.532327
C45   C     C_R   0.111460 0.608297 0.115641 0.722494
C46   C     C_R   0.888582 0.108347 0.884323 0.722040
O15   O     O_R   0.939760 0.444210 0.069890 -0.544605
O16   O     O_R   0.060240 0.944210 0.930110 -0.546107
O17   O     O_R   0.914790 0.269640 0.916760 -0.541673
O18   O     O_R   0.085210 0.769640 0.083240 -0.541640
C47   C     C_R   0.919157 0.612391 0.084953 0.698370
C48   C     C_R   0.080887 0.112482 0.915199 0.695325
O19   O     O_3   0.992050 0.601530 0.949880 -0.381100
O20   O     O_3   0.007950 0.101530 0.050120 -0.380922
V3    V     V_3+5 0.001480 0.328340 0.009300 1.446514
V4    V     V_3+5 0.998520 0.828340 0.990700 1.442044
N1    N     N_2   0.098829 0.517499 0.676042 -0.527201
H21   H     H_    0.050722 0.460725 0.678182 0.249072
C49   C     C_3   0.111726 0.700952 0.708866 -0.530459
H22   H     H_    0.062692 0.787002 0.684313 0.194476
H23   H     H_    0.157300 0.766553 0.693104 0.213035
H24   H     H_    0.124060 0.694469 0.774154 0.198698
N2    N     N_2   0.879090 0.076849 0.292093 -0.516885
H25   H     H_    0.929345 0.030461 0.292240 0.248449
C50   C     C_3   0.884375 0.223548 0.349074 -0.543279
H26   H     H_    0.926789 0.323118 0.345366 0.198391
H27   H     H_    0.899425 0.166123 0.409998 0.189572
H28   H     H_    0.832751 0.300580 0.336047 0.211043
S1    S     S_3+6 0.658842 0.961422 0.757840 0.003357
O21   O     O_2   0.698312 0.791677 0.744887 -0.361195
O22   O     O_2   0.687655 0.021150 0.842780 -0.319520
O23   O     O_3   0.570474 0.910445 0.737749 -0.511358
H29   H     H_    0.568916 0.802917 0.771708 0.360861
S2    S     S_3+6 0.341666 0.462897 0.241892 0.003990
O24   O     O_2   0.302465 0.292257 0.254552 -0.361013
O25   O     O_2   0.312820 0.523410 0.157030 -0.320248
O26   O     O_3   0.430158 0.413274 0.262050 -0.508516
H30   H     H_    0.431947 0.305665 0.228286 0.362566

loop_
_geom_bond_atom_site_label_1
_geom_bond_atom_site_label_2
_ccdc_geom_bond_type
O15   C47   A    
O11   V4    S    
O4    V2    S    
N1    H21   S    
C38   H20   S    
C49   H22   S    
O1    C3    A    
O2    C4    A    
C2    O7    A    
O17   V3    S    
C49   H24   S    
C29   C31   A    
O5    C3    A    
S1    O22   D    
C50   H26   S    
C17   C19   A    
C18   H10   S    
C39   C41   A    
C17   H9    S    
C40   C42   A    
O23   H29   S    
C42   C44   A    
C27   C29   A    
S2    O24   D    
C23   C37   A    
C24   C38   A    
C41   C48   S    
C6    C10   S    
C8    H4    S    
C34   C36   A    
C31   C33   A    
C33   C43   A    
C32   C34   A    
C13   C15   A    
C7    C46   S    
O13   V3    S    
C45   O18   A    
C37   H19   S    
C30   C32   A    
C50   H27   S    
C8    C45   S    
C42   C47   S    
C26   C28   A    
C36   C38   A    
C35   C37   A    
C9    H5    S    
C19   C21   A    
S1    O23   S    
C28   C30   A    
C41   C43   A    
C4    C11   S    
C27   H13   S    
C13   H7    S    
C14   H8    S    
C21   C23   A    
O13   C45   A    
C5    C7    D    
C12   S2    S    
C35   N1    S    
C5    H1    S    
C33   C35   A    
C14   C16   A    
C19   C25   A    
C7    H3    S    
C25   H11   S    
C20   C26   A    
C29   C39   A    
N2    H25   S    
O6    C4    A    
C1    C16   S    
O1    V2    S    
C39   H15   S    
O19   V4    S    
O2    V1    S    
C25   C27   A    
S2    O26   S    
O11   C47   A    
C11   S1    S    
O4    C2    A    
C21   C31   A    
C10   H6    S    
C50   H28   S    
C36   N2    S    
C26   H12   S    
O18   V4    S    
O3    V1    S    
O26   H30   S    
O12   C48   A    
C13   C23   A    
N2    C50   S    
C6    H2    S    
O16   C48   A    
C22   C24   A    
O3    C1    A    
C49   H23   S    
C30   C40   A    
O12   V3    S    
C9    C11   D    
C46   O17   A    
O15   V3    S    
S1    O21   D    
C10   C12   D    
C2    C15   S    
C43   H17   S    
C18   C20   A    
O7    V1    S    
C5    C9    S    
C1    O8    A    
O14   V4    S    
C34   C44   A    
C20   C22   A    
C40   H16   S    
O20   V3    S    
N1    C49   S    
C3    C12   S    
C22   C32   A    
O5    V1    S    
C15   C17   A    
O14   C46   A    
C6    C8    D    
S2    O25   D    
C28   H14   S    
C16   C18   A    
O6    V2    S    
O9    V2    S    
C14   C24   A    
O10   V1    S    
C44   H18   S    
O8    V2    S    
O16   V4    S    
