data_mof_unit_59614.cif
_audit_creation_date              2012-12-11T14:28:28-0500
_audit_creation_method            fapswitch 2.2
_symmetry_space_group_name_H-M    P1
_symmetry_Int_Tables_number       1
_space_group_crystal_system       triclinic
_cell_length_a                    11.16781
_cell_length_b                    19.574365
_cell_length_c                    18.556604
_cell_angle_alpha                 90.30437
_cell_angle_beta                  91.120742
_cell_angle_gamma                 89.850761
_cell_volume                      4055.679452

loop_
_atom_site_label
_atom_site_type_symbol
_atom_type_description
_atom_site_fract_x
_atom_site_fract_y
_atom_site_fract_z
_atom_type_partial_charge
C1    C     C_R   0.316115 0.962772 0.644383 0.530194
C2    C     C_3   0.208837 0.733136 0.046502 -0.150052
C3    C     C_3   0.069800 0.189578 0.965737 0.147013
C4    C     C_3   0.575410 0.317731 0.464304 0.146866
C5    C     C_3   0.606911 0.313473 0.042228 0.143606
C6    C     C_3   0.592403 0.685878 0.539742 0.149244
C7    C     C_3   0.623870 0.691972 0.964566 0.142531
C8    C     C_3   0.204849 0.818724 0.494098 -0.127513
C9    C     C_3   0.205167 0.803843 0.009476 -0.138081
C10   C     C_3   0.214598 0.203734 0.508260 -0.128423
C11   C     C_3   0.188521 0.201787 0.006089 -0.109000
C12   C     C_3   0.704967 0.318700 0.494083 -0.127564
C13   C     C_3   0.206228 0.274052 0.545954 -0.154939
C14   C     C_3   0.720815 0.285318 0.008532 -0.129739
C15   C     C_3   0.714664 0.703789 0.508257 -0.128340
C16   C     C_3   0.708189 0.734259 0.013591 -0.086372
C17   C     C_3   0.163425 0.773872 0.557844 0.012956
C18   C     C_3   0.149053 0.769201 0.941084 0.014670
C19   C     C_3   0.147513 0.234438 0.441646 0.017208
C20   C     C_3   0.117673 0.241988 0.063173 0.026367
C21   C     C_3   0.663454 0.273881 0.557833 0.012940
C22   C     C_3   0.645273 0.266708 0.940346 0.027751
C23   C     C_3   0.647482 0.734438 0.441648 0.017619
C24   C     C_3   0.204639 0.269238 0.963688 -0.145564
C25   C     C_3   0.604019 0.743864 0.066406 0.032420
C26   C     C_3   0.033199 0.776210 0.528977 -0.111706
C27   C     C_3   0.021687 0.782852 0.968741 -0.101999
C28   C     C_3   0.025118 0.213591 0.472657 -0.118589
C29   C     C_3   0.998950 0.226978 0.023956 -0.126889
C30   C     C_3   0.533242 0.276276 0.528946 -0.111663
C31   C     C_3   0.531345 0.297277 0.973914 -0.100535
C32   C     C_3   0.525142 0.713525 0.472696 -0.118599
C33   C     C_3   0.521703 0.698973 0.018284 -0.122789
C34   C     C_3   0.059015 0.710105 0.487367 -0.116123
C35   C     C_3   0.728714 0.252590 0.449768 -0.154913
C36   C     C_3   0.026615 0.712541 0.004865 -0.155473
C37   C     C_3   0.018964 0.284331 0.509338 -0.127480
C38   C     C_3   0.016279 0.294166 0.982638 -0.134811
C39   C     C_3   0.558982 0.210147 0.487358 -0.115982
C40   C     C_3   0.504286 0.226686 0.005135 -0.151547
C41   C     C_3   0.518891 0.784271 0.509357 -0.127407
C42   C     C_3   0.482363 0.765005 0.979935 -0.146556
C43   C     C_3   0.190465 0.709032 0.514575 -0.102675
C44   C     C_3   0.153935 0.699597 0.977904 -0.117784
C45   C     C_3   0.141081 0.304739 0.479132 -0.111379
C46   C     C_3   0.691217 0.214580 0.040081 -0.148440
C47   C     C_3   0.135541 0.308812 0.021938 -0.121026
C48   C     C_3   0.690424 0.209023 0.514578 -0.102438
C49   C     C_3   0.617379 0.196275 0.971533 -0.119583
C50   C     C_3   0.640950 0.804745 0.479117 -0.111110
C51   C     C_3   0.564612 0.809207 0.028691 -0.146751
C52   C     C_3   0.831874 0.918491 0.571509 -0.323271
C53   C     C_3   0.827837 0.007411 0.881179 -0.299010
C54   C     C_3   0.886573 0.067435 0.343126 -0.317858
C55   C     C_3   0.868621 0.019101 0.132274 -0.325075
C56   C     C_3   0.331906 0.418429 0.571499 -0.322948
C57   C     C_3   0.706194 0.774111 0.545933 -0.155110
C58   C     C_3   0.363063 0.531253 0.876885 -0.292116
C59   C     C_3   0.386382 0.567405 0.343144 -0.315775
C60   C     C_3   0.349277 0.472319 0.113973 -0.299128
C61   C     C_3   0.085679 0.901643 0.368635 -0.259582
C62   C     C_3   0.115540 0.893834 0.137731 -0.265552
C63   C     C_3   0.137602 0.114458 0.645186 -0.283889
C64   C     C_3   0.121957 0.106393 0.872901 -0.277203
C65   C     C_3   0.586102 0.401638 0.368573 -0.261133
C66   C     C_3   0.695310 0.380098 0.141576 -0.281615
C67   C     C_3   0.637985 0.614552 0.645274 -0.283441
C68   C     C_3   0.667474 0.800129 0.974934 -0.140587
C69   C     C_3   0.751814 0.639243 0.873959 -0.292034
C70   C     C_3   0.098128 0.752505 0.422938 0.063284
C71   C     C_3   0.081943 0.745558 0.073191 0.067145
C72   C     C_3   0.084358 0.254322 0.574925 0.077642
C73   C     C_R   0.315400 0.935877 0.862076 0.527109
C74   C     C_3   0.085365 0.254955 0.925090 0.077129
C75   C     C_3   0.598172 0.252516 0.422922 0.063078
C76   C     C_3   0.578669 0.244896 0.072695 0.062749
C77   C     C_3   0.584380 0.754316 0.574937 0.077261
C78   C     C_3   0.584296 0.756074 0.926712 0.069950
C79   C     C_R   0.319338 0.047063 0.438202 -0.043722
C80   C     C_R   0.308039 0.039805 0.061311 -0.049734
C81   C     C_R   0.312177 0.996806 0.576474 -0.022772
C82   C     C_R   0.314458 0.956169 0.938376 -0.047815
C83   C     C_R   0.819318 0.547055 0.438203 -0.043643
C84   C     C_R   0.316569 0.063368 0.361722 0.539705
C85   C     C_R   0.811897 0.540193 0.061869 -0.025388
C86   C     C_R   0.812149 0.496832 0.576490 -0.022808
C87   C     C_R   0.816930 0.456804 0.938615 -0.043775
C88   C     C_R   0.546026 0.046187 0.454473 -0.111396
C89   C     C_R   0.511061 0.065582 0.044052 -0.108629
C90   C     C_R   0.509397 0.047337 0.601850 -0.081485
C91   C     C_R   0.533501 0.952055 0.957979 -0.119423
C92   C     C_R   0.046008 0.546156 0.454489 -0.111532
C93   C     C_R   0.022008 0.560048 0.048017 -0.105634
C94   C     C_R   0.009346 0.547377 0.601867 -0.081538
C95   C     C_R   0.312729 0.062339 0.137552 0.535720
C96   C     C_R   0.037123 0.455072 0.951465 -0.117448
C97   C     C_R   0.641031 0.054809 0.503290 -0.133423
C98   C     C_R   0.620681 0.039773 0.031648 -0.112943
C99   C     C_R   0.622186 0.059133 0.576580 -0.108090
C100  C     C_R   0.632305 0.978018 0.995732 -0.121293
C101  C     C_R   0.141004 0.554801 0.503312 -0.133523
C102  C     C_R   0.130505 0.541067 0.023212 -0.116632
C103  C     C_R   0.122143 0.559160 0.576599 -0.107830
C104  C     C_R   0.138880 0.482754 0.982081 -0.128052
C105  C     C_R   0.415713 0.028873 0.553509 -0.005933
C106  C     C_R   0.816112 0.462786 0.644392 0.528638
C107  C     C_R   0.419873 0.978666 0.972175 0.009026
C108  C     C_R   0.427499 0.039740 0.479763 -0.015718
C109  C     C_R   0.412137 0.028510 0.025597 0.001769
C110  C     C_R   0.915674 0.528900 0.553523 -0.005873
C111  C     C_R   0.923783 0.478474 0.971787 0.005189
C112  C     C_R   0.927473 0.539736 0.479774 -0.015753
C113  C     C_R   0.918853 0.525649 0.028200 0.004181
C114  C     C_R   0.204188 0.998154 0.533437 -0.011777
C115  C     C_R   0.202914 0.971910 0.971064 -0.017111
C116  C     C_R   0.206186 0.037009 0.471798 -0.021057
C117  C     C_R   0.815784 0.436297 0.862207 0.517600
C118  C     C_R   0.200898 0.018834 0.027997 -0.015485
C119  C     C_R   0.704161 0.498164 0.533449 -0.011582
C120  C     C_R   0.706292 0.472526 0.971911 0.012756
C121  C     C_R   0.706155 0.537002 0.471794 -0.020651
C122  C     C_R   0.703879 0.519571 0.028578 0.034755
C123  C     C_R   0.091508 0.968670 0.552126 -0.061030
C124  C     C_R   0.092111 0.946049 0.945274 -0.069759
C125  C     C_R   0.094418 0.058715 0.441760 -0.056040
C126  C     C_R   0.091682 0.045235 0.049674 -0.058147
C127  C     C_R   0.591486 0.468678 0.552143 -0.060844
C128  C     C_R   0.816566 0.563361 0.361723 0.538650
C129  C     C_R   0.595923 0.447103 0.945873 -0.072036
C130  C     C_R   0.594376 0.558690 0.441743 -0.056051
C131  C     C_R   0.592508 0.544398 0.051393 -0.068565
C132  C     C_R   0.983702 0.990494 0.520834 0.187048
C133  C     C_R   0.983733 0.973111 0.966479 0.206540
C134  C     C_R   0.986004 0.030063 0.459411 0.190660
C135  C     C_R   0.984889 0.018872 0.024658 0.216967
C136  C     C_R   0.483680 0.490484 0.520841 0.186914
C137  C     C_R   0.488064 0.474680 0.965925 0.166360
C138  C     C_R   0.485971 0.530033 0.459407 0.190330
C139  C     C_R   0.813471 0.562724 0.137672 0.532998
C140  C     C_R   0.486376 0.516820 0.026683 0.169940
C141  C     C_R   0.187055 0.773003 0.637198 0.566913
C142  C     C_R   0.182461 0.771583 0.864110 0.535502
C143  C     C_R   0.180800 0.229524 0.364429 0.541876
C144  C     C_R   0.143757 0.239010 0.140355 0.551210
C145  C     C_R   0.687060 0.273004 0.637196 0.566764
C146  C     C_R   0.681293 0.271020 0.864248 0.543479
C147  C     C_R   0.680786 0.729526 0.364432 0.540965
C148  C     C_R   0.635816 0.740849 0.142839 0.545667
C149  C     C_R   0.541539 0.770520 0.645691 0.535834
C150  C     C_3   0.228678 0.752631 0.449772 -0.154775
C151  C     C_R   0.546407 0.769307 0.852980 0.521761
C152  C     C_R   0.546194 0.231221 0.353304 0.527440
C153  C     C_R   0.539829 0.229059 0.144714 0.526965
C154  C     C_R   0.041517 0.270528 0.645680 0.535868
C155  C     C_R   0.046295 0.269241 0.852488 0.524702
C156  C     C_R   0.046172 0.731214 0.353314 0.527269
C157  C     C_R   0.039791 0.728845 0.144487 0.523815
C158  C     C_3   0.075278 0.817700 0.464341 0.146861
C159  C     C_3   0.078466 0.814291 0.037754 0.154673
C160  C     C_3   0.092278 0.185888 0.539708 0.149377
Cr1   Cr    Cr6+3 0.488160 0.884660 0.750000 0.978212
Cr2   Cr    Cr6+3 0.333410 0.272740 0.250000 0.977318
Cr3   Cr    Cr6+3 0.833410 0.227260 0.750000 0.965914
Cr4   Cr    Cr6+3 0.833410 0.772740 0.250000 0.978029
Cr5   Cr    Cr6+3 0.488160 0.115340 0.250000 0.976243
Cr6   Cr    Cr6+3 0.988160 0.384660 0.750000 0.979067
Cr7   Cr    Cr6+3 0.988160 0.615340 0.250000 0.974931
Cr8   Cr    Cr6+3 0.173480 0.883120 0.750000 0.956135
Cr9   Cr    Cr6+3 0.173480 0.116880 0.250000 0.939651
Cr10  Cr    Cr6+3 0.673480 0.383120 0.750000 0.961274
Cr11  Cr    Cr6+3 0.673480 0.616880 0.250000 0.945419
Cr12  Cr    Cr6+3 0.333410 0.727260 0.750000 0.967494
H1    H     H_    0.261183 0.865073 0.497706 0.101557
H2    H     H_    0.944119 0.802225 0.936866 0.101679
H3    H     H_    0.172525 0.922108 0.388681 0.176268
H4    H     H_    0.949146 0.870974 0.089514 0.266739
H5    H     H_    0.077079 0.938975 0.164933 0.158073
H6    H     H_    0.206124 0.906955 0.118831 0.170903
H7    H     H_    0.124700 0.852784 0.178270 0.141381
H8    H     H_    0.972633 0.122937 0.591414 0.254663
H9    H     H_    0.233617 0.114170 0.631229 0.151686
H10   H     H_    0.112669 0.065195 0.669512 0.167642
H11   H     H_    0.124731 0.153790 0.687163 0.141694
H12   H     H_    0.950179 0.130126 0.907269 0.265365
H13   H     H_    0.952957 0.184475 0.445718 0.110897
H14   H     H_    0.090383 0.058405 0.847483 0.172691
H15   H     H_    0.211621 0.097792 0.898058 0.167553
H16   H     H_    0.130460 0.144515 0.829462 0.132899
H17   H     H_    0.429597 0.365535 0.414490 0.262296
H18   H     H_    0.534949 0.442890 0.341759 0.155053
H19   H     H_    0.604433 0.362266 0.327159 0.140984
H20   H     H_    0.673094 0.421915 0.388613 0.175195
H21   H     H_    0.518009 0.378763 0.108703 0.260827
H22   H     H_    0.671486 0.420636 0.180728 0.177510
H23   H     H_    0.780969 0.394093 0.116266 0.164322
H24   H     H_    0.924554 0.209050 0.055966 0.093538
H25   H     H_    0.707197 0.331751 0.171952 0.132797
H26   H     H_    0.472968 0.622840 0.591512 0.254732
H27   H     H_    0.613312 0.565232 0.669554 0.170969
H28   H     H_    0.624855 0.653813 0.687307 0.143804
H29   H     H_    0.734011 0.614422 0.631327 0.149602
H30   H     H_    0.584523 0.605322 0.904036 0.259843
H31   H     H_    0.784164 0.588288 0.856591 0.184478
H32   H     H_    0.828386 0.667598 0.898222 0.151028
H33   H     H_    0.717847 0.667046 0.825711 0.130294
H34   H     H_    0.457223 0.286140 0.564048 0.105966
H35   H     H_    0.463026 0.330184 0.947989 0.100080
H36   H     H_    0.452944 0.684408 0.445788 0.110822
H37   H     H_    0.454449 0.661140 0.033962 0.090436
H38   H     H_    0.992679 0.668956 0.484288 0.120234
H39   H     H_    0.954608 0.674830 0.997180 0.094363
H40   H     H_    0.942519 0.319726 0.512977 0.108400
H41   H     H_    0.275146 0.843504 0.014697 0.098730
H42   H     H_    0.950252 0.332288 0.964760 0.084121
H43   H     H_    0.492613 0.169010 0.484285 0.120178
H44   H     H_    0.418984 0.200208 0.002537 0.098508
H45   H     H_    0.442375 0.819616 0.513011 0.108447
H46   H     H_    0.394784 0.776297 0.955804 0.111319
H47   H     H_    0.249910 0.668963 0.537070 0.129758
H48   H     H_    0.186585 0.652714 0.951068 0.142438
H49   H     H_    0.159806 0.354799 0.453932 0.135701
H50   H     H_    0.160936 0.357845 0.047922 0.134035
H51   H     H_    0.749834 0.168950 0.537095 0.129775
H52   H     H_    0.294522 0.170477 0.508525 0.096485
H53   H     H_    0.621367 0.147650 0.940706 0.150272
H54   H     H_    0.659574 0.854811 0.453903 0.135842
H55   H     H_    0.536577 0.855344 0.058982 0.135532
H56   H     H_    0.301601 0.745665 0.411008 0.113480
H57   H     H_    0.282624 0.712585 0.080885 0.114546
H58   H     H_    0.271450 0.293975 0.585750 0.107290
H59   H     H_    0.283582 0.285874 0.933668 0.112580
H60   H     H_    0.801585 0.245605 0.410976 0.113096
H61   H     H_    0.746671 0.179438 0.072733 0.104371
H62   H     H_    0.771395 0.794072 0.585716 0.106933
H63   H     H_    0.250098 0.159807 0.019273 0.082332
H64   H     H_    0.729832 0.839116 0.954791 0.116853
H65   H     H_    0.727370 0.066869 0.484363 0.179864
H66   H     H_    0.689582 0.068989 0.054387 0.159015
H67   H     H_    0.694479 0.072096 0.613745 0.128136
H68   H     H_    0.714177 0.950162 0.999068 0.192285
H69   H     H_    0.227350 0.566850 0.484387 0.179884
H70   H     H_    0.204105 0.572827 0.037538 0.158095
H71   H     H_    0.194432 0.572133 0.613763 0.128309
H72   H     H_    0.220782 0.456892 0.975797 0.190791
H73   H     H_    0.570789 0.048400 0.399135 0.177443
H74   H     H_    0.761313 0.365043 0.497701 0.101483
H75   H     H_    0.501845 0.111741 0.073259 0.154297
H76   H     H_    0.496276 0.052119 0.659280 0.137679
H77   H     H_    0.543802 0.907825 0.924882 0.170178
H78   H     H_    0.070775 0.548331 0.399149 0.177345
H79   H     H_    0.017181 0.603669 0.080508 0.169380
H80   H     H_    0.996207 0.552169 0.659295 0.136575
H81   H     H_    0.049881 0.413776 0.915240 0.178017
H82   H     H_    0.089688 0.097934 0.403507 0.175444
H83   H     H_    0.086531 0.088842 0.085091 0.160309
H84   H     H_    0.080801 0.927550 0.589331 0.174134
H85   H     H_    0.798765 0.317048 0.019622 0.107258
H86   H     H_    0.087310 0.905162 0.907396 0.162220
H87   H     H_    0.589624 0.597894 0.403472 0.175420
H88   H     H_    0.585241 0.586146 0.088706 0.158115
H89   H     H_    0.580777 0.427560 0.589351 0.174100
H90   H     H_    0.590655 0.407618 0.906530 0.160974
H91   H     H_    0.879700 0.013957 0.606770 0.232747
H92   H     H_    0.738172 0.921680 0.590161 0.180390
H93   H     H_    0.887062 0.892566 0.613662 0.134846
H94   H     H_    0.833023 0.889220 0.520499 0.158278
H95   H     H_    0.883152 0.908778 0.900268 0.231147
H96   H     H_    0.794626 0.670561 0.508502 0.096449
H97   H     H_    0.745512 0.987835 0.853688 0.148276
H98   H     H_    0.892282 0.021739 0.839147 0.126728
H99   H     H_    0.802115 0.052744 0.913495 0.170971
H100  H     H_    0.830026 0.990780 0.412632 0.261125
H101  H     H_    0.798769 0.061406 0.314675 0.134600
H102  H     H_    0.956796 0.044665 0.309054 0.142472
H103  H     H_    0.902427 0.122850 0.349634 0.162982
H104  H     H_    0.876431 0.094048 0.055369 0.225940
H105  H     H_    0.789089 0.043393 0.156687 0.134747
H106  H     H_    0.947398 0.034182 0.166113 0.135796
H107  H     H_    0.797723 0.722013 0.035222 0.103457
H108  H     H_    0.855421 0.963136 0.134014 0.159049
H109  H     H_    0.379574 0.513934 0.606736 0.233311
H110  H     H_    0.238137 0.421585 0.590040 0.180657
H111  H     H_    0.387007 0.392569 0.613739 0.135170
H112  H     H_    0.333273 0.389112 0.520521 0.157973
H113  H     H_    0.389932 0.426828 0.883899 0.236208
H114  H     H_    0.277677 0.524655 0.846002 0.147393
H115  H     H_    0.435447 0.541709 0.838253 0.133373
H116  H     H_    0.352808 0.575519 0.913996 0.164826
H117  H     H_    0.329979 0.490724 0.412661 0.260936
H118  H     H_    0.957176 0.786025 0.564093 0.105856
H119  H     H_    0.298339 0.561628 0.314907 0.136854
H120  H     H_    0.456161 0.544451 0.308862 0.146861
H121  H     H_    0.402713 0.622776 0.349645 0.162219
H122  H     H_    0.382946 0.573274 0.095983 0.223137
H123  H     H_    0.262536 0.484219 0.139491 0.148010
H124  H     H_    0.417340 0.466107 0.157941 0.129778
H125  H     H_    0.337898 0.424348 0.082493 0.157755
H126  H     H_    0.929315 0.865398 0.414582 0.262344
H127  H     H_    0.034281 0.942744 0.341720 0.154181
H128  H     H_    0.104322 0.862254 0.327305 0.139921
N1    N     N_2   0.875950 0.986022 0.559534 -0.541821
N2    N     N_2   0.038587 0.873448 0.077490 -0.516748
N3    N     N_2   0.062885 0.126358 0.581566 -0.515122
N4    N     N_2   0.037056 0.128418 0.926485 -0.527401
N5    N     N_2   0.518188 0.374415 0.427817 -0.521481
N6    N     N_2   0.601196 0.373859 0.087105 -0.518248
N7    N     N_2   0.563205 0.626347 0.581650 -0.515453
N8    N     N_2   0.657288 0.631032 0.925388 -0.524445
N9    N     N_2   0.877944 0.954786 0.927268 -0.543888
N10   N     N_2   0.882604 0.034086 0.412705 -0.550926
N11   N     N_2   0.881201 0.041640 0.058253 -0.535016
N12   N     N_2   0.375906 0.485975 0.559515 -0.541771
N13   N     N_2   0.389699 0.469504 0.916772 -0.548788
N14   N     N_2   0.382552 0.534032 0.412714 -0.552241
N15   N     N_2   0.382464 0.527890 0.067438 -0.541915
N16   N     N_2   0.017889 0.874353 0.427892 -0.521756
O1    O     O_R   0.575450 0.828820 0.667950 -0.530449
O2    O     O_R   0.416860 0.942890 0.825320 -0.495759
O3    O     O_R   0.416860 0.057110 0.325320 -0.504439
O4    O     O_R   0.416860 0.057110 0.174680 -0.482573
O5    O     O_R   0.916860 0.442890 0.674680 -0.498109
O6    O     O_R   0.916860 0.442890 0.825320 -0.503552
O7    O     O_R   0.916860 0.557110 0.325320 -0.505194
O8    O     O_R   0.916860 0.557110 0.174680 -0.494942
O9    O     O_R   0.213790 0.953680 0.668330 -0.565175
O10   O     O_R   0.213790 0.953680 0.831670 -0.551671
O11   O     O_R   0.213790 0.046320 0.331670 -0.553361
O12   O     O_R   0.575450 0.828820 0.832050 -0.551203
O13   O     O_R   0.213790 0.046320 0.168330 -0.546796
O14   O     O_R   0.713790 0.453680 0.668330 -0.564463
O15   O     O_R   0.713790 0.453680 0.831670 -0.539794
O16   O     O_R   0.713790 0.546320 0.331670 -0.554358
O17   O     O_R   0.713790 0.546320 0.168330 -0.539460
O18   O     O_R   0.121360 0.817890 0.672660 -0.517184
O19   O     O_R   0.121360 0.817890 0.827340 -0.532767
O20   O     O_R   0.121360 0.182110 0.327340 -0.547216
O21   O     O_R   0.121360 0.182110 0.172660 -0.536254
O22   O     O_R   0.621360 0.317890 0.672660 -0.517123
O23   O     O_R   0.575450 0.171180 0.332050 -0.539610
O24   O     O_R   0.621360 0.317890 0.827340 -0.533789
O25   O     O_R   0.621360 0.682110 0.327340 -0.548288
O26   O     O_R   0.621360 0.682110 0.172660 -0.536658
O27   O     O_R   0.206850 0.711370 0.665820 -0.523112
O28   O     O_R   0.206850 0.711370 0.834180 -0.514097
O29   O     O_R   0.206850 0.288630 0.334180 -0.513731
O30   O     O_R   0.206850 0.288630 0.165820 -0.518738
O31   O     O_R   0.706850 0.211370 0.665820 -0.523086
O32   O     O_R   0.706850 0.211370 0.834180 -0.516864
O33   O     O_R   0.706850 0.788630 0.334180 -0.514516
O34   O     O_R   0.575450 0.171180 0.167950 -0.558177
O35   O     O_R   0.706850 0.788630 0.165820 -0.514129
O36   O     O_R   0.457710 0.733190 0.672630 -0.533424
O37   O     O_R   0.457710 0.733190 0.827370 -0.528010
O38   O     O_R   0.457710 0.266810 0.327370 -0.525670
O39   O     O_R   0.457710 0.266810 0.172630 -0.516884
O40   O     O_R   0.957710 0.233190 0.672630 -0.534728
O41   O     O_R   0.957710 0.233190 0.827370 -0.527559
O42   O     O_R   0.957710 0.766810 0.327370 -0.526378
O43   O     O_R   0.957710 0.766810 0.172630 -0.516818
O44   O     O_3   0.331690 0.831680 0.750000 -0.314231
O45   O     O_R   0.075450 0.328820 0.667950 -0.529827
O46   O     O_3   0.331690 0.168320 0.250000 -0.308161
O47   O     O_3   0.831690 0.331680 0.750000 -0.313082
O48   O     O_3   0.831690 0.668320 0.250000 -0.306770
O49   O     O_R   0.075450 0.328820 0.832050 -0.553413
O50   O     O_R   0.075450 0.671180 0.332050 -0.538794
O51   O     O_R   0.075450 0.671180 0.167950 -0.557069
O52   O     O_R   0.416860 0.942890 0.674680 -0.498157

loop_
_geom_bond_atom_site_label_1
_geom_bond_atom_site_label_2
_ccdc_geom_bond_type
C6    C32   S    
H117  N14   S    
Cr11  O17   S    
C20   C144  S    
C61   H3    S    
C83   C128  S    
C124  C133  A    
H91   N1    S    
C86   C110  A    
C137  N13   S    
C88   C108  A    
Cr3   O47   S    
C76   C153  S    
C3    C74   S    
Cr5   O23   S    
H122  N15   S    
C2    H57   S    
C53   H99   S    
C70   C150  S    
C86   C119  A    
C53   N9    S    
C91   C100  A    
Cr4   O48   S    
C88   C97   A    
C36   C71   S    
C10   H52   S    
C20   C29   S    
C21   C48   S    
C136  N12   S    
C8    C158  S    
C101  C103  A    
C61   H128  S    
C7    C33   S    
Cr10  O15   S    
C38   H42   S    
H104  N11   S    
C152  O38   A    
C138  N14   S    
C57   H62   S    
C11   H63   S    
C71   C157  S    
C137  C140  A    
C11   C20   S    
C63   H11   S    
C91   C107  A    
C127  C136  A    
C84   O3    A    
C67   H28   S    
Cr6   O47   S    
C139  O17   A    
C9    H41   S    
Cr4   O33   S    
C40   C76   S    
C8    C150  S    
C17   C43   S    
C31   H35   S    
C18   C44   S    
C115  C118  A    
Cr7   O51   S    
C111  C113  A    
C58   N13   S    
C123  H84   S    
H12   N4    S    
C22   C49   S    
C154  O45   A    
C55   H105  S    
C132  N1    S    
C96   C104  A    
C50   H54   S    
C37   C45   S    
C2    C71   S    
Cr2   O46   S    
C10   C160  S    
Cr12  O37   S    
C16   C25   S    
C156  O50   A    
C50   C57   S    
C52   N1    S    
C26   H118  S    
C90   C105  A    
C42   H46   S    
C14   H85   S    
C94   H80   S    
Cr12  O36   S    
C13   C72   S    
C92   H78   S    
C97   H65   S    
C8    C17   S    
Cr6   O5    S    
C39   H43   S    
C141  O27   A    
C5    C76   S    
Cr2   O39   S    
C13   C45   S    
C66   N6    S    
C122  C131  A    
C79   C108  A    
C26   C158  S    
H4    N2    S    
C160  N3    S    
C20   C47   S    
C3    C11   S    
Cr3   O40   S    
C89   H75   S    
C129  C137  A    
C139  O8    A    
C132  C134  A    
C133  C135  A    
C141  O18   A    
Cr9   O13   S    
C151  O12   A    
C64   H14   S    
C63   H9    S    
C123  C132  A    
C44   H48   S    
H109  N12   S    
C121  C130  A    
C24   H59   S    
Cr6   O45   S    
C142  O28   A    
C58   H116  S    
Cr4   O35   S    
C56   H111  S    
C33   C42   S    
C56   H110  S    
C82   C115  A    
Cr11  O48   S    
C79   C84   S    
C5    N6    S    
C27   C159  S    
C40   C49   S    
C28   C160  S    
C155  O49   A    
Cr1   O1    S    
C35   H60   S    
C3    C29   S    
C34   H38   S    
C13   H58   S    
C61   N16   S    
C22   C146  S    
C2    C44   S    
C29   C38   S    
C32   C41   S    
C102  H70   S    
C39   C75   S    
C32   H36   S    
Cr1   O44   S    
H95   N9    S    
Cr9   O11   S    
C52   H93   S    
C86   C106  S    
Cr8   O10   S    
Cr4   O43   S    
C27   H2    S    
C78   C151  S    
H100  N10   S    
C119  C121  A    
C96   C111  A    
C81   C105  A    
C150  H56   S    
C120  C129  A    
C145  O22   A    
H126  N16   S    
C62   H7    S    
C117  O6    A    
C140  N15   S    
C131  H88   S    
C12   C35   S    
C159  N2    S    
C148  O26   A    
C67   H29   S    
Cr12  O27   S    
C149  O1    A    
C147  O33   A    
C54   H102  S    
Cr3   O32   S    
C40   H44   S    
C80   C95   S    
C19   C28   S    
C64   H16   S    
C43   C150  S    
C114  C123  A    
C116  C125  A    
Cr7   O48   S    
C4    C12   S    
C49   H53   S    
C3    N4    S    
C58   H114  S    
C83   C112  A    
C34   C43   S    
H113  N13   S    
C114  C116  A    
C19   C45   S    
C69   H31   S    
C59   H119  S    
C135  N11   S    
C6    N7    S    
C143  O29   A    
C69   H33   S    
C89   C98   A    
C45   H49   S    
C14   C22   S    
C85   C113  A    
Cr8   O19   S    
C142  O19   A    
C28   C37   S    
C12   H74   S    
C60   H125  S    
C30   C39   S    
C100  H68   S    
C69   N8    S    
C125  H82   S    
C110  C112  A    
C9    C18   S    
Cr5   O4    S    
C69   H32   S    
C53   H98   S    
H21   N6    S    
C153  O34   A    
C2    C9    S    
C25   C33   S    
Cr3   O41   S    
C119  C127  A    
C125  C134  A    
C61   H127  S    
C90   C99   A    
C146  O32   A    
C62   H5    S    
C66   H23   S    
Cr2   O29   S    
C14   C46   S    
C46   C49   S    
C144  O21   A    
C87   C117  S    
C67   H27   S    
C38   C74   S    
C60   H123  S    
C87   C111  A    
C1    C81   S    
C31   C40   S    
C17   C141  S    
C55   N11   S    
C4    C75   S    
C56   N12   S    
C66   H22   S    
C117  O15   A    
C90   H76   S    
C80   C109  A    
C144  O30   A    
Cr7   O8    S    
C34   C70   S    
C99   H67   S    
Cr9   O20   S    
Cr12  O44   S    
C124  H86   S    
C55   H108  S    
C107  C109  A    
C95   O4    A    
C35   C48   S    
C133  N9    S    
C152  O23   A    
C68   C78   S    
C52   H92   S    
C80   C118  A    
C62   N2    S    
C57   C77   S    
C72   C154  S    
C157  O43   A    
C59   N14   S    
Cr4   O42   S    
C77   C149  S    
C92   C112  A    
C23   C50   S    
C67   N7    S    
C59   H120  S    
C23   C147  S    
C153  O39   A    
Cr6   O6    S    
C70   C158  S    
C21   C145  S    
C41   C50   S    
C54   N10   S    
C37   H40   S    
H17   N5    S    
C95   O13   A    
Cr10  O47   S    
C41   H45   S    
C10   C19   S    
C85   C122  A    
C93   C113  A    
C5    C14   S    
C92   C101  A    
C7    C16   S    
C126  C135  A    
C15   H96   S    
C106  O5    A    
C98   C100  A    
C1    O52   A    
C51   H55   S    
Cr10  O14   S    
Cr9   O46   S    
C73   C82   S    
Cr10  O24   S    
C91   H77   S    
C115  C124  A    
C155  O41   A    
C43   H47   S    
C93   C102  A    
Cr5   O34   S    
C98   H66   S    
C27   C36   S    
C106  O14   A    
C21   C30   S    
C128  O7    A    
C56   H112  S    
Cr9   O21   S    
C23   C32   S    
C62   H6    S    
Cr1   O52   S    
C148  O35   A    
C94   C110  A    
C74   C155  S    
C25   C148  S    
Cr8   O18   S    
C36   H39   S    
C65   H18   S    
C55   H106  S    
C128  O16   A    
C37   C72   S    
Cr11  O16   S    
Cr11  O26   S    
C158  N16   S    
C39   C48   S    
C52   H94   S    
C63   N3    S    
C149  O36   A    
C156  O42   A    
C64   N4    S    
C146  O24   A    
C73   O2    A    
C46   C76   S    
C130  H87   S    
Cr5   O46   S    
H8    N3    S    
C35   C75   S    
C70   C156  S    
C17   C26   S    
Cr2   O38   S    
C96   H81   S    
C16   H107  S    
C41   C77   S    
C9    C159  S    
C30   H34   S    
C89   C109  A    
C11   C24   S    
C68   H64   S    
C6    C15   S    
Cr12  O28   S    
C33   H37   S    
C26   C34   S    
C154  O40   A    
C54   H103  S    
Cr3   O31   S    
C103  H71   S    
C126  H83   S    
C16   C68   S    
C101  H69   S    
C85   C139  S    
Cr10  O22   S    
C42   C51   S    
C73   O10   A    
C15   C23   S    
C88   H73   S    
C63   H10   S    
C79   C116  A    
C15   C57   S    
C97   C99   A    
C120  C122  A    
C60   N15   S    
C58   H115  S    
C105  C108  A    
C22   C31   S    
C64   H15   S    
C46   H61   S    
C65   H19   S    
C18   C142  S    
H30   N8    S    
C136  C138  A    
C8    H1    S    
C6    C77   S    
C131  C140  A    
Cr1   O12   S    
C104  H72   S    
C12   C21   S    
Cr7   O50   S    
C127  H89   S    
Cr1   O2    S    
C81   C114  A    
C25   C51   S    
C59   H121  S    
C65   H20   S    
C75   C152  S    
C82   C107  A    
C83   C121  A    
C102  C104  A    
C38   C47   S    
C65   N5    S    
C7    C78   S    
Cr5   O3    S    
C47   H50   S    
C134  N10   S    
C7    N8    S    
C42   C78   S    
C53   H97   S    
C84   O11   A    
H26   N7    S    
Cr8   O9    S    
C19   C143  S    
C24   C47   S    
C18   C27   S    
C10   C13   S    
C145  O31   A    
C94   C103  A    
Cr2   O30   S    
Cr11  O25   S    
C48   H51   S    
Cr8   O44   S    
C29   H24   S    
C71   C159  S    
C4    N5    S    
C143  O20   A    
C72   C160  S    
C87   C120  A    
C28   H13   S    
Cr6   O49   S    
C24   C74   S    
C60   H124  S    
C54   H101  S    
C151  O37   A    
C51   C68   S    
C4    C30   S    
C66   H25   S    
C36   C44   S    
C93   H79   S    
C118  C126  A    
C5    C31   S    
Cr7   O7    S    
C157  O51   A    
C1    O9    A    
C129  H90   S    
C147  O25   A    
C130  C138  A    
