data_mof_unit_36097.cif
_audit_creation_date              2012-12-11T15:46:39-0500
_audit_creation_method            fapswitch 2.2
_symmetry_space_group_name_H-M    P1
_symmetry_Int_Tables_number       1
_space_group_crystal_system       triclinic
_cell_length_a                    11.562096
_cell_length_b                    11.569086
_cell_length_c                    19.532109
_cell_angle_alpha                 90.696062
_cell_angle_beta                  89.766781
_cell_angle_gamma                 60.051402
_cell_volume                      2263.48875067

loop_
_atom_site_label
_atom_site_type_symbol
_atom_type_description
_atom_site_fract_x
_atom_site_fract_y
_atom_site_fract_z
_atom_type_partial_charge
C1    C     C_R   0.640198 0.117555 0.599174 0.526638
C2    C     C_1   0.652276 0.150390 0.668579 0.006242
C3    C     C_R   0.703882 0.569668 0.205753 -0.038250
C4    C     C_R   0.612072 0.746390 0.598619 0.521445
C5    C     C_R   0.587553 0.596456 0.239953 -0.061044
C6    C     C_R   0.568379 0.635031 0.306884 0.043811
C7    C     C_R   0.794988 0.589623 0.315301 0.298665
C8    C     C_R   0.812380 0.556181 0.244736 -0.089344
C9    C     C_3   0.444135 0.687738 0.222720 -0.181849
C10   C     C_3   0.423467 0.730476 0.297016 0.274033
C11   C     C_R   0.664639 0.647991 0.343521 -0.004067
C12   C     C_1   0.640624 0.704184 0.667922 0.006778
C13   C     C_R   0.132412 0.200422 0.193742 0.012691
C14   C     C_R   0.140771 0.296835 0.232358 -0.113206
C15   C     C_R   0.170425 0.279506 0.299840 -0.010464
C16   C     C_R   0.240673 0.145553 0.598045 0.532835
C17   C     C_R   0.166068 0.073814 0.298239 -0.174790
C18   C     C_R   0.142675 0.086777 0.226798 0.242749
C19   C     C_3   0.207620 0.378754 0.221914 0.187862
C20   C     C_3   0.248585 0.351516 0.296661 0.341432
C21   C     C_R   0.187406 0.166828 0.334073 -0.063599
C22   C     C_R   0.674084 0.190673 0.195206 -0.027415
C23   C     C_1   0.127184 0.198364 0.859378 0.008229
C24   C     C_R   0.751110 0.064384 0.221955 -0.096493
C25   C     C_R   0.749312 0.042909 0.290365 -0.032030
C26   C     C_R   0.602715 0.278786 0.311774 0.222516
C27   C     C_R   0.600881 0.298855 0.240773 -0.107581
C28   C     C_R   0.645135 0.110970 0.402508 0.566100
C29   C     C_3   0.764942 0.932847 0.201765 0.309536
C30   C     C_3   0.760565 0.910024 0.277694 0.749013
C31   C     C_R   0.670941 0.146588 0.336046 -0.018395
C32   C     C_R   0.082136 0.230939 0.928734 0.546512
C33   C     C_R   0.684341 0.604003 0.929495 0.562199
C34   C     C_1   0.171132 0.170627 0.727656 -0.029431
C35   C     C_R   0.708870 0.206479 0.930178 0.551410
C36   C     C_R   0.081701 0.236195 0.125245 0.550684
C37   C     C_R   0.710807 0.547365 0.132324 0.571122
C38   C     C_R   0.707532 0.211834 0.126799 0.552320
C39   C     C_R   0.619140 0.733677 0.404213 0.565113
C40   C     C_R   0.246750 0.139664 0.400956 0.535755
C41   C     C_1   0.671247 0.645886 0.860111 0.006206
C42   C     C_1   0.654553 0.683672 0.728340 -0.028869
C43   C     C_1   0.663957 0.666255 0.799648 -0.029673
C44   C     C_3   0.928764 0.486240 0.405963 -0.047564
C45   C     C_1   0.150346 0.182084 0.798930 -0.028961
C46   C     C_3   0.389973 0.196458 0.162103 -0.059243
C47   C     C_3   0.611119 0.400699 0.402881 -0.056216
C48   C     C_3   0.087988 0.918500 0.219228 -0.079819
C49   C     C_1   0.194701 0.161518 0.667255 0.004921
C50   C     C_1   0.679516 0.190444 0.860856 0.007678
C51   C     C_1   0.658243 0.167562 0.729040 -0.028932
C52   C     C_1   0.666178 0.180434 0.800402 -0.028935
Cr1   Cr    Cr6+3 0.404720 0.198220 0.499960 1.087788
Cr2   Cr    Cr6+3 0.698290 0.897110 0.500380 1.110889
Cr3   Cr    Cr6+3 0.396970 0.904720 0.499610 1.073131
Cr4   Cr    Cr6+3 0.926290 0.152010 0.028150 1.063289
Cr5   Cr    Cr6+3 0.921440 0.451830 0.027490 1.053126
Cr6   Cr    Cr6+3 0.626370 0.446880 0.028730 1.046483
F1    F     F_    0.191232 0.467003 0.336412 -0.544593
F2    F     F_    0.655248 0.944626 0.167511 -0.643876
F3    F     F_    0.647858 0.905994 0.298028 -0.611310
F4    F     F_    0.878805 0.806523 0.301869 -0.578135
F5    F     F_    0.344889 0.691034 0.332001 -0.576621
H1    H     H_    0.356989 0.285646 0.305300 0.155596
H2    H     H_    0.938135 0.390892 0.386694 0.066523
H3    H     H_    0.851706 0.529302 0.447168 0.077117
H4    H     H_    0.025006 0.462641 0.429514 0.212956
H5    H     H_    0.338058 0.164259 0.125855 0.144160
H6    H     H_    0.416854 0.138170 0.210006 0.160156
H7    H     H_    0.482589 0.173869 0.134590 0.201070
H8    H     H_    0.704240 0.388550 0.378880 0.055302
H9    H     H_    0.636715 0.329814 0.445432 0.105507
H10   H     H_    0.556109 0.502016 0.426314 0.185032
H11   H     H_    0.054709 0.873356 0.179227 0.145979
H12   H     H_    0.543725 0.398365 0.221321 0.175166
H13   H     H_    0.000454 0.987095 0.251402 0.121295
H14   H     H_    0.161955 0.836123 0.250636 0.194277
H15   H     H_    0.861342 0.863221 0.176199 0.109627
H16   H     H_    0.907128 0.526192 0.220171 0.147393
H17   H     H_    0.391941 0.632930 0.207346 0.180174
H18   H     H_    0.429310 0.769573 0.188093 0.168002
H19   H     H_    0.396678 0.835850 0.305603 0.142259
H20   H     H_    0.177780 0.987262 0.324769 0.157002
H21   H     H_    0.132692 0.485294 0.213621 0.195579
O1    O     O_R   0.267750 0.231960 0.575440 -0.507320
O2    O     O_R   0.596230 0.579400 0.952760 -0.496742
O3    O     O_R   0.639160 0.321170 0.958690 -0.492053
O4    O     O_R   0.527290 0.186640 0.570530 -0.501221
O5    O     O_R   0.821370 0.124220 0.104400 -0.498295
O6    O     O_R   0.037020 0.167050 0.097880 -0.449161
O7    O     O_R   0.056310 0.349620 0.102920 -0.524766
O8    O     O_R   0.797790 0.564880 0.097980 -0.477528
O9    O     O_R   0.596000 0.584270 0.104310 -0.504739
O10   O     O_R   0.638950 0.325690 0.099180 -0.517914
O11   O     O_3   0.824700 0.350240 0.028120 -0.302650
O12   O     O_R   0.685950 0.784660 0.430010 -0.412143
O13   O     O_R   0.728110 0.003450 0.576380 -0.508189
O14   O     O_R   0.682980 0.789190 0.570500 -0.507871
O15   O     O_R   0.499300 0.771880 0.575540 -0.507831
O16   O     O_R   0.285350 0.030870 0.569740 -0.493915
O17   O     O_R   0.270960 0.227070 0.423890 -0.490546
O18   O     O_R   0.530270 0.182120 0.430040 -0.470988
O19   O     O_R   0.731320 0.998570 0.424830 -0.458367
O20   O     O_3   0.901704 0.577581 0.352655 -0.436738
O21   O     O_3   0.316180 0.335397 0.174463 -0.595692
O22   O     O_3   0.527210 0.387623 0.354664 -0.475427
O23   O     O_R   0.502510 0.767000 0.423980 -0.509152
O24   O     O_3   0.146881 0.984540 0.186501 -0.560865
O25   O     O_R   0.288320 0.026340 0.429250 -0.492352
O26   O     O_3   0.499990 0.000020 0.499980 -0.276509
O27   O     O_R   0.821590 0.119350 0.952850 -0.499259
O28   O     O_R   0.037230 0.162540 0.957390 -0.492864
O29   O     O_R   0.056530 0.344750 0.951370 -0.501143
O30   O     O_R   0.798000 0.560370 0.957490 -0.486428

loop_
_geom_bond_atom_site_label_1
_geom_bond_atom_site_label_2
_ccdc_geom_bond_type
Cr1   O26   S    
C25   C31   A    
Cr4   O11   S    
C23   C45   T    
Cr5   O8    S    
C4    O14   A    
C48   H13   S    
C44   H3    S    
C19   C20   S    
Cr6   O11   S    
Cr6   O3    S    
C26   O22   S    
C44   O20   S    
C7    C8    A    
C7    C11   A    
C38   O5    A    
C26   C27   A    
C13   C18   A    
Cr6   O9    S    
C5    C6    A    
C22   C38   S    
C46   O21   S    
Cr2   O26   S    
C1    C2    S    
C24   C29   S    
C46   H6    S    
C12   C42   T    
C40   O17   A    
C35   O3    A    
C29   H15   S    
C10   F5    S    
Cr1   O17   S    
Cr3   O16   S    
C8    H16   S    
C50   C52   T    
Cr2   O13   S    
C32   O29   A    
C4    C12   S    
C32   O28   A    
C9    C10   S    
Cr4   O27   S    
Cr2   O12   S    
C1    O4    A    
Cr4   O6    S    
C26   C31   A    
C13   C14   A    
Cr3   O25   S    
C41   C43   T    
C44   H2    S    
C27   H12   S    
Cr6   O2    S    
C15   C20   S    
C39   O12   A    
C51   C52   S    
C48   H11   S    
Cr2   O19   S    
C24   C25   A    
C47   H10   S    
C13   C36   S    
C3    C8    A    
C1    O13   A    
C6    C11   A    
C16   O16   A    
Cr5   O29   S    
C10   H19   S    
C17   C21   A    
Cr3   O23   S    
C17   H20   S    
C9    H17   S    
C48   H14   S    
C20   H1    S    
C39   O23   A    
C33   O2    A    
C46   H5    S    
C29   C30   S    
C29   F2    S    
Cr1   O18   S    
C47   O22   S    
C38   O10   A    
C35   C50   S    
C17   C18   A    
C33   O30   A    
C37   O9    A    
C34   C45   S    
C16   C49   S    
C20   F1    S    
C11   C39   S    
C47   H8    S    
Cr5   O30   S    
C19   O21   S    
C36   O7    A    
Cr4   O5    S    
C7    O20   S    
C30   F4    S    
Cr3   O26   S    
C16   O1    A    
C22   C24   A    
C4    O15   A    
C42   C43   S    
C19   H21   S    
C35   O27   A    
C36   O6    A    
C25   C30   S    
C34   C49   T    
Cr5   O7    S    
C37   O8    A    
C14   C19   S    
C28   C31   S    
C5    C9    S    
C3    C5    A    
C6    C10   S    
C40   O25   A    
C22   C27   A    
C33   C41   S    
C23   C32   S    
Cr6   O10   S    
C28   O19   A    
C48   O24   S    
C21   C40   S    
Cr1   O4    S    
C18   O24   S    
C47   H9    S    
C46   H7    S    
C2    C51   T    
C28   O18   A    
C15   C21   A    
C3    C37   S    
Cr5   O11   S    
C30   F3    S    
Cr3   O15   S    
C14   C15   A    
Cr2   O14   S    
C44   H4    S    
Cr1   O1    S    
Cr4   O28   S    
C9    H18   S    
