data_mof_unit_9295.cif
_audit_creation_date              2013-03-05T16:46:58-0500
_audit_creation_method            fapswitch 2.2
_symmetry_space_group_name_H-M    P1
_symmetry_Int_Tables_number       1
_space_group_crystal_system       triclinic
_cell_length_a                    15.050048
_cell_length_b                    8.918676
_cell_length_c                    8.112661
_cell_angle_alpha                 89.963143
_cell_angle_beta                  90.154939
_cell_angle_gamma                 90.272631
_cell_volume                      1088.91758173

loop_
_atom_site_label
_atom_site_type_symbol
_atom_site_description
_atom_site_fract_x
_atom_site_fract_y
_atom_site_fract_z
_atom_type_partial_charge
O1    O     O_R   0.500000 0.285350 0.636850 -0.617182
O2    O     O_R   0.500000 0.714650 0.363150 -0.617171
O3    O     O_R   0.500000 0.714650 0.636850 -0.618046
O4    O     O_R   0.500000 0.285350 0.363150 -0.618053
C1    C     C_R   0.500292 0.218058 0.500060 1.007383
C2    C     C_R   0.499709 0.781942 0.499939 1.007497
O5    O     O_R   0.367850 0.500000 0.636890 -0.606533
O6    O     O_R   0.632150 0.500000 0.363110 -0.606522
O7    O     O_R   0.632150 0.500000 0.636890 -0.614030
O8    O     O_R   0.367850 0.500000 0.363110 -0.614023
C3    C     C_R   0.326774 0.499461 0.499720 0.946627
C4    C     C_R   0.673226 0.500537 0.500280 0.946540
Zn1   Zn    Zn3+2 0.500000 0.500000 0.682780 1.062245
Zn2   Zn    Zn3+2 0.500000 0.500000 0.317220 1.062259
N1    N     N_1   0.500000 0.500000 0.073640 -0.011357
N2    N     N_1   0.500000 0.500000 0.926360 -0.011362
C5    C     C_R   0.814257 0.617170 0.580441 -0.076431
C6    C     C_R   0.185743 0.382834 0.419565 -0.076445
C7    C     C_R   0.813135 0.381472 0.422758 -0.082140
C8    C     C_R   0.186867 0.618564 0.577201 -0.082190
C9    C     C_R   0.768597 0.499751 0.501129 -0.202664
C10   C     C_R   0.231404 0.500259 0.498865 -0.202664
C11   C     C_R   0.906137 0.380363 0.424362 0.050056
C12   C     C_R   0.093864 0.619673 0.575593 0.050061
C13   C     C_R   0.907221 0.618844 0.577382 0.047196
C14   C     C_R   0.092780 0.381177 0.422596 0.047195
C15   C     C_R   0.953238 0.499823 0.500395 0.068635
C16   C     C_R   0.046763 0.500204 0.499576 0.068633
C17   C     C_R   0.953181 0.260669 0.354926 -0.162241
C18   C     C_R   0.046818 0.739383 0.644996 -0.162224
C19   C     C_R   0.955206 0.738883 0.646084 -0.167717
C20   C     C_R   0.044793 0.261153 0.353863 -0.167727
C21   C     C_1   0.500170 0.065224 0.500110 -0.119773
C22   C     C_1   0.499832 0.934776 0.499890 -0.119741
H1    H     H_    0.920002 0.164328 0.301650 0.183294
H2    H     H_    0.079993 0.835746 0.698229 0.183357
H3    H     H_    0.922737 0.834818 0.700326 0.179150
H4    H     H_    0.077260 0.165224 0.299607 0.179162
C23   C     C_2   0.764107 0.739651 0.662071 0.908049
O9    O     O_2   0.770724 0.758140 0.810971 -0.597920
O10   O     O_R   0.709547 0.832923 0.568055 -0.794629
H5    H     H_    0.680135 0.913226 0.637110 0.356448
C24   C     C_2   0.235892 0.260334 0.337968 0.907997
O11   O     O_2   0.229294 0.241836 0.189068 -0.597935
O12   O     O_R   0.290431 0.167054 0.432016 -0.794655
H6    H     H_    0.319838 0.086730 0.362984 0.356480
C25   C     C_2   0.761857 0.258174 0.342572 0.916845
O13   O     O_2   0.711072 0.181021 0.424308 -0.640137
O14   O     O_R   0.771503 0.231879 0.173710 -0.775316
H7    H     H_    0.733093 0.145578 0.133522 0.360199
C26   C     C_2   0.238148 0.741893 0.657334 0.916866
O15   O     O_2   0.288998 0.818921 0.575589 -0.640206
O16   O     O_R   0.228433 0.768366 0.826152 -0.775371
H8    H     H_    0.266849 0.854676 0.866299 0.360231

loop_
_geom_bond_atom_site_label_1
_geom_bond_atom_site_label_2
_geom_bond_distance
_ccdc_geom_bond_type
O3    Zn1   1.950083 S    
C13   C19   1.403423 A    
C7    C11   1.399790 A    
C24   O11   1.223007 D    
C14   C20   1.403427 A    
C20   H4    1.081719 S    
C13   C15   1.416595 A    
O10   H5    1.013707 S    
C17   H1    1.081503 S    
C3    C10   1.435376 S    
C14   C16   1.416599 A    
C25   O13   1.222507 D    
C6    C14   1.399388 A    
C18   H2    1.081499 S    
O6    C4    1.271533 A    
O3    C2    1.262152 A    
C5    C13   1.399396 A    
C21   C22   1.163405 T    
C17   C20   1.378802 A    
C23   O10   1.396527 S    
O12   H6    1.013705 S    
O5    C3    1.271534 A    
C24   O12   1.396521 S    
O2    C2    1.261986 A    
C2    C22   1.363070 S    
O1    C1    1.261987 A    
N1    N2    1.194832 T    
C11   C17   1.402961 A    
C7    C9    1.405793 A    
C8    C10   1.405816 A    
C8    C26   1.489380 S    
C11   C15   1.417532 A    
O4    Zn2   1.950084 S    
C18   C19   1.378803 A    
O2    Zn2   1.950554 S    
O7    C4    1.270484 A    
C7    C25   1.489337 S    
C12   C18   1.402972 A    
O1    Zn1   1.950555 S    
O8    C3    1.270481 A    
C26   O15   1.222528 D    
C23   O9    1.223012 D    
C19   H3    1.081723 S    
O5    Zn1   2.022418 S    
C25   O14   1.398055 S    
O14   H7    1.013884 S    
C5    C23   1.487603 S    
Zn1   N2    1.976082 S    
C6    C24   1.487604 S    
C15   C16   1.407568 A    
C8    C12   1.399812 A    
Zn2   N1    1.976082 S    
O7    Zn1   2.024396 S    
O6    Zn2   2.022417 S    
C6    C10   1.405190 A    
C4    C9    1.435381 S    
C5    C9    1.405187 A    
C12   C16   1.417542 A    
O16   H8    1.013890 S    
O8    Zn2   2.024397 S    
O4    C1    1.262150 A    
C26   O16   1.398087 S    
C1    C21   1.363069 S    
