data_mof_unit_62399.cif
_audit_creation_date              2012-12-10T19:07:16-0500
_audit_creation_method            fapswitch 2.2
_symmetry_space_group_name_H-M    P1
_symmetry_Int_Tables_number       1
_space_group_crystal_system       triclinic
_cell_length_a                    13.0362
_cell_length_b                    13.627857
_cell_length_c                    19.030455
_cell_angle_alpha                 90.090264
_cell_angle_beta                  93.258628
_cell_angle_gamma                 85.765386
_cell_volume                      3366.17163177

loop_
_atom_site_label
_atom_site_type_symbol
_atom_type_description
_atom_site_fract_x
_atom_site_fract_y
_atom_site_fract_z
_atom_type_partial_charge
C1    C     C_R   0.481214 0.685214 0.499248 0.910174
C2    C     C_2   0.967140 0.526757 0.520059 -0.232102
C3    C     C_1   0.854876 0.519488 0.514410 0.186400
C4    C     C_1   0.145122 0.480529 0.485586 0.187396
C5    C     C_R   0.500046 0.499695 0.635277 0.902069
C6    C     C_R   0.500032 0.499715 0.364731 0.902306
C7    C     C_R   0.423042 0.435626 0.739318 -0.238637
C8    C     C_R   0.593159 0.444944 0.261140 -0.238229
C9    C     C_R   0.427585 0.410857 0.810134 -0.145708
C10   C     C_R   0.595259 0.420044 0.190517 -0.145742
C11   C     C_R   0.511779 0.434705 0.854044 0.014942
C12   C     C_R   0.518786 0.314787 0.500759 0.887436
C13   C     C_R   0.505807 0.434615 0.146480 0.014699
C14   C     C_R   0.590647 0.484953 0.826715 -0.185961
C15   C     C_R   0.414610 0.475798 0.173485 -0.186488
C16   C     C_R   0.586162 0.511278 0.756045 0.388714
C17   C     C_R   0.412039 0.502185 0.243943 0.388089
C18   C     C_R   0.502333 0.485075 0.711393 -0.133258
C19   C     C_R   0.501736 0.485222 0.288732 -0.133212
C20   C     C_R   0.509582 0.416660 0.071118 0.313466
C21   C     C_R   0.512701 0.416691 0.929548 0.313433
C22   C     C_1   0.533697 0.211649 0.501397 -0.163155
C23   C     C_1   0.466304 0.788355 0.498649 -0.149057
C24   C     C_2   0.544647 0.020520 0.501899 -0.148784
C25   C     C_2   0.455357 0.979486 0.498222 -0.151213
C26   C     C_1   0.457431 0.875757 0.498298 0.030951
C27   C     C_1   0.542572 0.124248 0.501788 0.021364
C28   C     C_2   0.032855 0.473276 0.479931 -0.240042
Cl1   Cl    Cl    0.685186 0.580551 0.727522 -0.587271
Cl2   Cl    Cl    0.295881 0.559952 0.272029 -0.584628
H1    H     H_    0.358323 0.414021 0.706093 0.179825
H2    H     H_    0.002393 0.422354 0.441542 0.171585
H3    H     H_    0.662772 0.430519 0.294502 0.179018
H4    H     H_    0.365413 0.372840 0.830480 0.165938
H5    H     H_    0.666731 0.389146 0.170435 0.166156
H6    H     H_    0.654501 0.506697 0.860716 0.188458
H7    H     H_    0.345774 0.490443 0.139388 0.188514
H8    H     H_    0.381888 0.023015 0.495188 0.165891
H9    H     H_    0.618117 0.976991 0.504930 0.168608
H10   H     H_    0.997599 0.577679 0.558448 0.178316
N1    N     N_R   0.601520 0.419010 0.969967 -0.163554
N2    N     N_R   0.421274 0.410410 0.030710 -0.163998
N3    N     N_R   0.600025 0.418769 0.039625 -0.162452
N4    N     N_R   0.422826 0.410206 0.961058 -0.162606
N5    N     N_1   0.234540 0.484780 0.488910 -0.078192
N6    N     N_1   0.765460 0.515220 0.511090 -0.078153
O1    O     O_R   0.402510 0.634760 0.495940 -0.597902
O2    O     O_R   0.597490 0.365240 0.504060 -0.611142
O3    O     O_R   0.572960 0.644530 0.503060 -0.595305
O4    O     O_R   0.427040 0.355470 0.496940 -0.608866
O5    O     O_R   0.414750 0.495120 0.598300 -0.629739
O6    O     O_R   0.585250 0.504880 0.401700 -0.629535
O7    O     O_R   0.585190 0.504900 0.605420 -0.553979
O8    O     O_R   0.414810 0.495100 0.394580 -0.554108
Zn1   Zn    Zn3+2 0.386190 0.493480 0.495250 1.019708
Zn2   Zn    Zn3+2 0.613810 0.506520 0.504750 1.019559

loop_
_geom_bond_atom_site_label_1
_geom_bond_atom_site_label_2
_ccdc_geom_bond_type
C20   N2    A    
C10   H5    S    
C6    C19   S    
C12   C22   S    
C25   H8    S    
C21   N4    A    
C9    C11   A    
C3    N6    T    
C12   O4    A    
O4    Zn1   S    
C24   C27   S    
O2    Zn2   S    
C12   O2    A    
C7    C18   A    
C7    C9    A    
C24   H9    S    
C2    C3    S    
C16   Cl1   S    
O1    Zn1   S    
C17   Cl2   S    
N1    N3    A    
N2    N4    A    
C6    O8    A    
C21   N1    A    
C8    C10   A    
C17   C19   A    
C1    C23   S    
O5    Zn1   S    
C22   C27   T    
C13   C15   A    
C14   H6    S    
C9    H4    S    
C11   C14   A    
C14   C16   A    
O7    Zn2   S    
C8    C19   A    
C7    H1    S    
N6    Zn2   S    
C4    N5    T    
O3    Zn2   S    
C2    H10   S    
C28   H2    S    
C20   N3    A    
C24   C25   D    
N5    Zn1   S    
C16   C18   A    
C4    C28   S    
C23   C26   T    
C5    O7    A    
C15   C17   A    
O8    Zn1   S    
C5    O5    A    
C2    C28   D    
C5    C18   S    
C13   C20   S    
C6    O6    A    
C25   C26   S    
C1    O3    A    
C11   C21   S    
C15   H7    S    
O6    Zn2   S    
C1    O1    A    
C8    H3    S    
C10   C13   A    
