data_mof_unit_58232.cif
_audit_creation_date              2012-12-10T18:15:11-0500
_audit_creation_method            fapswitch 2.2
_symmetry_space_group_name_H-M    P1
_symmetry_Int_Tables_number       1
_space_group_crystal_system       triclinic
_cell_length_a                    12.639513
_cell_length_b                    13.100401
_cell_length_c                    23.414912
_cell_angle_alpha                 91.279223
_cell_angle_beta                  103.26016
_cell_angle_gamma                 81.458785
_cell_volume                      3731.60395248

loop_
_atom_site_label
_atom_site_type_symbol
_atom_type_description
_atom_site_fract_x
_atom_site_fract_y
_atom_site_fract_z
_atom_type_partial_charge
C1    C     C_R   0.438149 0.691712 0.491484 0.874183
C2    C     C_R   0.485961 0.422999 0.876906 0.513804
C3    C     C_R   0.591323 0.470008 0.775527 -0.086502
C4    C     C_R   0.501854 0.499579 0.610501 0.870371
C5    C     C_R   0.598278 0.463043 0.716520 0.111138
C6    C     C_R   0.503634 0.503000 0.673042 -0.107118
C7    C     C_R   0.406420 0.546512 0.689061 -0.226160
C8    C     C_R   0.401392 0.551404 0.747419 -0.114410
C9    C     C_R   0.493504 0.513054 0.790497 0.276553
C10   C     C_R   0.388067 0.501693 0.226487 0.393772
C11   C     C_R   0.393482 0.498153 0.286307 -0.248898
C12   C     C_R   0.460284 0.697563 0.029779 -0.176422
C13   C     C_R   0.494004 0.500539 0.326674 -0.168798
C14   C     C_R   0.589276 0.506785 0.306646 -0.282616
C15   C     C_R   0.584421 0.509856 0.246837 0.404146
C16   C     C_R   0.561718 0.308585 0.506341 0.845746
C17   C     C_R   0.483671 0.507277 0.206735 0.148839
C18   C     C_R   0.701902 0.060444 0.460179 -0.171395
C19   C     C_R   0.599325 0.198936 0.503039 -0.049358
C20   C     C_R   0.303624 0.841336 0.505607 -0.167013
C21   C     C_R   0.279953 0.945841 0.515708 -0.147795
C22   C     C_R   0.354379 0.011083 0.510414 -0.156934
C23   C     C_R   0.461716 0.703089 0.970443 0.159379
C24   C     C_R   0.451396 0.973157 0.491058 0.047246
C25   C     C_R   0.463417 0.871465 0.470408 0.044418
C26   C     C_R   0.534270 0.033779 0.489505 0.034428
C27   C     C_R   0.624373 0.994920 0.464141 0.114839
C28   C     C_R   0.498894 0.498410 0.389490 0.881599
C29   C     C_R   0.630338 0.894904 0.439783 0.086077
C30   C     C_R   0.538654 0.842423 0.434195 0.115350
C31   C     C_R   0.529965 0.132543 0.513158 -0.219219
C32   C     C_R   0.688081 0.162397 0.478450 -0.202145
C33   C     C_R   0.397809 0.802591 0.485578 -0.112036
C34   C     C_R   0.472110 0.609476 0.938304 -0.040107
C35   C     C_R   0.091226 0.340171 0.421906 -0.279471
C36   C     C_R   0.802727 0.616156 0.576962 -0.016050
C37   C     C_R   0.911749 0.623049 0.602389 -0.276999
C38   C     C_R   0.993345 0.570608 0.577243 -0.114298
C39   C     C_R   0.966161 0.516290 0.524303 0.035193
C40   C     C_R   0.485116 0.416309 0.116761 0.598047
C41   C     C_R   0.855327 0.501140 0.504786 0.234562
C42   C     C_R   0.044674 0.469338 0.492911 -0.090024
C43   C     C_R   0.014489 0.392693 0.450846 0.143566
C44   C     C_R   0.907344 0.370315 0.437275 -0.244811
C45   C     C_R   0.475781 0.513664 0.966953 -0.044764
C46   C     C_R   0.828372 0.425744 0.462765 -0.217436
C47   C     C_R   0.150036 0.498107 0.498603 0.455095
C48   C     C_R   0.196260 0.366267 0.433029 -0.054125
C49   C     C_R   0.468924 0.600276 0.117696 0.620565
C50   C     C_R   0.467772 0.603185 0.058122 -0.047700
C51   C     C_R   0.474252 0.510212 0.026927 -0.046722
C52   C     C_R   0.480052 0.414155 0.055800 -0.047916
C53   C     C_3   0.734350 0.841964 0.422417 -0.426019
C54   C     C_3   0.831609 0.822717 0.475569 -0.802047
C55   C     C_3   0.448931 0.810950 0.944588 -0.343881
C56   C     C_R   0.481857 0.420712 0.935760 -0.036827
C57   C     C_3   0.333058 0.843377 0.907135 -0.769341
C58   C     C_3   0.506733 0.774583 0.380992 -0.430142
C59   C     C_3   0.392848 0.814186 0.343122 -0.805598
C60   C     C_3   0.478872 0.214910 0.046415 -0.363059
C61   C     C_3   0.364151 0.204026 0.054100 -0.730776
C62   C     C_3   0.702837 0.411836 0.699226 -0.376528
C63   C     C_3   0.790122 0.352065 0.748035 -0.873919
C64   C     C_R   0.483330 0.326851 0.963307 -0.182865
C65   C     C_R   0.481793 0.321323 0.022588 0.156966
C66   C     C_R   0.480400 0.606030 0.878995 0.501476
Cl1   Cl    Cl    0.705538 0.515647 0.222871 -0.566161
Cl2   Cl    Cl    0.186669 0.611605 0.533629 -0.698938
Cl3   Cl    Cl    0.260877 0.499051 0.176810 -0.571290
H1    H     H_    0.452788 0.768487 0.054229 0.189078
H2    H     H_    0.257070 0.325332 0.411670 0.159590
H3    H     H_    0.883626 0.311491 0.405570 0.161762
H4    H     H_    0.069982 0.279819 0.390819 0.167284
H5    H     H_    0.738685 0.653716 0.597218 0.151911
H6    H     H_    0.076625 0.567597 0.602278 0.193128
H7    H     H_    0.933130 0.665601 0.642523 0.163617
H8    H     H_    0.747832 0.404854 0.450537 0.208312
H9    H     H_    0.485188 0.256407 0.938145 0.188628
H10   H     H_    0.660403 0.441516 0.810725 0.150960
H11   H     H_    0.333975 0.577280 0.656225 0.202253
H12   H     H_    0.318951 0.494175 0.301029 0.209260
H13   H     H_    0.325647 0.584224 0.759287 0.144807
H14   H     H_    0.860841 0.895319 0.493032 0.249511
H15   H     H_    0.807517 0.783379 0.510966 0.268603
H16   H     H_    0.901187 0.772470 0.462877 0.269282
H17   H     H_    0.724432 0.764387 0.404073 0.223409
H18   H     H_    0.754799 0.887699 0.388148 0.213011
H19   H     H_    0.311210 0.787876 0.871456 0.280026
H20   H     H_    0.272294 0.847991 0.935017 0.244678
H21   H     H_    0.327673 0.920672 0.887248 0.246525
H22   H     H_    0.462677 0.868891 0.979960 0.178661
H23   H     H_    0.667526 0.508704 0.337249 0.203571
H24   H     H_    0.512971 0.818114 0.920219 0.253411
H25   H     H_    0.388108 0.896220 0.330403 0.269219
H26   H     H_    0.377443 0.767598 0.302623 0.271946
H27   H     H_    0.327489 0.807088 0.366702 0.259493
H28   H     H_    0.563481 0.772230 0.351144 0.223954
H29   H     H_    0.508467 0.695086 0.394853 0.224744
H30   H     H_    0.365778 0.127053 0.073468 0.246323
H31   H     H_    0.334789 0.264268 0.083196 0.299545
H32   H     H_    0.304969 0.210677 0.010738 0.239244
H33   H     H_    0.500301 0.153664 0.015590 0.179125
H34   H     H_    0.742352 0.213919 0.469916 0.148489
H35   H     H_    0.542718 0.195775 0.087289 0.258183
H36   H     H_    0.825236 0.405510 0.782257 0.258964
H37   H     H_    0.754587 0.292856 0.767864 0.274968
H38   H     H_    0.858117 0.312151 0.729308 0.258437
H39   H     H_    0.680233 0.356118 0.663577 0.211731
H40   H     H_    0.741288 0.471910 0.682073 0.230176
H41   H     H_    0.768581 0.036940 0.438769 0.151233
H42   H     H_    0.468934 0.162917 0.536965 0.144073
H43   H     H_    0.250480 0.790870 0.515799 0.221133
H44   H     H_    0.331742 0.090895 0.520331 0.133603
H45   H     H_    0.206542 0.975574 0.530727 0.151558
N1    N     N_R   0.478823 0.508076 0.145376 -0.321087
N2    N     N_R   0.486508 0.514180 0.850383 -0.349578
N3    N     N_R   0.222200 0.444670 0.469780 -0.118951
N4    N     N_R   0.776960 0.554790 0.529910 -0.127244
O1    O     O_R   0.366740 0.627150 0.485570 -0.546142
O2    O     O_R   0.410990 0.482290 0.406510 -0.608322
O3    O     O_R   0.589070 0.517660 0.425810 -0.651698
O4    O     O_2   0.497824 0.328681 0.148162 -0.554275
O5    O     O_2   0.461270 0.688721 0.148230 -0.543344
O6    O     O_2   0.484531 0.692150 0.849764 -0.571685
O7    O     O_2   0.489593 0.334664 0.846053 -0.565071
O8    O     O_R   0.544830 0.662520 0.504870 -0.618015
O9    O     O_R   0.410930 0.482340 0.574190 -0.567882
O10   O     O_R   0.589010 0.517710 0.593490 -0.636116
O11   O     O_R   0.455170 0.337480 0.495130 -0.616645
O12   O     O_R   0.633260 0.372850 0.514430 -0.634888
Zn1   Zn    Zn3+2 0.381090 0.476380 0.487110 0.998619
Zn2   Zn    Zn3+2 0.618910 0.523620 0.512890 0.922180

loop_
_geom_bond_atom_site_label_1
_geom_bond_atom_site_label_2
_ccdc_geom_bond_type
C27   C29   A    
O2    Zn1   S    
O12   Zn2   S    
C58   H29   S    
C55   H24   S    
C19   C31   A    
C34   C66   A    
C54   H15   S    
C1    C33   S    
C7    C8    A    
C39   C41   A    
C53   C54   S    
C11   H12   S    
C12   C23   A    
C26   C27   A    
C62   C63   S    
C57   H20   S    
C8    H13   S    
C21   C22   A    
C36   C37   A    
C24   C26   A    
C38   C39   A    
C40   N1    A    
C62   H39   S    
C45   C51   A    
C10   C17   A    
C49   O5    S    
C1    O1    A    
C55   H22   S    
C20   H43   S    
C2    N2    A    
C22   H44   S    
C35   H4    S    
C45   C56   A    
C8    C9    A    
O1    Zn1   S    
C41   C46   A    
C56   C64   A    
C13   C28   S    
C53   H17   S    
C59   H25   S    
C41   N4    A    
C63   H36   S    
C29   C30   A    
C35   C43   A    
C3    H10   S    
C26   C31   A    
C13   C14   A    
C61   H30   S    
C58   H28   S    
C59   H26   S    
C60   H33   S    
C35   C48   A    
O10   Zn2   S    
C54   H14   S    
C44   C46   A    
C39   C42   A    
C38   H6    S    
C57   H21   S    
C4    O10   A    
C51   C52   A    
C24   C25   A    
C4    C6    S    
C28   O2    A    
C28   O3    A    
C58   C59   S    
C40   C52   A    
C60   C61   S    
C61   H32   S    
C43   C44   A    
C2    O7    S    
C37   C38   A    
C3    C9    A    
C46   H8    S    
O8    Zn2   S    
C23   C34   A    
C15   Cl1   S    
C50   C51   A    
C32   H34   S    
C53   H18   S    
C34   C45   A    
C1    O8    A    
C63   H37   S    
C16   O11   A    
C14   H23   S    
C48   N3    A    
C66   N2    A    
C20   C33   A    
C49   N1    A    
C37   H7    S    
C60   C65   S    
C55   C57   S    
C66   O6    S    
C61   H31   S    
C18   C32   A    
C42   C43   A    
O3    Zn2   S    
C63   H38   S    
C47   Cl2   S    
C16   O12   A    
C17   N1    S    
C25   C30   A    
C15   C17   A    
C12   H1    S    
C36   H5    S    
C4    O9    A    
C9    N2    S    
C64   H9    S    
C19   C32   A    
C18   C27   A    
C18   H41   S    
C21   H45   S    
C3    C5    A    
C54   H16   S    
C12   C50   A    
C23   C55   S    
C6    C7    A    
C40   O4    S    
C57   H19   S    
C64   C65   A    
C2    C56   A    
C11   C13   A    
C5    C6    A    
C62   H40   S    
C29   C53   S    
C16   C19   S    
C30   C58   S    
C5    C62   S    
C44   H3    S    
C22   C24   A    
C42   C47   A    
N3    Zn1   S    
O9    Zn1   S    
N4    Zn2   S    
C10   C11   A    
C10   Cl3   S    
C47   N3    A    
C20   C21   A    
C49   C50   A    
C59   H27   S    
C31   H42   S    
C14   C15   A    
C36   N4    A    
C48   H2    S    
C60   H35   S    
C52   C65   A    
C25   C33   A    
C7    H11   S    
O11   Zn1   S    
