data_mof_unit_42640.cif
_audit_creation_date              2012-12-10T17:09:27-0500
_audit_creation_method            fapswitch 2.2
_symmetry_space_group_name_H-M    P1
_symmetry_Int_Tables_number       1
_space_group_crystal_system       triclinic
_cell_length_a                    10.525371
_cell_length_b                    10.646663
_cell_length_c                    10.089106
_cell_angle_alpha                 91.102702
_cell_angle_beta                  90.662313
_cell_angle_gamma                 90.508786
_cell_volume                      1130.2542571

loop_
_atom_site_label
_atom_site_type_symbol
_atom_type_description
_atom_site_fract_x
_atom_site_fract_y
_atom_site_fract_z
_atom_type_partial_charge
C1    C     C_R   0.501140 0.262593 0.498701 0.983344
C2    C     C_2   0.600440 0.514044 0.073423 0.052730
C3    C     C_R   0.257855 0.500851 0.499470 1.009277
C4    C     C_R   0.488108 0.736647 0.500707 0.990674
C5    C     C_R   0.742059 0.499550 0.500622 1.020805
C6    C     C_3   0.041672 0.395209 0.553105 0.373336
C7    C     C_3   0.957159 0.402416 0.428994 0.369136
C8    C     C_3   0.876568 0.500059 0.501340 -0.357548
C9    C     C_3   0.959946 0.492691 0.627284 -0.328518
C10   C     C_3   0.042536 0.599421 0.571716 0.344498
C11   C     C_3   0.957857 0.606864 0.447599 0.361662
C12   C     C_3   0.039638 0.509247 0.373069 -0.301320
C13   C     C_3   0.123243 0.501660 0.499166 -0.345467
C14   C     C_2   0.417402 0.933205 0.400618 0.474401
C15   C     C_2   0.461184 0.867832 0.504501 -0.348639
C16   C     C_2   0.421069 0.069436 0.410560 -0.120030
C17   C     C_2   0.500617 0.129712 0.494534 -0.292974
C18   C     C_2   0.601476 0.489668 0.925974 -0.046258
H1    H     H_    0.690419 0.463720 0.880197 0.165301
H2    H     H_    0.011622 0.099013 0.726191 0.399330
H3    H     H_    0.956791 0.871784 0.662789 0.397197
H4    H     H_    0.971922 0.935077 0.357956 0.412541
H5    H     H_    0.225714 0.925501 0.095360 0.414004
H6    H     H_    0.359892 0.122021 0.345062 0.248989
H7    H     H_    0.689713 0.541770 0.120289 0.173691
H8    H     H_    0.925219 0.485812 0.730424 0.233186
H9    H     H_    0.074409 0.515996 0.269936 0.262869
H10   H     H_    0.476700 0.912579 0.600880 0.158481
H11   H     H_    0.983646 0.128259 0.209441 0.396628
H12   H     H_    0.566881 0.083777 0.560298 0.170980
H13   H     H_    0.430160 0.554541 0.892314 0.255385
H14   H     H_    0.240620 0.273892 0.174510 0.406525
N1    N     N_2   0.501360 0.501330 0.852150 -0.140968
N2    N     N_2   0.501400 0.501360 0.147810 0.052409
O1    O     O_R   0.499980 0.319060 0.613040 -0.585172
O2    O     O_2   0.822457 0.318506 0.216883 -0.292858
O3    O     O_3   0.020825 0.186497 0.277411 -0.503897
O4    O     O_2   0.271087 0.483122 0.035243 -0.255648
O5    O     O_2   0.417734 0.308838 0.990160 -0.251238
O6    O     O_3   0.312066 0.322099 0.215853 -0.498286
O7    O     O_2   0.174008 0.181322 0.527847 -0.268966
O8    O     O_2   0.180932 0.289216 0.745095 -0.226638
O9    O     O_3   0.973782 0.168660 0.675922 -0.496839
O10   O     O_2   0.178516 0.679926 0.784667 -0.213122
O11   O     O_2   0.182823 0.812436 0.589216 -0.276598
O12   O     O_R   0.500020 0.319100 0.386900 -0.562685
O13   O     O_3   0.977981 0.810309 0.731831 -0.492333
O14   O     O_2   0.840304 0.716581 0.242482 -0.258834
O15   O     O_2   0.795579 0.799806 0.465274 -0.338711
O16   O     O_3   0.014684 0.852710 0.361624 -0.442065
O17   O     O_2   0.456542 0.823653 0.163073 -0.259245
O18   O     O_2   0.268746 0.754051 0.284728 -0.239401
O19   O     O_3   0.262306 0.971506 0.173289 -0.513319
O20   O     O_R   0.313930 0.499950 0.613050 -0.571292
O21   O     O_R   0.313970 0.499990 0.386910 -0.553071
O22   O     O_R   0.499980 0.680900 0.613100 -0.613402
O23   O     O_R   0.500020 0.680940 0.386960 -0.559632
O24   O     O_R   0.686030 0.500010 0.613090 -0.642296
O25   O     O_R   0.686070 0.500050 0.386950 -0.596352
O26   O     O_2   0.814511 0.191311 0.417111 -0.270400
S1    S     S_3+6 0.897979 0.271611 0.332857 0.087688
S2    S     S_3+6 0.375201 0.403972 0.092180 0.164901
S3    S     S_3+6 0.098393 0.255234 0.627017 0.106468
S4    S     S_3+6 0.100901 0.728466 0.671057 0.107043
S5    S     S_3+6 0.896670 0.746806 0.376885 0.085868
S6    S     S_3+6 0.351075 0.865185 0.252579 0.116397
Zn1   Zn    Zn3+2 0.499970 0.499970 0.650990 1.092706
Zn2   Zn    Zn3+2 0.500030 0.500030 0.349010 1.175570

loop_
_geom_bond_atom_site_label_1
_geom_bond_atom_site_label_2
_ccdc_geom_bond_type
C6    S3    S    
C4    O23   A    
C5    C8    S    
O3    S1    S    
C11   C12   S    
H13   N1    S    
O12   Zn2   S    
C6    C7    S    
C17   H12   S    
O25   Zn2   S    
C2    C18   S    
O22   Zn1   S    
C9    C10   S    
O11   S4    D    
C1    C17   S    
C3    C13   S    
O1    Zn1   S    
H4    O16   S    
C10   S4    S    
C2    N2    D    
C4    C15   S    
O26   S1    D    
O21   Zn2   S    
C14   S6    S    
O6    S2    S    
O9    S3    S    
C7    C8    S    
C16   H6    S    
O10   S4    D    
C6    C13   S    
O19   S6    S    
N1    Zn1   S    
C15   H10   S    
O15   S5    D    
C5    O24   A    
C6    C9    S    
C8    C11   S    
O16   S5    S    
C9    H8    S    
H5    O19   S    
C2    H7    S    
H14   O6    S    
C7    C12   S    
O14   S5    D    
C3    O20   A    
C14   C16   S    
C1    O12   A    
C18   N1    D    
C5    O25   A    
O23   Zn2   S    
H11   O3    S    
O2    S1    D    
O24   Zn1   S    
N2    S2    S    
H2    O9    S    
O18   S6    D    
C12   C13   S    
C1    O1    A    
C8    C9    S    
C18   H1    S    
C10   C11   S    
N2    Zn2   S    
O13   S4    S    
O5    S2    D    
O7    S3    D    
C14   C15   D    
C7    S1    S    
O20   Zn1   S    
C12   H9    S    
O4    S2    D    
C3    O21   A    
O8    S3    D    
C10   C13   S    
C4    O22   A    
C11   S5    S    
C16   C17   D    
H3    O13   S    
O17   S6    D    
