data_mof_unit_41656.cif
_audit_creation_date              2012-12-10T18:35:24-0500
_audit_creation_method            fapswitch 2.2
_symmetry_space_group_name_H-M    P1
_symmetry_Int_Tables_number       1
_space_group_crystal_system       triclinic
_cell_length_a                    15.09126
_cell_length_b                    13.998328
_cell_length_c                    10.821841
_cell_angle_alpha                 89.569663
_cell_angle_beta                  94.988591
_cell_angle_gamma                 89.921744
_cell_volume                      2277.41122608

loop_
_atom_site_label
_atom_site_type_symbol
_atom_type_description
_atom_site_fract_x
_atom_site_fract_y
_atom_site_fract_z
_atom_type_partial_charge
C1    C     C_R   0.330108 0.499751 0.504089 0.827763
C2    C     C_R   0.431304 0.795987 0.438949 0.320522
C3    C     C_R   0.448958 0.208088 0.409612 0.319742
C4    C     C_R   0.570927 0.791238 0.560376 0.316513
C5    C     C_R   0.510559 0.054593 0.487709 0.074225
C6    C     C_R   0.510668 0.946266 0.485628 0.113776
C7    C     C_R   0.510623 0.500496 0.263765 0.788537
C8    C     C_R   0.489700 0.499448 0.736321 0.796219
C9    C     C_R   0.534619 0.678663 0.112263 -0.273797
C10   C     C_R   0.465623 0.321089 0.887769 -0.283970
C11   C     C_R   0.441846 0.670529 0.879608 -0.254315
C12   C     C_R   0.669796 0.500078 0.495500 0.834558
C13   C     C_R   0.557304 0.328632 0.121165 -0.275022
C14   C     C_R   0.506684 0.763166 0.051263 0.339621
C15   C     C_R   0.491079 0.236370 0.950080 0.341496
C16   C     C_R   0.455027 0.758543 0.937856 0.342920
C17   C     C_R   0.541840 0.240459 0.064143 0.353378
C18   C     C_R   0.477337 0.585525 0.935691 0.019349
C19   C     C_R   0.523197 0.414044 0.064517 0.021059
C20   C     C_R   0.511714 0.588462 0.060650 0.018050
C21   C     C_R   0.489151 0.411184 0.939359 0.024915
C22   C     C_R   0.477871 0.498006 0.871118 -0.127956
C23   C     C_R   0.048681 0.494183 0.516988 -0.048370
C24   C     C_R   0.522942 0.501704 0.129022 -0.127997
C25   C     C_R   0.097515 0.574939 0.562697 0.436233
C26   C     C_R   0.900001 0.417543 0.438486 0.430066
C27   C     C_R   0.903398 0.586780 0.468536 0.429890
C28   C     C_R   0.097258 0.407625 0.518586 0.423515
C29   C     C_R   0.189274 0.577981 0.555088 -0.225244
C30   C     C_R   0.808736 0.416901 0.449924 -0.225708
C31   C     C_R   0.812028 0.586950 0.478417 -0.216249
C32   C     C_R   0.188438 0.410537 0.508348 -0.218171
C33   C     C_R   0.233993 0.497641 0.515844 -0.171414
C34   C     C_R   0.950456 0.499084 0.476814 -0.049031
C35   C     C_R   0.765517 0.500598 0.481272 -0.171146
C36   C     C_3   0.625502 0.251644 0.676459 -0.401651
C37   C     C_3   0.720603 0.223916 0.652352 -0.751710
C38   C     C_3   0.339335 0.759020 0.391827 -0.332699
C39   C     C_3   0.334505 0.705865 0.268799 -0.685266
C40   C     C_3   0.380282 0.253452 0.316265 -0.397232
C41   C     C_3   0.287660 0.210603 0.325026 -0.780412
C42   C     C_3   0.641582 0.744765 0.650188 -0.403024
C43   C     C_3   0.654854 0.795985 0.775161 -0.760464
C44   C     C_R   0.557690 0.105722 0.582030 -0.179017
C45   C     C_R   0.437494 0.896613 0.432812 -0.195662
C46   C     C_R   0.459268 0.108305 0.398604 -0.171901
C47   C     C_R   0.579099 0.891464 0.545051 -0.190209
C48   C     C_R   0.557554 0.206760 0.582834 0.327557
Cl1   Cl    Cl    0.583694 0.136249 0.140140 -0.479149
Cl2   Cl    Cl    0.409523 0.862027 0.863788 -0.472298
Cl3   Cl    Cl    0.460945 0.126325 0.881200 -0.472730
Cl4   Cl    Cl    0.532903 0.873252 0.122634 -0.469760
Cl5   Cl    Cl    0.053365 0.658190 0.662831 -0.498404
Cl6   Cl    Cl    0.939181 0.332303 0.336709 -0.496384
Cl7   Cl    Cl    0.949068 0.692057 0.409565 -0.498656
Cl8   Cl    Cl    0.055894 0.299981 0.577121 -0.497964
Cu1   Cu    Cu3+1 0.500000 0.596430 0.500000 0.935708
Cu2   Cu    Cu3+1 0.500000 0.403570 0.500000 0.930110
H1    H     H_    0.575400 0.684696 0.199051 0.213882
H2    H     H_    0.381621 0.937297 0.391181 0.139432
H3    H     H_    0.425160 0.072810 0.319858 0.184546
H4    H     H_    0.638352 0.927022 0.584484 0.151343
H5    H     H_    0.734712 0.148561 0.680202 0.258923
H6    H     H_    0.730693 0.232466 0.552648 0.264488
H7    H     H_    0.768780 0.270148 0.707380 0.264946
H8    H     H_    0.623215 0.329324 0.678217 0.261225
H9    H     H_    0.613172 0.227019 0.771065 0.218302
H10   H     H_    0.265423 0.709231 0.224177 0.240297
H11   H     H_    0.378384 0.740101 0.205052 0.255224
H12   H     H_    0.424967 0.315304 0.800859 0.214637
H13   H     H_    0.350329 0.629399 0.281111 0.259487
H14   H     H_    0.306663 0.722488 0.465094 0.212670
H15   H     H_    0.292202 0.819702 0.373751 0.186677
H16   H     H_    0.283001 0.138972 0.281655 0.264784
H17   H     H_    0.272776 0.203476 0.423312 0.267127
H18   H     H_    0.236580 0.257281 0.275093 0.269313
H19   H     H_    0.373508 0.330427 0.326133 0.259842
H20   H     H_    0.400152 0.241621 0.221196 0.214866
H21   H     H_    0.696024 0.861086 0.767881 0.262672
H22   H     H_    0.590053 0.816498 0.807616 0.287255
H23   H     H_    0.401756 0.669037 0.791739 0.200705
H24   H     H_    0.689970 0.748077 0.845704 0.258291
H25   H     H_    0.625451 0.671151 0.673263 0.264330
H26   H     H_    0.705889 0.745078 0.608032 0.207755
H27   H     H_    0.597258 0.329712 0.209155 0.206611
H28   H     H_    0.225971 0.639961 0.589342 0.181665
H29   H     H_    0.770697 0.353653 0.423892 0.192674
H30   H     H_    0.777062 0.654397 0.475737 0.187472
H31   H     H_    0.224380 0.344100 0.504051 0.197713
H32   H     H_    0.596787 0.067570 0.655075 0.168519
N1    N     N_R   0.500000 0.258690 0.500000 -0.209615
N2    N     N_R   0.500000 0.741310 0.500000 -0.198437
O1    O     O_R   0.371460 0.581430 0.500010 -0.592596
O2    O     O_R   0.628540 0.418570 0.499990 -0.591175
O3    O     O_R   0.628540 0.581430 0.499990 -0.607864
O4    O     O_R   0.371460 0.418570 0.500010 -0.593097
O5    O     O_R   0.499990 0.581440 0.319660 -0.580330
O6    O     O_R   0.500010 0.418560 0.680340 -0.606188
O7    O     O_R   0.500010 0.581440 0.680340 -0.596100
O8    O     O_R   0.499990 0.418560 0.319660 -0.605016

loop_
_geom_bond_atom_site_label_1
_geom_bond_atom_site_label_2
_ccdc_geom_bond_type
C11   C18   A    
C6    C45   A    
C39   H10   S    
Cu2   O6    S    
C47   H4    S    
C28   Cl8   S    
C36   H9    S    
C1    C33   S    
C45   H2    S    
C11   H23   S    
C30   C35   A    
C36   C37   S    
C19   C21   A    
C8    O7    A    
C16   Cl2   S    
C10   C15   A    
C38   C39   S    
C27   Cl7   S    
C43   H21   S    
C7    C24   S    
Cu1   O7    S    
C29   C33   A    
C3    N1    A    
Cu2   O4    S    
C8    O6    A    
C41   H16   S    
C26   C34   A    
C14   Cl4   S    
C20   C24   A    
C48   N1    A    
C37   H7    S    
C8    C22   S    
C12   O3    A    
C15   Cl3   S    
Cu2   N1    S    
C18   C20   A    
C27   C34   A    
Cu1   O1    S    
C21   C22   A    
C12   O2    A    
C26   Cl6   S    
C37   H5    S    
C10   C21   A    
C25   C29   A    
C38   H14   S    
C7    O8    A    
C13   C19   A    
C46   H3    S    
C27   C31   A    
C28   C32   A    
C42   H26   S    
C6    C47   A    
C17   Cl1   S    
C43   H22   S    
C9    H1    S    
C9    C14   A    
C41   H17   S    
C11   C16   A    
C2    C38   S    
C9    C20   A    
C32   H31   S    
C23   C34   S    
Cu1   O5    S    
C39   H11   S    
Cu2   O8    S    
C23   C28   A    
C12   C35   S    
C2    N2    A    
C29   H28   S    
C10   H12   S    
C40   C41   S    
C5    C44   A    
C3    C40   S    
C26   C30   A    
C36   H8    S    
C40   H20   S    
C42   C43   S    
C37   H6    S    
C44   H32   S    
C15   C17   A    
C31   H30   S    
C7    O5    A    
C18   C22   A    
C42   H25   S    
C25   Cl5   S    
C5    C46   A    
C3    C46   A    
C13   C17   A    
C32   C33   A    
C19   C24   A    
Cu2   O2    S    
C41   H18   S    
Cu1   Cu2   S    
C5    C6    S    
C4    C42   S    
C1    O4    A    
C31   C35   A    
C36   C48   S    
Cu1   N2    S    
C14   C16   A    
C23   C25   A    
C2    C45   A    
C1    O1    A    
Cu1   O3    S    
C13   H27   S    
C43   H24   S    
C39   H13   S    
C40   H19   S    
C30   H29   S    
C38   H15   S    
C44   C48   A    
C4    N2    A    
C4    C47   A    
