data_mof_unit_18953.cif
_audit_creation_date              2012-12-10T20:02:29-0500
_audit_creation_method            fapswitch 2.2
_symmetry_space_group_name_H-M    P1
_symmetry_Int_Tables_number       1
_space_group_crystal_system       triclinic
_cell_length_a                    18.33599
_cell_length_b                    18.399049
_cell_length_c                    18.520272
_cell_angle_alpha                 120.242621
_cell_angle_beta                  120.519112
_cell_angle_gamma                 89.529443
_cell_volume                      4385.11853821

loop_
_atom_site_label
_atom_site_type_symbol
_atom_type_description
_atom_site_fract_x
_atom_site_fract_y
_atom_site_fract_z
_atom_type_partial_charge
C1    C     C_R   0.140138 0.140067 0.779702 0.511318
C2    C     C_R   0.708876 0.770909 0.431755 -0.059438
C3    C     C_R   0.842019 0.827757 0.774413 -0.129329
C4    C     C_R   0.859783 0.858185 0.219798 0.526564
C5    C     C_R   0.882885 0.835002 0.865979 -0.159124
C6    C     C_R   0.915030 0.768343 0.872878 -0.114518
C7    C     C_R   0.906258 0.693169 0.787895 0.128933
C8    C     C_R   0.865744 0.685486 0.694423 0.352544
C9    C     C_R   0.832688 0.753500 0.688423 0.070017
C10   C     C_R   0.718750 0.802302 0.051287 -0.028802
C11   C     C_R   0.804907 0.800565 0.107594 0.009259
C12   C     C_R   0.609557 0.694245 0.239747 0.251122
C13   C     C_R   0.839918 0.747829 0.054048 0.072277
C14   C     C_R   0.784440 0.691394 0.945910 0.243978
C15   C     C_R   0.698578 0.697751 0.890970 -0.004121
C16   C     C_R   0.859586 0.139638 0.500191 0.520031
C17   C     C_R   0.668298 0.756699 0.945176 -0.110684
C18   C     C_3   0.580434 0.736423 0.929873 -0.178336
C19   C     C_3   0.636113 0.777749 0.044671 0.377782
C20   C     C_R   0.229868 0.782972 0.571180 0.022673
C21   C     C_R   0.201890 0.810320 0.506084 0.036609
C22   C     C_R   0.238291 0.792260 0.450216 -0.169902
C23   C     C_R   0.543312 0.696920 0.158426 -0.071458
C24   C     C_R   0.292204 0.738288 0.450243 -0.167024
C25   C     C_R   0.310647 0.702171 0.506545 0.013565
C26   C     C_R   0.284315 0.730800 0.572619 0.000804
C27   C     C_3   0.238432 0.679296 0.589020 -0.020459
C28   C     C_R   0.140152 0.860331 0.500273 0.518623
C29   C     C_3   0.178173 0.737338 0.587355 0.002004
C30   C     C_R   0.233728 0.162221 0.947863 -0.016320
C31   C     C_R   0.196377 0.196856 0.890946 0.027986
C32   C     C_R   0.215288 0.290182 0.946167 -0.161167
C33   C     C_R   0.269134 0.344091 0.054338 -0.161966
C34   C     C_R   0.530862 0.776840 0.173533 -0.149135
C35   C     C_R   0.304638 0.305505 0.109004 0.024057
C36   C     C_R   0.284594 0.213716 0.051571 0.061594
C37   C     C_3   0.298538 0.136875 0.058375 0.155182
C38   C     C_3   0.240571 0.078201 0.939781 -0.215482
C39   C     C_R   0.220889 0.287190 0.558877 -0.003993
C40   C     C_R   0.139987 0.139998 0.500118 0.507219
C41   C     C_R   0.197044 0.194871 0.500670 0.026880
C42   C     C_R   0.230942 0.155973 0.441287 -0.161287
C43   C     C_R   0.285064 0.209692 0.441132 -0.168731
C44   C     C_R   0.306381 0.303331 0.500460 0.028883
C45   C     C_R   0.658862 0.719474 0.436131 -0.182706
C46   C     C_R   0.273059 0.338717 0.558887 0.054128
C47   C     C_3   0.266271 0.423067 0.628220 -0.027356
C48   C     C_3   0.205853 0.363993 0.627182 -0.266111
C49   C     C_R   0.827172 0.273616 0.593377 0.030957
C50   C     C_R   0.801450 0.192993 0.502493 0.059832
C51   C     C_R   0.713991 0.160501 0.413746 -0.146959
C52   C     C_R   0.859361 0.862142 0.502015 0.541880
C53   C     C_R   0.660267 0.214818 0.413503 -0.157595
C54   C     C_R   0.693756 0.302027 0.501958 0.033355
C55   C     C_R   0.774342 0.326922 0.592970 -0.053317
C56   C     C_R   0.699021 0.704639 0.511903 -0.027465
C57   C     C_3   0.853236 0.410390 0.675945 -0.215980
C58   C     C_3   0.912035 0.351404 0.678877 0.155227
C59   C     C_R   0.360414 0.640261 0.500315 0.503828
C60   C     C_R   0.639961 0.359853 0.499965 0.499361
C61   C     C_R   0.640408 0.640568 0.779613 0.507073
C62   C     C_R   0.360143 0.360135 0.220217 0.514413
C63   C     C_R   0.360383 0.359842 0.499921 0.514835
C64   C     C_R   0.581447 0.856614 0.272285 0.115197
C65   C     C_R   0.640911 0.642773 0.503670 0.519401
C66   C     C_R   0.640894 0.854657 0.357092 0.318269
C67   C     C_R   0.791470 0.750809 0.593901 0.004638
C68   C     C_R   0.657539 0.774300 0.341638 0.021752
C69   C     C_3   0.926104 0.587915 0.618216 0.017287
C70   C     C_3   0.918104 0.546588 0.518118 -0.264694
C71   C     C_3   0.841083 0.457885 0.430687 -0.397333
C72   C     C_3   0.765969 0.541289 0.851337 0.020816
C73   C     C_3   0.825509 0.504382 0.909403 -0.286599
C74   C     C_3   0.782199 0.404173 0.849763 -0.490634
C75   C     C_3   0.655526 0.640008 0.024835 0.005989
C76   C     C_3   0.588437 0.556120 0.982306 -0.275097
C77   C     C_3   0.606584 0.471981 0.924919 -0.493824
C78   C     C_R   0.843511 0.805144 0.592239 0.221281
C79   C     C_3   0.310093 0.112110 0.175073 0.036000
C80   C     C_3   0.310536 0.015951 0.130681 -0.290383
C81   C     C_3   0.368871 0.003927 0.216123 -0.496391
C82   C     C_3   0.638283 0.942763 0.496561 0.000533
C83   C     C_3   0.679775 0.037524 0.593986 -0.247184
C84   C     C_3   0.630228 0.052331 0.643440 -0.489150
C85   C     C_3   0.700299 0.602832 0.264524 0.010344
C86   C     C_3   0.766044 0.640957 0.254192 -0.290448
C87   C     C_3   0.861431 0.646637 0.325540 -0.473672
C88   C     C_3   0.056924 0.393622 0.726353 0.033923
C89   C     C_R   0.802907 0.812312 0.508284 0.031035
C90   C     C_3   0.088874 0.495448 0.800710 -0.289800
C91   C     C_3   0.190313 0.533347 0.881471 -0.489438
C92   C     C_3   0.993655 0.818076 0.687318 0.027399
C93   C     C_3   0.058049 0.846623 0.798267 -0.270607
C94   C     C_3   0.144865 0.826463 0.819010 -0.494269
H1    H     H_    0.481439 0.776321 0.107752 0.137448
H2    H     H_    0.282257 0.415401 0.094547 0.143387
H3    H     H_    0.370016 0.139377 0.094378 0.076163
H4    H     H_    0.278410 0.047384 0.907432 0.086565
H5    H     H_    0.174405 0.032988 0.902232 0.172173
H6    H     H_    0.215541 0.084396 0.394647 0.141676
H7    H     H_    0.309594 0.177826 0.394480 0.128165
H8    H     H_    0.331511 0.469761 0.704092 0.146933
H9    H     H_    0.236512 0.375242 0.702922 0.113941
H10   H     H_    0.134406 0.360173 0.586376 0.141333
H11   H     H_    0.689144 0.095576 0.343203 0.151502
H12   H     H_    0.946355 0.774642 0.944407 0.131674
H13   H     H_    0.594896 0.190420 0.342878 0.124679
H14   H     H_    0.859264 0.448902 0.647500 0.199483
H15   H     H_    0.856600 0.448801 0.747270 0.091926
H16   H     H_    0.946145 0.353731 0.750331 0.080648
H17   H     H_    0.500833 0.635988 0.081626 0.134672
H18   H     H_    0.587263 0.687463 0.375963 0.169813
H19   H     H_    0.817641 0.880346 0.770348 0.126808
H20   H     H_    0.889707 0.892523 0.931886 0.126130
H21   H     H_    0.007165 0.653827 0.855420 0.201065
H22   H     H_    0.907395 0.603992 0.820712 0.270763
H23   H     H_    0.540237 0.776051 0.907156 0.117634
H24   H     H_    0.933263 0.538298 0.636374 0.177746
H25   H     H_    0.988644 0.646820 0.681059 0.091914
H26   H     H_    0.906908 0.593229 0.495196 0.147410
H27   H     H_    0.981958 0.535113 0.530942 0.109958
H28   H     H_    0.851102 0.409767 0.451482 0.162316
H29   H     H_    0.838749 0.429334 0.360252 0.116246
H30   H     H_    0.775919 0.467922 0.413731 0.189666
H31   H     H_    0.927678 0.683623 0.091571 0.229692
H32   H     H_    0.963730 0.762727 0.084568 0.239930
H33   H     H_    0.744509 0.498702 0.770572 0.172026
H34   H     H_    0.541259 0.664327 0.879320 0.142888
H35   H     H_    0.703525 0.535281 0.847707 0.092938
H36   H     H_    0.891736 0.517435 0.922643 0.164792
H37   H     H_    0.836174 0.538190 0.985020 0.145241
H38   H     H_    0.716208 0.389647 0.836488 0.146514
H39   H     H_    0.826399 0.379839 0.894632 0.147910
H40   H     H_    0.772427 0.367717 0.774458 0.145933
H41   H     H_    0.661738 0.886034 0.178668 0.281788
H42   H     H_    0.626000 0.903346 0.087186 0.190661
H43   H     H_    0.724114 0.649833 0.084441 0.131345
H44   H     H_    0.656872 0.626817 0.960737 0.113844
H45   H     H_    0.222137 0.816340 0.403023 0.143245
H46   H     H_    0.592879 0.559820 0.045918 0.205013
H47   H     H_    0.519199 0.551175 0.928750 0.158074
H48   H     H_    0.596055 0.462610 0.855794 0.140408
H49   H     H_    0.559576 0.412996 0.899593 0.152937
H50   H     H_    0.676489 0.476495 0.975833 0.142521
H51   H     H_    0.532242 0.931321 0.217167 0.217309
H52   H     H_    0.538677 0.960827 0.322366 0.217639
H53   H     H_    0.336674 0.763094 0.746483 0.225164
H54   H     H_    0.340205 0.658884 0.688083 0.274861
H55   H     H_    0.056550 0.648243 0.510408 0.214627
H56   H     H_    0.316073 0.722020 0.402906 0.142081
H57   H     H_    0.079552 0.644188 0.431471 0.226856
H58   H     H_    0.282830 0.127698 0.220842 0.161043
H59   H     H_    0.379671 0.160454 0.229691 0.153849
H60   H     H_    0.240747 0.969836 0.080260 0.171569
H61   H     H_    0.336752 0.998372 0.083605 0.150752
H62   H     H_    0.439236 0.048774 0.266682 0.151258
H63   H     H_    0.368014 0.933802 0.181782 0.141295
H64   H     H_    0.342829 0.019173 0.263009 0.144916
H65   H     H_    0.641799 0.894906 0.517122 0.133961
H66   H     H_    0.566404 0.931287 0.441614 0.110094
H67   H     H_    0.203634 0.607019 0.524877 0.163494
H68   H     H_    0.751316 0.049695 0.650042 0.176165
H69   H     H_    0.677088 0.086059 0.574478 0.175700
H70   H     H_    0.558844 0.042031 0.589311 0.146270
H71   H     H_    0.662030 0.121720 0.713826 0.145910
H72   H     H_    0.633493 0.005517 0.665265 0.148355
H73   H     H_    0.158011 0.418355 0.506250 0.232496
H74   H     H_    0.202852 0.513828 0.623097 0.236023
H75   H     H_    0.690944 0.530478 0.226490 0.147013
H76   H     H_    0.730146 0.627607 0.344848 0.144791
H77   H     H_    0.745433 0.595356 0.174287 0.145762
H78   H     H_    0.186345 0.782928 0.661219 0.157330
H79   H     H_    0.766644 0.708371 0.272139 0.191930
H80   H     H_    0.885108 0.690957 0.407053 0.158731
H81   H     H_    0.907438 0.674199 0.316480 0.160328
H82   H     H_    0.863857 0.579299 0.306276 0.140326
H83   H     H_    0.093507 0.375994 0.690752 0.158036
H84   H     H_    0.074627 0.361786 0.768073 0.128280
H85   H     H_    0.070796 0.525030 0.756862 0.166583
H86   H     H_    0.055296 0.514426 0.840256 0.157289
H87   H     H_    0.210011 0.505095 0.926813 0.145315
H88   H     H_    0.211260 0.606975 0.934644 0.146208
H89   H     H_    0.188395 0.321554 0.906405 0.128275
H90   H     H_    0.225614 0.517518 0.844020 0.144474
H91   H     H_    0.033699 0.838090 0.667323 0.194213
H92   H     H_    0.963848 0.744278 0.634164 0.107420
H93   H     H_    0.074277 0.918985 0.852881 0.195444
H94   H     H_    0.025738 0.811564 0.813913 0.151522
H95   H     H_    0.130065 0.754919 0.762290 0.146586
H96   H     H_    0.186793 0.841977 0.897368 0.145650
H97   H     H_    0.183509 0.868143 0.814437 0.141880
N1    N     N_3   0.938234 0.625138 0.797078 -0.668190
N2    N     N_3   0.929855 0.747409 0.109177 -0.583606
N3    N     N_3   0.616050 0.856099 0.099872 -0.598868
N4    N     N_3   0.572438 0.940001 0.287840 -0.600509
N5    N     N_3   0.296778 0.695751 0.690248 -0.650668
N6    N     N_3   0.083988 0.687551 0.498864 -0.647424
N7    N     N_3   0.218731 0.465113 0.577065 -0.610613
O1    O     O_3   0.000000 0.000000 0.500000 -0.449843
O2    O     O_R   0.384160 0.323450 0.268320 -0.540415
O3    O     O_R   0.384130 0.444860 0.560610 -0.522988
O4    O     O_R   0.115780 0.055050 0.731580 -0.540867
O5    O     O_R   0.555060 0.615780 0.439210 -0.553790
O6    O     O_R   0.384140 0.323430 0.439180 -0.562862
O7    O     O_R   0.676490 0.615760 0.560640 -0.507771
O8    O     O_R   0.676470 0.615740 0.731500 -0.510618
O9    O     O_R   0.384180 0.444900 0.268330 -0.548434
O10   O     O_R   0.384150 0.615750 0.560620 -0.544474
O11   O     O_R   0.555030 0.323430 0.439190 -0.566521
O12   O     O_R   0.823480 0.055090 0.439280 -0.528958
O13   O     O_R   0.823490 0.884220 0.268410 -0.553477
O14   O     O_R   0.944920 0.176520 0.560720 -0.518093
O15   O     O_R   0.115810 0.884200 0.439290 -0.552042
O16   O     O_R   0.115820 0.176530 0.560730 -0.547937
O17   O     O_R   0.944890 0.884180 0.560700 -0.528795
O18   O     O_R   0.115830 0.055100 0.439300 -0.550991
O19   O     O_R   0.823460 0.884190 0.439270 -0.517190
O20   O     O_3   0.847782 0.609151 0.604938 -0.544500
O21   O     O_3   0.814825 0.629082 0.895945 -0.576923
O22   O     O_3   0.631822 0.716388 0.069506 -0.538434
O23   O     O_R   0.115790 0.884180 0.560710 -0.538100
O24   O     O_3   0.253250 0.121748 0.095291 -0.552168
O25   O     O_3   0.687404 0.933218 0.455116 -0.526962
O26   O     O_3   0.613142 0.609441 0.215162 -0.589585
O27   O     O_3   0.964400 0.359511 0.646011 -0.552030
O28   O     O_3   0.929373 0.862645 0.680307 -0.553328
O29   O     O_R   0.115790 0.176500 0.731590 -0.563653
O30   O     O_R   0.944940 0.884220 0.268420 -0.505959
O31   O     O_3   0.499960 0.499960 0.499910 -0.443185
O32   O     O_R   0.384170 0.615770 0.439200 -0.551809
O33   O     O_R   0.676480 0.444870 0.560630 -0.533199
O34   O     O_R   0.555020 0.615730 0.731490 -0.568786
Zn1   Zn    Zn3+2 0.869870 0.956630 0.413250 0.961660
Zn2   Zn    Zn3+2 0.043380 0.130130 0.586750 0.923844
Zn3   Zn    Zn3+2 0.043390 0.956630 0.413260 0.930926
Zn4   Zn    Zn3+2 0.043360 0.956610 0.586740 0.931435
Zn5   Zn    Zn3+2 0.630090 0.543330 0.586660 0.961069
Zn6   Zn    Zn3+2 0.456570 0.543320 0.586650 0.917190
Zn7   Zn    Zn3+2 0.456580 0.369830 0.413160 0.908754
Zn8   Zn    Zn3+2 0.456590 0.543350 0.413170 0.926711

loop_
_geom_bond_atom_site_label_1
_geom_bond_atom_site_label_2
_ccdc_geom_bond_type
C59   O10   A    
C78   O28   S    
C66   C68   A    
C64   N4    S    
C41   C42   A    
C93   C94   S    
C74   H38   S    
C5    H20   S    
C27   C29   S    
C60   O33   A    
C58   H16   S    
C73   C74   S    
H57   N6    S    
C32   H89   S    
O32   Zn8   S    
C35   C36   A    
C70   H27   S    
C38   H4    S    
C37   H3    S    
C57   C58   S    
C45   H18   S    
C7    C8    A    
C39   C41   A    
C54   C60   S    
C53   C54   A    
C87   H82   S    
C12   C68   A    
C12   C23   A    
H55   N6    S    
C26   C27   S    
C81   H62   S    
H74   N7    S    
C80   H61   S    
C38   H5    S    
H51   N4    S    
C71   H29   S    
C36   C37   S    
C16   C50   S    
C37   O24   S    
O1    Zn3   S    
O1    Zn1   S    
C5    C6    A    
C92   H92   S    
C65   O7    A    
C10   C17   A    
C56   C65   S    
C48   H10   S    
C74   H39   S    
C69   H24   S    
C1    C31   S    
C61   O34   A    
C30   C38   S    
C18   C19   S    
C46   C47   S    
O12   Zn1   S    
C87   H80   S    
C94   H97   S    
C12   O26   S    
O30   Zn3   S    
C75   C76   S    
C84   H71   S    
C71   H28   S    
C18   H34   S    
C77   H48   S    
H54   N5    S    
C57   H15   S    
C47   C48   S    
C45   C56   A    
C70   H26   S    
C8    C9    A    
C88   H83   S    
C47   N7    S    
C70   C71   S    
H31   N2    S    
O31   Zn7   S    
C60   O11   A    
C43   H7    S    
C84   H70   S    
C61   O8    A    
C39   C48   S    
C76   H47   S    
C1    O29   A    
H22   N1    S    
C92   O28   S    
C2    C45   A    
C47   H8    S    
C13   N2    S    
C13   C14   A    
O34   Zn6   S    
C52   C89   S    
O16   Zn2   S    
C67   C78   A    
C34   H1    S    
O6    Zn7   S    
C1    O4    A    
C90   H85   S    
C44   C46   A    
C50   C51   A    
C20   C29   S    
C76   H46   S    
C78   C89   A    
C6    H12   S    
C90   H86   S    
C73   H37   S    
C81   H63   S    
C63   O6    A    
C72   H33   S    
O15   Zn3   S    
C69   O20   S    
C71   H30   S    
C72   H35   S    
C8    O20   S    
C24   C25   A    
C75   H43   S    
O1    Zn2   S    
O19   Zn1   S    
C92   H91   S    
C80   C81   S    
C82   O25   S    
C72   O21   S    
C25   C26   A    
C85   C86   S    
C48   H9    S    
C77   H49   S    
C69   H25   S    
C52   O17   A    
C85   H75   S    
C49   C58   S    
C86   H77   S    
O31   Zn8   S    
C64   C66   A    
C2    C89   A    
C43   C44   A    
C9    C67   S    
H42   N3    S    
C37   C38   S    
C3    C9    A    
C42   H6    S    
C79   H59   S    
C82   H66   S    
C53   H13   S    
C83   C84   S    
C65   O5    A    
C88   O27   S    
C16   O14   A    
C10   C19   S    
C51   H11   S    
C23   C34   A    
C40   O18   A    
C34   C64   A    
C17   C18   S    
C15   C61   S    
H53   N5    S    
C22   H45   S    
C76   C77   S    
C4    C11   S    
O7    Zn5   S    
C4    O13   A    
C18   H23   S    
O5    Zn8   S    
C58   O27   S    
C24   H56   S    
O9    Zn8   S    
C39   C46   A    
H21   N1    S    
C93   H93   S    
C40   C41   S    
C83   H68   S    
C88   C90   S    
C49   C50   A    
C29   N6    S    
C91   H87   S    
O23   Zn4   S    
C3    H19   S    
C22   C24   A    
C7    N1    S    
C28   O15   A    
C42   C43   A    
O10   Zn6   S    
C33   H2    S    
C62   O9    A    
C23   H17   S    
O2    Zn7   S    
C79   O24   S    
C94   H96   S    
C54   C55   A    
C15   C17   A    
O29   Zn2   S    
C83   H69   S    
C73   H36   S    
C81   H64   S    
C63   O3    A    
O8    Zn5   S    
C86   C87   S    
C21   C28   S    
C31   C32   A    
O17   Zn4   S    
O11   Zn7   S    
C72   C73   S    
C3    C5    A    
C75   H44   S    
O14   Zn2   S    
C80   H60   S    
C6    C7    A    
C27   N5    S    
C56   C67   A    
C87   H81   S    
C28   O23   A    
C2    C68   S    
C85   H76   S    
C30   C36   A    
O33   Zn5   S    
C86   H79   S    
C32   C33   A    
C55   C57   S    
H52   N4    S    
C94   H95   S    
C62   O2    A    
C49   C55   A    
O1    Zn4   S    
C27   H67   S    
H41   N3    S    
C82   H65   S    
C11   C13   A    
H32   N2    S    
C90   C91   S    
C30   C31   A    
C20   C26   A    
C75   O22   S    
C74   H40   S    
O3    Zn6   S    
C16   O12   A    
C92   C93   S    
C33   C35   A    
H73   N7    S    
C35   C62   S    
C4    O30   A    
C29   H78   S    
C69   C70   S    
C14   O21   S    
C85   O26   S    
C77   H50   S    
C84   H72   S    
C10   C11   A    
C51   C53   A    
O4    Zn4   S    
C79   C80   S    
C93   H94   S    
O13   Zn1   S    
C57   H14   S    
C20   C21   A    
C19   N3    S    
C44   C63   S    
C91   H88   S    
C40   O16   A    
O18   Zn3   S    
C14   C15   A    
C66   O25   S    
C19   O22   S    
C25   C59   S    
C82   C83   S    
O31   Zn6   S    
C21   C22   A    
C59   O32   A    
O31   Zn5   S    
C88   H84   S    
C52   O19   A    
C91   H90   S    
C79   H58   S    
