data_mof_unit_5702.cif
_audit_creation_date              2012-12-10T18:59:16-0500
_audit_creation_method            fapswitch 2.2
_symmetry_space_group_name_H-M    P1
_symmetry_Int_Tables_number       1
_space_group_crystal_system       triclinic
_cell_length_a                    10.837674
_cell_length_b                    10.835587
_cell_length_c                    9.551694
_cell_angle_alpha                 89.474987
_cell_angle_beta                  88.049959
_cell_angle_gamma                 91.113893
_cell_volume                      1120.76426407

loop_
_atom_site_label
_atom_site_type_symbol
_atom_type_description
_atom_site_fract_x
_atom_site_fract_y
_atom_site_fract_z
_atom_type_partial_charge
C1    C     C_R   0.497893 0.262504 0.500507 0.842176
C2    C     C_R   0.054684 0.469960 0.634398 0.006255
C3    C     C_R   0.125877 0.505065 0.511335 -0.098331
C4    C     C_R   0.066195 0.525470 0.385935 -0.135300
C5    C     C_R   0.939845 0.510378 0.379805 -0.175340
C6    C     C_R   0.870260 0.468968 0.496846 -0.070879
C7    C     C_R   0.484670 0.062723 0.625988 0.173060
C8    C     C_R   0.500781 0.129430 0.500872 -0.065167
C9    C     C_R   0.521330 0.066030 0.375163 -0.199295
C10   C     C_R   0.517041 0.937957 0.374605 -0.227571
C11   C     C_R   0.495707 0.871096 0.499745 -0.090972
C12   C     C_R   0.261559 0.504267 0.503380 0.774730
C13   C     C_R   0.481032 0.935182 0.625608 0.105403
C14   C     C_3   0.376604 0.930148 0.733869 -0.085730
C15   C     C_3   0.382455 0.070727 0.734063 -0.479457
C16   C     C_R   0.594943 0.557766 0.068794 0.165556
C17   C     C_R   0.417513 0.429777 0.078399 -0.020786
C18   C     C_R   0.417814 0.429408 0.929515 -0.061021
C19   C     C_R   0.591970 0.559070 0.921543 0.243310
C20   C     C_3   0.627432 0.690934 0.906486 0.123878
C21   C     C_3   0.636687 0.692793 0.066531 -0.201467
C22   C     C_R   0.496485 0.737542 0.499783 0.797346
C23   C     C_R   0.736703 0.486841 0.498464 0.875269
C24   C     C_R   0.100682 0.470135 0.771583 -0.224675
C25   C     C_R   0.034617 0.412148 0.882340 0.353492
C26   C     C_R   0.924041 0.350768 0.858237 -0.184292
C27   C     C_R   0.872462 0.357971 0.727023 0.333126
C28   C     C_R   0.930544 0.431671 0.619097 0.054219
Cu1   Cu    Cu3+1 0.499990 0.499980 0.640670 0.996686
Cu2   Cu    Cu3+1 0.500010 0.500020 0.359330 0.962409
H1    H     H_    0.117310 0.556291 0.292326 0.206289
H2    H     H_    0.404324 0.889363 0.834806 0.161546
H3    H     H_    0.299778 0.116560 0.693324 0.194339
H4    H     H_    0.415430 0.109142 0.833943 0.198701
H5    H     H_    0.349632 0.374395 0.137493 0.190692
H6    H     H_    0.350104 0.373672 0.876875 0.161363
H7    H     H_    0.550775 0.747148 0.869224 0.112616
H8    H     H_    0.566678 0.753561 0.114923 0.157200
H9    H     H_    0.183854 0.519189 0.797806 0.197915
H10   H     H_    0.878730 0.296140 0.941225 0.196159
H11   H     H_    0.896347 0.532773 0.283505 0.183917
H12   H     H_    0.536778 0.114940 0.276510 0.172911
H13   H     H_    0.527814 0.892112 0.275658 0.162494
N1    N     N_R   0.500790 0.500930 0.147930 -0.204023
N2    N     N_R   0.500790 0.500890 0.852020 -0.211504
O1    O     O_R   0.500000 0.319640 0.618810 -0.541866
O2    O     O_R   0.500010 0.319680 0.381230 -0.596679
O3    O     O_R   0.319640 0.499980 0.618820 -0.613699
O4    O     O_R   0.319650 0.500020 0.381230 -0.571976
O5    O     O_R   0.499990 0.680320 0.618770 -0.573369
O6    O     O_R   0.500000 0.680360 0.381190 -0.592999
O7    O     O_R   0.680350 0.499980 0.618770 -0.503381
O8    O     O_R   0.680360 0.500020 0.381180 -0.596756
Cl1   Cl    Cl    0.765869 0.709316 0.798899 -0.637066
C29   C     C_3   0.770363 0.718383 0.113804 -0.283716
C30   C     C_3   0.778176 0.771543 0.260525 -0.822014
H14   H     H_    0.744135 0.867344 0.261492 0.254205
H15   H     H_    0.725015 0.715657 0.338801 0.285535
H16   H     H_    0.876109 0.774838 0.291132 0.241290
H17   H     H_    0.825751 0.633853 0.103161 0.222357
H18   H     H_    0.815897 0.790003 0.045013 0.259769
Cl2   Cl    Cl    0.094736 0.408126 0.049898 -0.728613
Cl3   Cl    Cl    0.752814 0.251363 0.694920 -0.638197
C31   C     C_3   0.255087 0.874620 0.680451 -0.383219
C32   C     C_3   0.150346 0.883177 0.790608 -0.747614
H19   H     H_    0.174436 0.833333 0.887787 0.244408
H20   H     H_    0.131912 0.981143 0.815574 0.261876
H21   H     H_    0.065016 0.840227 0.749957 0.272752
H22   H     H_    0.228347 0.922247 0.582688 0.217648
H23   H     H_    0.268288 0.775590 0.656279 0.204078

loop_
_geom_bond_atom_site_label_1
_geom_bond_atom_site_label_2
_ccdc_geom_bond_type
C7    C13   A    
C29   C30   S    
C19   N2    A    
C15   H4    S    
C23   O8    A    
Cu1   Cu2   S    
C31   H23   S    
C1    C8    S    
C9    C10   A    
C16   N1    A    
C11   C22   S    
C19   C20   S    
C30   H16   S    
C12   O3    A    
Cu1   O1    S    
C22   O5    A    
C32   H21   S    
C14   C31   S    
C31   C32   S    
C20   C21   S    
C7    C15   S    
C12   O4    A    
C23   O7    A    
C17   N1    A    
C7    C8    A    
C31   H22   S    
C24   C25   A    
C20   H7    S    
C11   C13   A    
Cu2   N1    S    
C26   C27   A    
C16   C21   S    
C27   Cl3   S    
Cu1   O5    S    
C16   C19   A    
C9    H12   S    
C6    C23   S    
C29   H18   S    
Cu2   O4    S    
C30   H15   S    
C17   C18   A    
C2    C3    A    
C25   Cl2   S    
C2    C24   A    
C5    C6    A    
Cu2   O8    S    
C1    O1    A    
C22   O6    A    
C4    H1    S    
C10   C11   A    
Cu1   O3    S    
C3    C4    A    
Cu2   O6    S    
C18   N2    A    
Cu2   O2    S    
C26   H10   S    
C24   H9    S    
C30   H14   S    
C20   Cl1   S    
C32   H19   S    
C10   H13   S    
Cu1   N2    S    
C27   C28   A    
C21   C29   S    
C5    H11   S    
C14   C15   S    
C1    O2    A    
C2    C28   A    
C3    C12   S    
C17   H5    S    
C13   C14   S    
C25   C26   A    
C29   H17   S    
C4    C5    A    
C18   H6    S    
C15   H3    S    
C6    C28   A    
C21   H8    S    
C14   H2    S    
C8    C9    A    
C32   H20   S    
Cu1   O7    S    
