data_mof_unit_47553.cif
_audit_creation_date              2012-12-10T17:32:59-0500
_audit_creation_method            fapswitch 2.2
_symmetry_space_group_name_H-M    P1
_symmetry_Int_Tables_number       1
_space_group_crystal_system       triclinic
_cell_length_a                    12.358964
_cell_length_b                    13.21165
_cell_length_c                    14.196642
_cell_angle_alpha                 93.388797
_cell_angle_beta                  107.541406
_cell_angle_gamma                 116.874305
_cell_volume                      1918.85122381

loop_
_atom_site_label
_atom_site_type_symbol
_atom_type_description
_atom_site_fract_x
_atom_site_fract_y
_atom_site_fract_z
_atom_type_partial_charge
C1    C     C_R   0.651373 0.714580 0.509726 0.778416
C2    C     C_R   0.873968 0.533994 0.923153 0.086393
C3    C     C_R   0.834505 0.563014 0.999699 0.155238
C4    C     C_R   0.986184 0.520841 0.949983 0.055981
C5    C     C_R   0.043652 0.515822 0.051112 0.107561
C6    C     C_R   0.004419 0.547560 0.126425 -0.129860
C7    C     C_R   0.902311 0.572164 0.101069 -0.204273
C8    C     C_R   0.046194 0.517949 0.880134 -0.215777
C9    C     C_R   0.157907 0.508235 0.908808 -0.203152
C10   C     C_R   0.209032 0.494559 0.005860 0.087022
C11   C     C_R   0.146349 0.488675 0.075479 0.090826
C12   C     C_R   0.619458 0.518301 0.687170 0.803176
C13   C     C_R   0.323639 0.488435 0.034155 -0.178994
C14   C     C_R   0.383838 0.485790 0.133769 0.011633
C15   C     C_R   0.189495 0.456039 0.166667 -0.063328
C16   C     C_R   0.130317 0.962456 0.357035 -0.164725
C17   C     C_R   0.248307 0.159411 0.460959 -0.149073
C18   C     C_R   0.736289 0.922210 0.582326 -0.181002
C19   C     C_R   0.828250 0.039217 0.602955 -0.135702
C20   C     C_R   0.926291 0.074023 0.563319 -0.178767
C21   C     C_R   0.931151 0.991824 0.498251 0.087385
C22   C     C_R   0.827882 0.874855 0.467990 0.085194
C23   C     C_R   0.344805 0.284317 0.483978 0.801893
C24   C     C_R   0.034930 0.021220 0.462309 0.079097
C25   C     C_R   0.027017 0.937005 0.389965 0.120227
C26   C     C_R   0.916052 0.827459 0.351200 -0.224842
C27   C     C_R   0.817302 0.797308 0.388796 -0.191519
C28   C     C_R   0.147604 0.130890 0.497747 -0.249577
C29   C     C_R   0.242720 0.072179 0.393068 0.000384
C30   C     C_R   0.737041 0.838688 0.517143 -0.104200
C31   C     C_R   0.253196 0.685238 0.662437 -0.303899
C32   C     C_R   0.655809 0.344472 0.361280 0.060447
C33   C     C_R   0.733727 0.310503 0.330405 -0.192364
C34   C     C_R   0.381241 0.482051 0.312382 0.767241
C35   C     C_R   0.868471 0.368435 0.382837 -0.190687
C36   C     C_R   0.927913 0.462480 0.467099 -0.019312
C37   C     C_R   0.843635 0.494446 0.495928 0.289122
C38   C     C_R   0.067331 0.526477 0.523214 -0.032470
C39   C     C_R   0.118591 0.620882 0.606090 0.173249
C40   C     C_R   0.035565 0.651111 0.632406 -0.295120
C41   C     C_R   0.901817 0.589729 0.578734 -0.191080
C42   C     C_R   0.159353 0.501733 0.501335 0.020235
C43   C     C_R   0.337824 0.656854 0.636812 0.064616
C44   C     C_R   0.690862 0.533937 0.795244 -0.060855
C45   C     C_R   0.318381 0.474510 0.203284 -0.216555
C46   C     C_R   0.727629 0.582515 0.973502 -0.130944
C47   C     C_R   0.656523 0.568711 0.871752 -0.185261
C48   C     C_R   0.797902 0.515798 0.821603 -0.249405
Cu1   Cu    Cu3+1 0.416420 0.526630 0.522910 0.935644
Cu2   Cu    Cu3+1 0.583580 0.473370 0.477090 0.922046
H1    H     H_    0.874692 0.596090 0.160754 0.144369
H2    H     H_    0.159807 0.196944 0.554519 0.156906
H3    H     H_    0.666283 0.896748 0.619516 0.152192
H4    H     H_    0.994919 0.166074 0.583553 0.129704
H5    H     H_    0.826145 0.103078 0.652741 0.148384
H6    H     H_    0.731771 0.713002 0.353819 0.153003
H7    H     H_    0.441599 0.706543 0.680263 0.121162
H8    H     H_    0.074542 0.723582 0.695680 0.161866
H9    H     H_    0.292867 0.757432 0.726077 0.146368
H10   H     H_    0.128477 0.430706 0.440323 0.113256
H11   H     H_    0.551742 0.299605 0.319146 0.154527
H12   H     H_    0.923831 0.338467 0.355490 0.160750
H13   H     H_    0.689405 0.239015 0.265220 0.180201
H14   H     H_    0.847810 0.620943 0.604959 0.207708
H15   H     H_    0.699110 0.608350 0.031646 0.157747
H16   H     H_    0.574474 0.584223 0.853048 0.149604
H17   H     H_    0.054945 0.556929 0.206040 0.151129
H18   H     H_    0.014336 0.531168 0.804696 0.151790
N1    N     N_R   0.290690 0.566960 0.557640 -0.176519
N2    N     N_R   0.709100 0.433710 0.442970 -0.215904
O1    O     O_R   0.545970 0.684450 0.528810 -0.574180
O2    O     O_R   0.687130 0.639470 0.490120 -0.602575
O3    O     O_R   0.519670 0.535100 0.660030 -0.581617
O4    O     O_R   0.660830 0.490120 0.621340 -0.600482
O5    O     O_R   0.312870 0.360530 0.509880 -0.579389
O6    O     O_R   0.454030 0.315550 0.471190 -0.600048
O7    O     O_R   0.339170 0.509880 0.378660 -0.584856
O8    O     O_R   0.480330 0.464900 0.339970 -0.594468
H19   H     H_    0.371360 0.494245 0.980202 0.162613
C49   C     C_2   0.351257 0.090467 0.359187 0.345481
H20   H     H_    0.451792 0.145112 0.409812 0.095584
O9    O     O_2   0.329284 0.040647 0.274777 -0.545609
H21   H     H_    0.906245 0.764017 0.292550 0.135918
H22   H     H_    0.123884 0.895538 0.303922 0.169070
C50   C     C_2   0.093490 0.376991 0.209057 0.334317
H23   H     H_    0.125508 0.352993 0.279518 0.084224
O10   O     O_2   0.976054 0.329133 0.161247 -0.539884
C51   C     C_2   0.513737 0.494166 0.160193 0.351216
H24   H     H_    0.591155 0.545120 0.232418 0.083597
O11   O     O_2   0.536177 0.444466 0.099546 -0.553025
H25   H     H_    0.204746 0.511811 0.854649 0.146751
H26   H     H_    0.817997 0.483109 0.761382 0.158840

loop_
_geom_bond_atom_site_label_1
_geom_bond_atom_site_label_2
_ccdc_geom_bond_type
C13   H19   S    
C26   H21   S    
C12   O4    A    
C17   C29   A    
C35   C36   A    
C23   O6    A    
C4    C8    A    
C9    H25   S    
C50   H23   S    
C26   C27   A    
C17   C23   S    
C31   C43   A    
C21   C22   A    
C36   C37   A    
C32   H11   S    
C5    C11   A    
C3    C7    A    
Cu2   O4    S    
C34   O7    A    
C5    C6    A    
C16   H22   S    
C18   C19   A    
C31   H9    S    
Cu2   O2    S    
C18   H3    S    
C11   C15   A    
C19   C20   A    
Cu1   O7    S    
C8    C9    A    
Cu1   O5    S    
C18   C30   A    
C13   C14   A    
C9    C10   A    
C47   H16   S    
C44   C47   A    
C15   C50   S    
C43   N1    A    
Cu1   N1    S    
C37   N2    A    
C37   C41   A    
Cu2   O8    S    
C14   C45   A    
C50   O10   D    
C1    O2    A    
C40   H8    S    
C24   C25   A    
C46   H15   S    
C20   H4    S    
C42   H10   S    
C39   C40   A    
C27   H6    S    
C4    C5    A    
C32   N2    A    
C2    C48   A    
C16   C29   A    
C42   N1    A    
C2    C4    A    
Cu2   O6    S    
C33   H13   S    
C34   C45   S    
C1    O1    A    
C20   C21   A    
C49   O9    D    
C6    H17   S    
C51   O11   D    
C8    H18   S    
C22   C27   A    
C48   H26   S    
Cu1   O3    S    
C15   C45   A    
C19   H5    S    
C16   C25   A    
C46   C47   A    
C40   C41   A    
C22   C30   A    
C17   C28   A    
C24   C28   A    
C23   O5    A    
C49   H20   S    
C10   C13   A    
C38   C42   A    
C6    C7    A    
C3    C46   A    
C32   C33   A    
C36   C38   A    
C2    C3    A    
C25   C26   A    
C7    H1    S    
C12   C44   S    
C34   O8    A    
C28   H2    S    
C38   C39   A    
C29   C49   S    
C1    C30   S    
C33   C35   A    
C31   C39   A    
C35   H12   S    
Cu2   N2    S    
C10   C11   A    
C43   H7    S    
C14   C51   S    
C51   H24   S    
Cu1   Cu2   S    
Cu1   O1    S    
C21   C24   A    
C41   H14   S    
C12   O3    A    
C44   C48   A    
