data_mof_unit_45392.cif
_audit_creation_date              2012-12-10T17:17:49-0500
_audit_creation_method            fapswitch 2.2
_symmetry_space_group_name_H-M    P1
_symmetry_Int_Tables_number       1
_space_group_crystal_system       triclinic
_cell_length_a                    14.93582
_cell_length_b                    15.647437
_cell_length_c                    9.59583
_cell_angle_alpha                 89.727077
_cell_angle_beta                  90.08049
_cell_angle_gamma                 89.564795
_cell_volume                      2242.52308012

loop_
_atom_site_label
_atom_site_type_symbol
_atom_type_description
_atom_site_fract_x
_atom_site_fract_y
_atom_site_fract_z
_atom_type_partial_charge
C1    C     C_R   0.385044 0.877568 0.501490 0.800337
C2    C     C_R   0.379072 0.116471 0.499815 0.806689
C3    C     C_R   0.885046 0.377567 0.501489 0.800341
C4    C     C_R   0.879065 0.616465 0.499815 0.806714
C5    C     C_R   0.320940 0.253585 0.421482 -0.162262
C6    C     C_R   0.287942 0.775996 0.380744 -0.137973
C7    C     C_R   0.820889 0.753540 0.421370 -0.162233
C8    C     C_R   0.787937 0.276001 0.380740 -0.137965
C9    C     C_R   0.757120 0.817755 0.422035 -0.178874
C10   C     C_R   0.719010 0.217700 0.379554 -0.172693
C11   C     C_R   0.257170 0.317801 0.422146 -0.178892
C12   C     C_R   0.219016 0.717694 0.379554 -0.172699
C13   C     C_R   0.679218 0.808628 0.500566 -0.099831
C14   C     C_R   0.676437 0.194583 0.503822 -0.119215
C15   C     C_R   0.179229 0.308639 0.500566 -0.099793
C16   C     C_R   0.176432 0.694587 0.503818 -0.119209
C17   C     C_R   0.664709 0.002628 0.144289 -0.196849
C18   C     C_R   0.164709 0.502628 0.144289 -0.196806
C19   C     C_R   0.745205 0.006297 0.072130 0.364864
C20   C     C_R   0.245205 0.506296 0.072130 0.364884
C21   C     C_R   0.745049 0.005654 0.928411 -0.229241
C22   C     C_R   0.245049 0.505654 0.928411 -0.229247
C23   C     C_R   0.664625 0.001865 0.856270 -0.184353
C24   C     C_R   0.164625 0.501866 0.856270 -0.184341
C25   C     C_R   0.580943 0.001029 0.925400 0.185766
C26   C     C_R   0.080943 0.501029 0.925400 0.185774
C27   C     C_R   0.580949 0.001170 0.074967 0.085196
C28   C     C_R   0.080949 0.501169 0.074967 0.085186
C29   C     C_R   0.422733 0.999120 0.072388 0.450601
C30   C     C_R   0.922733 0.499121 0.072388 0.450598
C31   C     C_R   0.614006 0.122995 0.500539 0.784632
C32   C     C_R   0.616737 0.879592 0.500260 0.770761
C33   C     C_R   0.114004 0.622996 0.500538 0.784634
C34   C     C_R   0.116744 0.379598 0.500260 0.770733
C35   C     C_R   0.423188 0.998986 0.924889 -0.112590
C36   C     C_R   0.923188 0.498986 0.924889 -0.112575
C37   C     C_R   0.209486 0.088780 0.645114 -0.157301
C38   C     C_R   0.325091 0.789405 0.768018 -0.176627
C39   C     C_R   0.709534 0.588823 0.645325 -0.157340
C40   C     C_R   0.825130 0.289374 0.768006 -0.176637
C41   C     C_R   0.129056 0.077387 0.716156 -0.098203
C42   C     C_R   0.277702 0.774799 0.890722 -0.115897
C43   C     C_R   0.629140 0.577462 0.716490 -0.098201
C44   C     C_R   0.777756 0.274757 0.890719 -0.115880
C45   C     C_R   0.564750 0.642165 0.716843 -0.115247
C46   C     C_R   0.689715 0.247485 0.884325 -0.125460
C47   C     C_R   0.064663 0.142088 0.716503 -0.115209
C48   C     C_R   0.189663 0.747524 0.884308 -0.125456
C49   C     C_R   0.580442 0.718639 0.646179 -0.168289
C50   C     C_R   0.652198 0.226754 0.756057 -0.154229
C51   C     C_R   0.080389 0.218592 0.645958 -0.168263
C52   C     C_R   0.152162 0.726779 0.756035 -0.154238
C53   C     C_R   0.662103 0.732278 0.575339 0.104393
C54   C     C_R   0.703069 0.232420 0.631596 0.093232
C55   C     C_R   0.162082 0.232259 0.575231 0.104405
C56   C     C_R   0.203048 0.732437 0.631587 0.093225
C57   C     C_R   0.227500 0.166425 0.574686 0.100739
C58   C     C_R   0.284617 0.776918 0.635587 0.090279
C59   C     C_R   0.727520 0.666442 0.574792 0.100730
C60   C     C_R   0.784639 0.276900 0.635584 0.090265
C61   C     C_R   0.307729 0.179265 0.499373 -0.092519
C62   C     C_R   0.321267 0.806863 0.507143 -0.131885
C63   C     C_R   0.807716 0.679253 0.499372 -0.092554
C64   C     C_R   0.821274 0.306857 0.507139 -0.131895
Cu1   Cu    Cu3+1 0.499990 1.000000 0.640660 0.924427
Cu2   Cu    Cu3+1 0.999990 0.500000 0.640660 0.924433
Cu3   Cu    Cu3+1 0.500010 0.000000 0.359340 0.995501
Cu4   Cu    Cu3+1 0.000010 0.500000 0.359340 0.995498
H1    H     H_    0.382015 0.262745 0.362509 0.166560
H2    H     H_    0.315914 0.796099 0.281880 0.184121
H3    H     H_    0.881936 0.762676 0.362312 0.166596
H4    H     H_    0.815898 0.296114 0.281874 0.184130
H5    H     H_    0.807674 0.007513 0.871692 0.181671
H6    H     H_    0.307674 0.507513 0.871692 0.181676
H7    H     H_    0.672350 0.999635 0.746501 0.218758
H8    H     H_    0.172351 0.499635 0.746501 0.218752
H9    H     H_    0.360425 0.998144 0.868440 0.170738
H10   H     H_    0.860425 0.498144 0.868440 0.170708
H11   H     H_    0.256107 0.035606 0.643857 0.146497
H12   H     H_    0.394228 0.807104 0.780283 0.164625
H13   H     H_    0.756147 0.535644 0.644061 0.146524
H14   H     H_    0.894268 0.307073 0.780252 0.164642
H15   H     H_    0.116161 0.017632 0.769537 0.156085
H16   H     H_    0.308833 0.786404 0.990771 0.156010
H17   H     H_    0.616271 0.517730 0.769960 0.156127
H18   H     H_    0.808899 0.286353 0.990762 0.156009
H19   H     H_    0.501860 0.632678 0.770530 0.150414
H20   H     H_    0.651166 0.240182 0.979057 0.145841
H21   H     H_    0.001745 0.132577 0.770096 0.150384
H22   H     H_    0.151103 0.740227 0.979032 0.145849
H23   H     H_    0.527362 0.765810 0.645505 0.137488
H24   H     H_    0.582703 0.208185 0.756097 0.169886
H25   H     H_    0.027314 0.265769 0.645283 0.137414
H26   H     H_    0.082668 0.708205 0.756058 0.169878
H27   H     H_    0.769485 0.875797 0.363373 0.186729
H28   H     H_    0.698911 0.190951 0.280472 0.172269
H29   H     H_    0.269560 0.375869 0.363572 0.186719
H30   H     H_    0.198928 0.690935 0.280474 0.172277
H31   H     H_    0.672078 0.000817 0.254109 0.217974
H32   H     H_    0.172078 0.500816 0.254109 0.217968
N1    N     N_R   0.501200 1.000000 0.147910 -0.218888
N2    N     N_R   0.001200 0.500000 0.147910 -0.218887
N3    N     N_R   0.501270 0.000000 0.852040 -0.221074
N4    N     N_R   0.001270 0.500000 0.852040 -0.221069
O1    O     O_R   0.409820 0.909830 0.618810 -0.611869
O2    O     O_R   0.409820 0.090170 0.618810 -0.593148
O3    O     O_R   0.909820 0.409830 0.618810 -0.611857
O4    O     O_R   0.909820 0.590170 0.618810 -0.593169
O5    O     O_R   0.409840 0.909830 0.381240 -0.526354
O6    O     O_R   0.409840 0.090170 0.381240 -0.519251
O7    O     O_R   0.909840 0.409830 0.381240 -0.526352
O8    O     O_R   0.909840 0.590170 0.381240 -0.519271
O9    O     O_R   0.590170 0.090170 0.618760 -0.608349
O10   O     O_R   0.590170 0.909830 0.618760 -0.602367
O11   O     O_R   0.090170 0.590170 0.618760 -0.608344
O12   O     O_R   0.090170 0.409830 0.618760 -0.602346
O13   O     O_R   0.590190 0.090180 0.381190 -0.602193
O14   O     O_R   0.590190 0.909820 0.381190 -0.588609
O15   O     O_R   0.090190 0.590180 0.381190 -0.602201
O16   O     O_R   0.090190 0.409820 0.381190 -0.588592
Cl1   Cl    Cl    0.317876 0.998773 0.154706 -0.608526
Cl2   Cl    Cl    0.817876 0.498774 0.154705 -0.608560
Cl3   Cl    Cl    0.847141 0.011161 0.163067 -0.652944
Cl4   Cl    Cl    0.347141 0.511159 0.163067 -0.652968

loop_
_geom_bond_atom_site_label_1
_geom_bond_atom_site_label_2
_ccdc_geom_bond_type
C58   C62   A    
Cu2   Cu4   S    
C18   C28   A    
C40   C60   A    
Cu1   O10   S    
C13   C32   S    
Cu2   O3    S    
C1    C62   S    
C53   C59   A    
C54   C60   A    
C3    C64   S    
C4    O4    A    
C4    C63   S    
C19   Cl3   S    
C50   C54   A    
Cu2   O12   S    
C45   H19   S    
Cu4   N2    S    
C38   C42   A    
C35   N3    A    
Cu4   O15   S    
C6    C12   A    
C49   C53   A    
C34   O12   A    
C41   H15   S    
C21   H5    S    
C18   C20   A    
C6    H2    S    
Cu4   O8    S    
C9    C13   A    
C31   O13   A    
C5    H1    S    
C1    O5    A    
C38   C58   A    
C11   C15   A    
Cu3   O5    S    
C12   C16   A    
C3    O7    A    
Cu1   Cu3   S    
C29   Cl1   S    
C52   H26   S    
C10   H28   S    
C14   C31   S    
C17   C27   A    
C12   H30   S    
C2    C61   S    
C26   N4    A    
C4    O8    A    
C48   H22   S    
C47   H21   S    
C18   H32   S    
C49   H23   S    
C44   H18   S    
Cu1   O1    S    
C44   C46   A    
C46   C50   A    
C13   C53   A    
C56   C58   A    
C34   O16   A    
C8    H4    S    
C33   O11   A    
Cu2   O11   S    
C5    C61   A    
C43   H17   S    
Cu2   N4    S    
C42   H16   S    
C39   H13   S    
C10   C14   A    
C32   O14   A    
C25   N3    A    
C39   C43   A    
C3    O3    A    
C17   H31   S    
C60   C64   A    
Cu4   O7    S    
C15   C55   A    
C16   C56   A    
C40   H14   S    
C16   C33   S    
C37   H11   S    
Cu3   O6    S    
C45   C49   A    
C39   C59   A    
C30   N2    A    
C41   C47   A    
C29   N1    A    
C42   C48   A    
C57   C61   A    
Cu3   O13   S    
C7    C63   A    
C8    C64   A    
C50   H24   S    
C14   C54   A    
C20   C22   A    
C33   O15   A    
C21   C23   A    
C22   C24   A    
C59   C63   A    
Cu1   N3    S    
C40   C44   A    
Cu1   O2    S    
C23   H7    S    
Cu3   N1    S    
C7    C9    A    
C9    H27   S    
C2    O6    A    
C15   C34   S    
C19   C21   A    
C27   N1    A    
Cu1   O9    S    
C24   H8    S    
C24   C26   A    
Cu2   O4    S    
C47   C51   A    
C5    C11   A    
C25   C27   A    
C29   C35   A    
C26   C28   A    
C51   H25   S    
C46   H20   S    
C30   C36   A    
C11   H29   S    
C6    C62   A    
C55   C57   A    
C43   C45   A    
C36   H10   S    
Cu4   O16   S    
C7    H3    S    
C36   N4    A    
C38   H12   S    
C30   Cl2   S    
C17   C19   A    
C35   H9    S    
C51   C55   A    
C23   C25   A    
C37   C41   A    
Cu3   O14   S    
C20   Cl4   S    
C2    O2    A    
C28   N2    A    
C48   C52   A    
C8    C10   A    
C22   H6    S    
C32   O10   A    
C31   O9    A    
C37   C57   A    
C52   C56   A    
C1    O1    A    
