data_mof_unit_59089.cif
_audit_creation_date              2012-12-10T18:12:40-0500
_audit_creation_method            fapswitch 2.2
_symmetry_space_group_name_H-M    P1
_symmetry_Int_Tables_number       1
_space_group_crystal_system       triclinic
_cell_length_a                    12.709913
_cell_length_b                    13.102869
_cell_length_c                    15.661792
_cell_angle_alpha                 92.999139
_cell_angle_beta                  102.702865
_cell_angle_gamma                 82.404861
_cell_volume                      2521.36403383

loop_
_atom_site_label
_atom_site_type_symbol
_atom_type_description
_atom_site_fract_x
_atom_site_fract_y
_atom_site_fract_z
_atom_type_partial_charge
C1    C     C_R   0.439107 0.690081 0.480425 0.860915
C2    C     C_3   0.500805 0.502296 0.917388 0.016295
C3    C     C_3   0.523844 0.405813 0.029080 0.153277
C4    C     C_3   0.491932 0.503384 0.081792 0.017528
C5    C     C_3   0.597857 0.467889 0.991682 0.183331
C6    C     C_3   0.566471 0.564962 0.045380 -0.222369
C7    C     C_1   0.504336 0.502731 0.826897 -0.061757
C8    C     C_1   0.490270 0.504454 0.172651 -0.080768
C9    C     C_R   0.727041 0.045469 0.504993 -0.206147
C10   C     C_R   0.595041 0.196899 0.502779 -0.126518
C11   C     C_R   0.288864 0.839383 0.444336 -0.003650
C12   C     C_R   0.501402 0.500717 0.661806 0.911349
C13   C     C_R   0.262254 0.945861 0.445074 -0.199794
C14   C     C_R   0.341559 0.010058 0.449966 -0.209830
C15   C     C_R   0.449221 0.969493 0.445746 0.095644
C16   C     C_R   0.475484 0.862238 0.438603 0.034476
C17   C     C_R   0.534183 0.031504 0.456952 0.053550
C18   C     C_R   0.643139 0.986460 0.465800 0.055355
C19   C     C_R   0.664010 0.883836 0.436127 0.166663
C20   C     C_R   0.577653 0.823471 0.420236 -0.128010
C21   C     C_R   0.513851 0.137553 0.462902 -0.267480
C22   C     C_R   0.702411 0.148366 0.532751 0.155828
C23   C     C_R   0.560538 0.308100 0.509211 0.822166
C24   C     C_R   0.399599 0.796941 0.450930 -0.191545
C25   C     C_R   0.117311 0.305347 0.431908 -0.309805
C26   C     C_R   0.801274 0.634675 0.603083 0.059382
C27   C     C_R   0.907251 0.662856 0.626032 0.081313
C28   C     C_R   0.986315 0.611893 0.585479 -0.243762
C29   C     C_R   0.965231 0.527245 0.529046 -0.043826
C30   C     C_R   0.858570 0.496372 0.509092 0.165384
C31   C     C_R   0.049681 0.468363 0.495448 -0.007279
C32   C     C_R   0.037212 0.366207 0.466467 0.171582
C33   C     C_R   0.940892 0.328374 0.465268 -0.314452
C34   C     C_R   0.497697 0.501303 0.338152 0.871292
C35   C     C_R   0.847470 0.398824 0.461719 0.147624
C36   C     C_R   0.147125 0.505385 0.490801 -0.007620
C37   C     C_R   0.208950 0.347496 0.425157 0.024459
C38   C     C_3   0.394962 0.538176 0.007587 0.180378
C39   C     C_3   0.469226 0.599661 0.969754 -0.215835
C40   C     C_1   0.504382 0.502091 0.751418 -0.144734
C41   C     C_1   0.492495 0.503494 0.248417 -0.168813
C42   C     C_3   0.425879 0.440723 0.954145 0.147506
H1    H     H_    0.447555 0.678282 0.942979 0.159397
H2    H     H_    0.433560 0.174724 0.436115 0.157525
H3    H     H_    0.315594 0.091035 0.457808 0.137361
H4    H     H_    0.179353 0.979991 0.443490 0.164108
H5    H     H_    0.589996 0.745448 0.395513 0.174206
H6    H     H_    0.272387 0.301017 0.399703 0.123655
H7    H     H_    0.933715 0.249326 0.442399 0.147248
H8    H     H_    0.108052 0.226990 0.408543 0.139755
H9    H     H_    0.165669 0.580919 0.514891 0.139294
H10   H     H_    0.067368 0.633550 0.605664 0.161315
H11   H     H_    0.623126 0.615521 0.085279 0.157853
H12   H     H_    0.810242 0.009745 0.518306 0.152340
N1    N     N_R   0.222180 0.444680 0.455580 -0.093942
N2    N     N_R   0.776980 0.554790 0.543960 -0.187832
O1    O     O_R   0.366730 0.627160 0.478790 -0.588713
O2    O     O_R   0.544830 0.662520 0.507160 -0.602554
O3    O     O_R   0.410960 0.482330 0.609040 -0.619523
O4    O     O_R   0.589060 0.517690 0.637410 -0.575347
O5    O     O_R   0.455170 0.337480 0.492840 -0.620624
O6    O     O_R   0.633270 0.372840 0.521210 -0.644192
O7    O     O_R   0.410940 0.482310 0.362590 -0.594272
O8    O     O_R   0.589040 0.517670 0.390960 -0.634020
Zn1   Zn    Zn3+2 0.381080 0.476390 0.481050 0.968241
Zn2   Zn    Zn3+2 0.618920 0.523610 0.518950 0.943621
C43   C     C_2   0.197081 0.777509 0.433371 0.907555
O9    O     O_2   0.186975 0.708782 0.377336 -0.618745
O10   O     O_R   0.117821 0.802839 0.482925 -0.844912
H13   H     H_    0.056977 0.757834 0.467335 0.332099
C44   C     C_2   0.719260 0.689400 0.648084 0.974777
O11   O     O_2   0.707053 0.656111 0.716235 -0.649031
O12   O     O_R   0.666625 0.785796 0.619233 -0.811612
H14   H     H_    0.615282 0.817784 0.657207 0.334747
C45   C     C_3   0.284182 0.584102 0.024911 -0.376615
C46   C     C_3   0.203702 0.619256 0.941137 -0.881524
H15   H     H_    0.238123 0.673812 0.906084 0.257422
H16   H     H_    0.182483 0.552485 0.897323 0.263193
H17   H     H_    0.127874 0.658974 0.957888 0.255432
H18   H     H_    0.250483 0.526817 0.057604 0.207551
H19   H     H_    0.295944 0.651672 0.070319 0.213962
C47   C     C_3   0.941876 0.740143 0.699391 -0.393641
C48   C     C_3   0.934628 0.847952 0.664973 -0.871532
H20   H     H_    0.983539 0.847439 0.614247 0.281743
H21   H     H_    0.848703 0.877708 0.637232 0.279405
H22   H     H_    0.966995 0.900305 0.719692 0.252300
H23   H     H_    0.892712 0.742560 0.750052 0.218029
H24   H     H_    0.027123 0.716174 0.734173 0.209438
C49   C     C_3   0.765148 0.378282 0.378082 -0.301440
C50   C     C_3   0.767639 0.451695 0.305830 -0.846110
H25   H     H_    0.742610 0.532492 0.323602 0.276092
H26   H     H_    0.851141 0.445949 0.293658 0.254249
H27   H     H_    0.712632 0.430214 0.244108 0.240080
H28   H     H_    0.685381 0.367374 0.388017 0.224989
H29   H     H_    0.785266 0.300434 0.349356 0.160256
C51   C     C_3   0.712508 0.435997 0.975968 -0.379935
C52   C     C_3   0.796096 0.414112 0.061161 -0.881669
H30   H     H_    0.795297 0.481994 0.106640 0.261686
H31   H     H_    0.779572 0.346385 0.093287 0.263003
H32   H     H_    0.878454 0.397176 0.046789 0.255522
H33   H     H_    0.712754 0.367155 0.931633 0.201807
H34   H     H_    0.735995 0.499688 0.942823 0.225043
C53   C     C_3   0.553714 0.300951 0.073305 -0.395308
C54   C     C_3   0.585244 0.213729 0.011896 -0.876416
H35   H     H_    0.517258 0.204395 0.955373 0.263461
H36   H     H_    0.657653 0.227920 0.987978 0.262474
H37   H     H_    0.605405 0.140507 0.047928 0.251148
H38   H     H_    0.622341 0.305960 0.130381 0.202116
H39   H     H_    0.483859 0.282716 0.099007 0.204487
C55   C     C_3   0.349325 0.374301 0.892564 -0.386261
C56   C     C_3   0.280244 0.320288 0.939861 -0.877853
H40   H     H_    0.331973 0.266425 0.988580 0.262776
H41   H     H_    0.228874 0.376915 0.972953 0.262541
H42   H     H_    0.225909 0.275159 0.891423 0.252326
H43   H     H_    0.295022 0.423686 0.841347 0.210429
H44   H     H_    0.398032 0.315833 0.858551 0.204013
C57   C     C_3   0.785690 0.204386 0.596203 -0.373355
C58   C     C_3   0.886278 0.136545 0.644279 -0.903017
H45   H     H_    0.861806 0.073993 0.677965 0.270768
H46   H     H_    0.937702 0.103770 0.598203 0.261025
H47   H     H_    0.935805 0.183953 0.694399 0.258259
H48   H     H_    0.812743 0.263006 0.561201 0.228828
H49   H     H_    0.745644 0.244643 0.647112 0.212685
C59   C     C_3   0.776697 0.842047 0.421559 -0.412088
C60   C     C_3   0.784681 0.739666 0.370921 -0.885005
H50   H     H_    0.768359 0.677837 0.409850 0.268559
H51   H     H_    0.726512 0.744389 0.306532 0.254052
H52   H     H_    0.868268 0.720071 0.359498 0.262837
H53   H     H_    0.804588 0.899385 0.384379 0.207852
H54   H     H_    0.834180 0.832580 0.485687 0.228855

loop_
_geom_bond_atom_site_label_1
_geom_bond_atom_site_label_2
_ccdc_geom_bond_type
C22   C57   S    
O7    Zn1   S    
C3    C42   S    
C49   H29   S    
C51   H34   S    
C11   C13   A    
O12   H14   S    
C2    C7    S    
C46   H17   S    
C4    C8    S    
C52   H32   S    
C54   H36   S    
C52   H30   S    
C10   C22   A    
C57   H48   S    
C26   C27   A    
C30   C35   A    
C5    C6    S    
C28   C29   A    
C46   H16   S    
C38   C42   S    
C31   C36   A    
C38   C39   S    
C47   H24   S    
C9    C22   A    
C33   H7    S    
C47   H23   S    
C11   C24   A    
C18   C19   A    
C49   H28   S    
C58   H45   S    
N1    Zn1   S    
C55   C56   S    
C12   O3    A    
C2    C39   S    
O2    Zn2   S    
C23   O6    A    
C31   C32   A    
C60   H52   S    
C7    C40   T    
C53   H38   S    
C45   H18   S    
C25   C37   A    
C25   C32   A    
O4    Zn2   S    
C16   C24   A    
C13   C14   A    
C26   C44   S    
C34   C41   S    
C1    O2    A    
C54   H35   S    
C52   H31   S    
C11   C43   S    
C14   H3    S    
C38   C45   S    
C10   C21   A    
C19   C59   S    
O6    Zn2   S    
C43   O9    D    
C46   H15   S    
C4    C6    S    
C44   O12   S    
C45   H19   S    
C39   H1    S    
C30   N2    A    
C17   C21   A    
C43   O10   S    
C58   H47   S    
C12   O4    A    
C12   C40   S    
C45   C46   S    
C29   C30   A    
C25   H8    S    
C1    O1    A    
C21   H2    S    
C50   H26   S    
C48   H20   S    
C16   C20   A    
C51   C52   S    
C34   O8    A    
C17   C18   A    
C59   H54   S    
C56   H41   S    
C8    C41   T    
C37   H6    S    
C36   H9    S    
C35   C49   S    
C48   H21   S    
C4    C38   S    
C60   H50   S    
C2    C5    S    
C6    H11   S    
C3    C4    S    
C55   H44   S    
C53   C54   S    
C5    C51   S    
C50   H27   S    
C3    C53   S    
C15   C17   A    
C56   H40   S    
C6    C39   S    
C27   C47   S    
O1    Zn1   S    
C3    C5    S    
C26   N2    A    
C10   C23   S    
C53   H39   S    
C32   C33   A    
C19   C20   A    
C42   C55   S    
C44   O11   D    
C29   C31   A    
C36   N1    A    
C57   C58   S    
O3    Zn1   S    
C28   H10   S    
C50   H25   S    
C13   H4    S    
C2    C42   S    
N2    Zn2   S    
C34   O7    A    
C33   C35   A    
C59   H53   S    
C56   H42   S    
C57   H49   S    
O10   H13   S    
C58   H46   S    
C20   H5    S    
C37   N1    A    
O5    Zn1   S    
C9    C18   A    
C23   O5    A    
C48   H22   S    
C1    C24   S    
C47   C48   S    
C27   C28   A    
C60   H51   S    
C14   C15   A    
C9    H12   S    
C49   C50   S    
C51   H33   S    
C55   H43   S    
C54   H37   S    
C15   C16   A    
O8    Zn2   S    
C59   C60   S    
