data_mof_unit_43081.cif
_audit_creation_date              2012-12-11T14:08:22-0500
_audit_creation_method            fapswitch 2.2
_symmetry_space_group_name_H-M    P1
_symmetry_Int_Tables_number       1
_space_group_crystal_system       triclinic
_cell_length_a                    11.081609
_cell_length_b                    11.095214
_cell_length_c                    18.602907
_cell_angle_alpha                 90.102409
_cell_angle_beta                  89.077018
_cell_angle_gamma                 59.281716
_cell_volume                      1965.96149785

loop_
_atom_site_label
_atom_site_type_symbol
_atom_type_description
_atom_site_fract_x
_atom_site_fract_y
_atom_site_fract_z
_atom_type_partial_charge
C1    C     C_R   0.293834 0.620050 0.614842 0.556855
C2    C     C_3   0.635970 0.623248 0.804874 0.109118
C3    C     C_3   0.727431 0.694497 0.807228 -0.010679
C4    C     C_3   0.678049 0.653323 0.674593 -0.027060
C5    C     C_3   0.839636 0.600208 0.682591 -0.016735
C6    C     C_3   0.641076 0.569226 0.728697 -0.256964
C7    C     C_2   0.661151 0.186909 0.676938 -0.056935
C8    C     C_2   0.691021 0.167891 0.830013 -0.014353
C9    C     C_2   0.800466 0.129824 0.784933 -0.122724
C10   C     C_2   0.775837 0.171384 0.709194 -0.146380
C11   C     C_2   0.252934 0.629596 0.690777 -0.136879
C12   C     C_R   0.652250 0.619812 0.602322 0.621990
C13   C     C_2   0.218598 0.651274 0.846985 -0.046556
C14   C     C_2   0.262274 0.528505 0.812083 0.224846
C15   C     C_2   0.305134 0.516564 0.734344 -0.179636
C16   C     C_2   0.626649 0.615372 0.312341 -0.098841
C17   C     C_2   0.624089 0.648589 0.151737 0.263356
C18   C     C_2   0.700295 0.528939 0.190062 0.065644
C19   C     C_2   0.658702 0.514777 0.263388 -0.132890
C20   C     C_2   0.664478 0.156180 0.326546 -0.081366
C21   C     C_2   0.636848 0.187638 0.170381 -0.068943
C22   C     C_2   0.538296 0.188039 0.213555 0.237278
C23   C     C_R   0.622447 0.238790 0.604484 0.566911
C24   C     C_2   0.571060 0.139792 0.288850 0.063728
C25   C     C_2   0.119786 0.684661 0.346865 -0.099764
C26   C     C_2   0.101995 0.695768 0.192308 -0.044760
C27   C     C_2   0.034571 0.809235 0.236035 -0.150572
C28   C     C_2   0.070686 0.803665 0.311119 -0.160893
C29   C     C_R   0.704725 0.099700 0.897733 0.571327
C30   C     C_R   0.756380 0.711332 0.882890 0.571030
C31   C     C_R   0.126535 0.701706 0.910881 0.559310
C32   C     C_R   0.671933 0.112467 0.102383 0.561011
C33   C     C_R   0.691257 0.686570 0.093952 0.588336
C34   C     C_R   0.215935 0.652107 0.404998 0.551486
C35   C     C_R   0.080409 0.716356 0.116283 0.614348
C36   C     C_R   0.615823 0.587538 0.387252 0.555862
C37   C     C_R   0.620825 0.224460 0.396420 0.581097
C38   C     C_3   0.635969 0.839684 0.769310 -0.248553
C39   C     C_3   0.589830 0.817618 0.692878 0.372703
C40   C     C_3   0.869665 0.616441 0.762364 0.151965
Cr1   Cr    Cr6+3 0.393010 0.398050 0.501480 1.089540
Cr2   Cr    Cr6+3 0.398820 0.707980 0.501630 1.125262
Cr3   Cr    Cr6+3 0.708140 0.393940 0.496850 1.034397
Cr4   Cr    Cr6+3 0.937950 0.938450 0.008940 1.081617
Cr5   Cr    Cr6+3 0.626180 0.937030 0.994750 1.151443
Cr6   Cr    Cr6+3 0.937790 0.625760 0.001410 1.158103
H1    H     H_    0.691756 0.898807 0.766290 0.183734
H2    H     H_    0.720318 0.455754 0.725333 0.150432
H3    H     H_    0.907590 0.061646 0.802175 0.173170
H4    H     H_    0.853765 0.184340 0.679719 0.154501
H5    H     H_    0.586106 0.237973 0.812478 0.198874
H6    H     H_    0.588865 0.165589 0.705984 0.177987
H7    H     H_    0.376334 0.413313 0.711816 0.164359
H8    H     H_    0.234202 0.730439 0.821996 0.137228
H9    H     H_    0.543352 0.908224 0.804016 0.192281
H10   H     H_    0.176965 0.733572 0.710905 0.152672
H11   H     H_    0.677500 0.412990 0.280130 0.120595
H12   H     H_    0.616296 0.714891 0.297744 0.143972
H13   H     H_    0.726251 0.187992 0.192118 0.027876
H14   H     H_    0.745802 0.168487 0.301222 0.045861
H15   H     H_    0.965060 0.912694 0.214311 0.150737
H16   H     H_    0.076301 0.891584 0.332876 0.174813
H17   H     H_    0.173996 0.591645 0.211620 0.180007
H18   H     H_    0.105503 0.600829 0.326697 0.143043
H19   H     H_    0.860368 0.669572 0.648814 0.234594
H20   H     H_    0.526469 0.708159 0.815921 0.192441
H21   H     H_    0.540078 0.576455 0.716212 0.152126
O1    O     O_R   0.507110 0.256280 0.580300 -0.442418
O2    O     O_R   0.524640 0.695370 0.425100 -0.454792
O3    O     O_R   0.735890 0.504390 0.415980 -0.489515
O4    O     O_R   0.690560 0.277820 0.422350 -0.531808
O5    O     O_3   0.499990 0.499990 0.499980 -0.339869
O6    O     O_R   0.089190 0.825870 0.932320 -0.496254
O7    O     O_R   0.819070 0.053960 0.931440 -0.512688
O8    O     O_R   0.607070 0.076440 0.916460 -0.477900
O9    O     O_R   0.647110 0.806550 0.917690 -0.498441
O10   O     O_R   0.837080 0.593860 0.915300 -0.379720
O11   O     O_R   0.064770 0.636080 0.932550 -0.460532
O12   O     O_R   0.280830 0.527190 0.577940 -0.504239
O13   O     O_R   0.068250 0.829200 0.092940 -0.456610
O14   O     O_R   0.799650 0.057040 0.080330 -0.525135
O15   O     O_R   0.586130 0.079760 0.077080 -0.435617
O16   O     O_R   0.627700 0.809630 0.066580 -0.447859
O17   O     O_R   0.816140 0.597180 0.075920 -0.484218
O18   O     O_R   0.045360 0.639170 0.081440 -0.483385
O19   O     O_3   0.833980 0.833750 0.001700 -0.348152
O20   O     O_R   0.261360 0.738990 0.584270 -0.460556
O21   O     O_R   0.532590 0.694780 0.574370 -0.411490
O22   O     O_R   0.744470 0.503750 0.577000 -0.488550
O23   O     O_R   0.698520 0.277230 0.571620 -0.525217
O24   O     O_R   0.498530 0.256920 0.419280 -0.451491
O25   O     O_R   0.272880 0.527780 0.428680 -0.485821
O26   O     O_R   0.252780 0.739630 0.423250 -0.518567
N1    N     N_3   0.967128 0.480625 0.794527 -0.491485
H22   H     H_    0.064873 0.433869 0.768259 0.268888
H23   H     H_    0.929117 0.412514 0.790674 0.287921
N2    N     N_3   0.938989 0.459705 0.652149 -0.606975
H24   H     H_    0.041621 0.440874 0.651244 0.249149
H25   H     H_    0.934174 0.378402 0.677404 0.241331
S1    S     S_3+6 0.296173 0.374938 0.860073 0.039319
O27   O     O_2   0.165810 0.384597 0.891344 -0.236961
O28   O     O_2   0.366058 0.248506 0.811277 -0.286666
O29   O     O_3   0.401178 0.355492 0.928825 -0.455794
H26   H     H_    0.375374 0.311404 0.967673 0.392541
N3    N     N_3   0.833595 0.416744 0.163897 -0.577432
H27   H     H_    0.910104 0.402170 0.200722 0.235897
H28   H     H_    0.829085 0.325041 0.162348 0.240922
S2    S     S_3+6 0.440573 0.757530 0.167352 0.045105
O30   O     O_2   0.411348 0.875222 0.218035 -0.312409
O31   O     O_2   0.368287 0.818555 0.097759 -0.178394
O32   O     O_3   0.377138 0.661463 0.202989 -0.525574
H29   H     H_    0.356664 0.690312 0.254233 0.350269
S3    S     S_3+6 0.365752 0.250652 0.181529 0.032317
O33   O     O_2   0.339349 0.344102 0.118049 -0.266706
O34   O     O_2   0.350473 0.129059 0.159245 -0.195122
O35   O     O_3   0.246114 0.342623 0.246593 -0.578973
H30   H     H_    0.154490 0.368759 0.225532 0.356389
N4    N     N_3   0.497877 0.079523 0.323938 -0.541535
H31   H     H_    0.390550 0.152286 0.326636 0.313909
H32   H     H_    0.514111 0.993632 0.293116 0.268757
S4    S     S_3+6 0.396704 0.900825 0.695236 0.042888
O36   O     O_2   0.347940 0.812098 0.730511 -0.391823
O37   O     O_2   0.333697 0.036707 0.736848 -0.234029
O38   O     O_3   0.330552 0.941142 0.612090 -0.422293
H33   H     H_    0.228106 0.004442 0.619592 0.351730
S5    S     S_3+6 0.626213 0.912783 0.625318 0.020243
O39   O     O_2   0.640297 0.855551 0.550381 -0.266030
O40   O     O_2   0.501773 0.057847 0.626998 -0.201169
O41   O     O_3   0.774707 0.912536 0.643284 -0.604239
H34   H     H_    0.813923 0.917810 0.595953 0.366019
N5    N     N_3   0.933447 0.704016 0.762292 -0.628947
H35   H     H_    0.956251 0.718830 0.814193 0.226805
H36   H     H_    0.025709 0.653039 0.732018 0.234722
S6    S     S_3+6 0.648487 0.502390 0.873279 0.020481
O42   O     O_2   0.607077 0.574937 0.945484 -0.221836
O43   O     O_2   0.543618 0.461086 0.855389 -0.289237
O44   O     O_3   0.808668 0.358204 0.877896 -0.521166
H37   H     H_    0.809999 0.317082 0.925293 0.381655

loop_
_geom_bond_atom_site_label_1
_geom_bond_atom_site_label_2
_ccdc_geom_bond_type
C1    O20   A    
C7    C10   D    
S5    O39   D    
Cr2   O26   S    
Cr5   O15   S    
C1    C11   S    
C34   O26   A    
S6    O44   S    
N2    H24   S    
C2    C6    S    
C19   H11   S    
C25   C28   D    
C32   O14   A    
N3    H28   S    
C26   C27   D    
C2    S6    S    
C6    H2    S    
Cr5   O9    S    
C8    C29   S    
C15   H7    S    
C7    H6    S    
C21   H13   S    
C38   C39   S    
C31   O6    A    
C35   O13   A    
S2    O30   D    
C18   C19   S    
N4    H31   S    
S4    O38   S    
C27   H15   S    
C30   O10   A    
C11   C15   D    
C22   S3    S    
C38   H9    S    
C20   C24   D    
C3    C38   S    
C8    C9    D    
Cr3   O4    S    
C20   H14   S    
C9    C10   S    
C25   C34   S    
Cr6   O18   S    
C39   S5    S    
C21   C22   D    
Cr5   O16   S    
C17   C33   S    
Cr4   O19   S    
S1    O28   D    
N2    H25   S    
C36   O3    A    
Cr1   O1    S    
C34   O25   A    
C21   C32   S    
Cr3   O23   S    
C12   O21   A    
C12   O22   A    
Cr4   O13   S    
C9    H3    S    
C4    C6    S    
Cr4   O14   S    
C17   S2    S    
Cr6   O11   S    
C37   O24   A    
S6    O43   D    
C29   O7    A    
S5    O41   S    
C2    H20   S    
Cr2   O2    S    
C25   H18   S    
C23   O1    A    
S1    O29   S    
C3    C30   S    
Cr4   O7    S    
C26   H17   S    
C30   O9    A    
C4    C39   S    
Cr2   O5    S    
C17   C18   D    
S4    O36   D    
C23   O23   A    
C16   H12   S    
N1    H23   S    
C33   O16   A    
C8    H5    S    
C38   H1    S    
Cr1   O5    S    
Cr6   O17   S    
C5    H19   S    
C6    H21   S    
Cr1   O24   S    
C40   N5    S    
C5    N2    S    
C3    C40   S    
Cr3   O3    S    
C37   O4    A    
C1    O12   A    
C22   C24   S    
C4    C12   S    
N5    H35   S    
C10   H4    S    
O29   H26   S    
C36   O2    A    
C31   O11   A    
S3    O33   D    
N3    H27   S    
Cr4   O6    S    
Cr3   O5    S    
S5    O40   D    
O32   H29   S    
C13   C31   S    
C40   N1    S    
C4    C5    S    
N5    H36   S    
Cr1   O12   S    
Cr6   O10   S    
C14   S1    S    
S6    O42   D    
C29   O8    A    
C32   O15   A    
O44   H37   S    
C13   H8    S    
C24   N4    S    
C39   S4    S    
S2    O32   S    
Cr5   O8    S    
S3    O35   S    
C2    C3    S    
O41   H34   S    
C18   N3    S    
C16   C36   S    
C20   C37   S    
C35   O18   A    
C16   C19   D    
C7    C23   S    
S1    O27   D    
S2    O31   D    
O35   H30   S    
Cr5   O19   S    
Cr3   O22   S    
N1    H22   S    
C33   O17   A    
N4    H32   S    
S4    O37   D    
C26   C35   S    
Cr1   O25   S    
Cr2   O21   S    
C5    C40   S    
C27   C28   S    
C14   C15   S    
Cr2   O20   S    
Cr6   O19   S    
C13   C14   D    
C11   H10   S    
O38   H33   S    
S3    O34   D    
C28   H16   S    
