data_mof_unit_15806.cif
_audit_creation_date              2012-10-26T20:16:50-0400
_audit_creation_method            fapswitch 2.2
_symmetry_space_group_name_H-M    P1
_symmetry_Int_Tables_number       1
_space_group_crystal_system       triclinic
_cell_length_a                    10.943139
_cell_length_b                    10.914628
_cell_length_c                    10.498878
_cell_angle_alpha                 91.326908
_cell_angle_beta                  92.465088
_cell_angle_gamma                 89.195076
_cell_volume                      1252.38572528

loop_
_atom_site_label
_atom_site_type_symbol
_atom_type_description
_atom_site_fract_x
_atom_site_fract_y
_atom_site_fract_z
_atom_type_partial_charge
C1    C     C_R   0.499127 0.261606 0.498294 0.570290
C2    C     C_R   0.644389 0.830186 0.783686 -0.054291
C3    C     C_R   0.465764 0.110390 0.253596 0.038212
C4    C     C_R   0.534236 0.889610 0.746404 0.038212
C5    C     C_R   0.556543 0.092024 0.164750 -0.088702
C6    C     C_R   0.443457 0.907976 0.835250 -0.088702
C7    C     C_R   0.537330 0.132056 0.040354 -0.128267
C8    C     C_R   0.462670 0.867944 0.959646 -0.128267
C9    C     C_R   0.428690 0.192273 0.003587 -0.116947
C10   C     C_R   0.571310 0.807727 0.996413 -0.116947
C11   C     C_R   0.487783 0.930815 0.387431 -0.127106
C12   C     C_R   0.500873 0.738394 0.501706 0.570290
C13   C     C_R   0.512217 0.069185 0.612569 -0.127106
C14   C     C_R   0.502962 0.872003 0.504186 0.028626
C15   C     C_R   0.497038 0.127997 0.495814 0.028626
C16   C     C_R   0.261650 0.495226 0.497510 0.586449
C17   C     C_R   0.738350 0.504774 0.502490 0.586449
C18   C     C_R   0.516679 0.942358 0.618462 -0.029993
C19   C     C_R   0.483321 0.057642 0.381538 -0.029993
C20   C     C_1   0.500068 0.499980 0.072152 0.104753
C21   C     C_1   0.499932 0.500019 0.927848 0.104753
C22   C     C_R   0.236610 0.753734 0.185332 -0.093627
C23   C     C_R   0.872599 0.509343 0.506504 -0.042065
C24   C     C_R   0.763390 0.246266 0.814668 -0.093626
C25   C     C_R   0.179882 0.716377 0.293834 -0.016585
C26   C     C_R   0.820118 0.283623 0.706166 -0.016585
C27   C     C_R   0.116176 0.605789 0.291061 0.119393
C28   C     C_R   0.883824 0.394211 0.708938 0.119393
C29   C     C_R   0.116076 0.528926 0.181564 0.127498
C30   C     C_R   0.883924 0.471074 0.818436 0.127499
C31   C     C_R   0.177356 0.564983 0.075109 -0.068054
C32   C     C_R   0.822644 0.435017 0.924891 -0.068054
C33   C     C_R   0.235422 0.678060 0.075882 -0.105380
C34   C     C_R   0.127401 0.490656 0.493496 -0.042065
C35   C     C_R   0.764578 0.321940 0.924118 -0.105380
C36   C     C_R   0.932217 0.579372 0.416800 0.259250
C37   C     C_R   0.067783 0.420628 0.583199 0.259250
C38   C     C_R   0.941152 0.436191 0.593806 -0.065713
C39   C     C_R   0.058848 0.563809 0.406194 -0.065713
C40   C     C_R   0.338051 0.211521 0.091629 -0.096756
C41   C     C_R   0.661950 0.788479 0.908371 -0.096756
C42   C     C_R   0.355611 0.169814 0.216313 -0.054291
Cu1   Cu    Cu3+1 0.500000 0.500000 0.625300 1.059357
Cu2   Cu    Cu3+1 0.500000 0.500000 0.374700 1.059357
H1    H     H_    0.279481 0.705941 0.991381 0.137354
H2    H     H_    0.719117 0.158552 0.812657 0.098248
H3    H     H_    0.183379 0.774283 0.379103 0.130133
H4    H     H_    0.816621 0.225718 0.620897 0.130133
H5    H     H_    0.179123 0.505810 0.991328 0.190215
H6    H     H_    0.820878 0.494189 0.008672 0.190215
H7    H     H_    0.414051 0.222224 0.906488 0.161488
H8    H     H_    0.585949 0.777776 0.093512 0.161488
H9    H     H_    0.253826 0.257085 0.061967 0.168166
H10   H     H_    0.746174 0.742915 0.938033 0.168166
H11   H     H_    0.283735 0.182943 0.283276 0.157985
H12   H     H_    0.720519 0.294059 0.008619 0.137354
H13   H     H_    0.716265 0.817057 0.716723 0.157985
H14   H     H_    0.886551 0.853431 0.217132 0.366508
H15   H     H_    0.113449 0.146567 0.782866 0.366507
H16   H     H_    0.640703 0.043604 0.190872 0.132997
H17   H     H_    0.359297 0.956396 0.809128 0.132997
H18   H     H_    0.604944 0.111408 0.971439 0.113180
H19   H     H_    0.395056 0.888592 0.028561 0.113180
H20   H     H_    0.477801 0.877800 0.299096 0.128595
H21   H     H_    0.522198 0.122200 0.700904 0.128595
H22   H     H_    0.280883 0.841448 0.187343 0.098248
I1    I     I_    0.029529 0.355644 0.176439 -0.406632
I2    I     I_    0.970471 0.644355 0.823561 -0.406634
N1    N     N_1   0.500010 0.499990 0.186410 -0.178039
N2    N     N_1   0.499990 0.500010 0.813590 -0.178039
O1    O     O_R   0.499990 0.319650 0.605810 -0.488779
O2    O     O_2   0.754059 0.752180 0.404468 -0.299367
O3    O     O_3   0.939681 0.804379 0.275935 -0.525309
O4    O     O_2   0.245941 0.247820 0.595532 -0.299368
O5    O     O_2   0.210831 0.368557 0.790391 -0.307536
O6    O     O_3   0.060319 0.195621 0.724065 -0.525309
O7    O     O_R   0.500010 0.680350 0.394190 -0.488779
O8    O     O_R   0.499990 0.319640 0.394190 -0.504229
O9    O     O_R   0.500010 0.680360 0.605810 -0.504229
O10   O     O_R   0.319640 0.500010 0.605810 -0.426357
O11   O     O_R   0.680360 0.499990 0.394190 -0.426357
O12   O     O_R   0.319650 0.500010 0.394190 -0.522481
O13   O     O_R   0.680350 0.499990 0.605810 -0.522481
O14   O     O_2   0.789169 0.631442 0.209609 -0.307537
S1    S     S_3+6 0.849880 0.692676 0.324789 0.013520
S2    S     S_3+6 0.150119 0.307324 0.675211 0.013520

loop_
_geom_bond_atom_site_label_1
_geom_bond_atom_site_label_2
_ccdc_geom_bond_type
C3    C42   A    
C27   C29   A    
C34   C37   A    
C33   H1    S    
C14   C18   A    
C9    H7    S    
C10   H8    S    
O2    S1    D    
C2    H13   S    
C13   H21   S    
C15   C19   A    
C11   C19   A    
C17   C23   S    
C13   C18   A    
C6    H17   S    
Cu2   O7    S    
C24   C26   A    
Cu2   O12   S    
C11   C14   A    
C2    C41   A    
Cu1   O9    S    
C23   C36   A    
C12   O9    A    
Cu1   O13   S    
C22   H22   S    
C16   C34   S    
C29   I1    S    
C27   C39   S    
C22   C25   A    
C31   C33   A    
C3    C19   S    
C1    C15   S    
C25   H3    S    
C26   H4    S    
C4    C18   S    
C40   C42   A    
C10   C41   A    
C1    O8    A    
C31   H5    S    
C24   C35   A    
C34   C39   A    
C32   C35   A    
C37   S2    S    
O14   S1    D    
C4    C6    A    
Cu2   O11   S    
C5    C7    A    
C6    C8    A    
Cu1   O10   S    
C9    C40   A    
C17   O13   A    
C2    C4    A    
Cu1   Cu2   S    
C7    H18   S    
C37   C38   A    
C42   H11   S    
O5    S2    D    
C28   C38   S    
C32   H6    S    
C12   O7    A    
C16   O12   A    
Cu2   N1    S    
C1    O1    A    
O4    S2    D    
O3    S1    S    
C12   C14   S    
C11   H20   S    
Cu1   N2    S    
C13   C15   A    
C20   N1    T    
O6    S2    S    
C7    C9    A    
C22   C33   A    
Cu1   O1    S    
C5    H16   S    
C35   H12   S    
C36   C39   A    
C3    C5    A    
C36   S1    S    
C25   C27   A    
C23   C38   A    
C26   C28   A    
C21   N2    T    
C24   H2    S    
Cu2   O8    S    
C29   C31   A    
C30   C32   A    
C28   C30   A    
C17   O11   A    
C41   H10   S    
C8    H19   S    
C20   C21   S    
C8    C10   A    
C40   H9    S    
C16   O10   A    
H15   O6    S    
C30   I2    S    
H14   O3    S    
