data_mof_unit_41426.cif
_audit_creation_date              2012-12-11T17:34:21-0500
_audit_creation_method            fapswitch 2.2
_symmetry_space_group_name_H-M    P1
_symmetry_Int_Tables_number       1
_space_group_crystal_system       triclinic
_cell_length_a                    23.891581
_cell_length_b                    7.210607
_cell_length_c                    20.548283
_cell_angle_alpha                 90.114941
_cell_angle_beta                  105.72666
_cell_angle_gamma                 89.953468
_cell_volume                      3407.38932837

loop_
_atom_site_label
_atom_site_type_symbol
_atom_type_description
_atom_site_fract_x
_atom_site_fract_y
_atom_site_fract_z
_atom_type_partial_charge
O1    O     O_R   0.449110 0.494310 0.552140 -0.534687
O2    O     O_R   0.550890 0.994310 0.447860 -0.536958
O3    O     O_R   0.440010 0.824420 0.415850 -0.520313
O4    O     O_R   0.559990 0.324420 0.584150 -0.519865
C1    C     C_R   0.425101 0.655402 0.390587 0.762148
C2    C     C_R   0.574834 0.155730 0.609484 0.763381
O5    O     O_R   0.442260 0.824040 0.549660 -0.518587
O6    O     O_R   0.557740 0.324040 0.450340 -0.517532
O7    O     O_R   0.553160 0.993960 0.582620 -0.535709
O8    O     O_R   0.446840 0.493960 0.417380 -0.535551
C3    C     C_R   0.427179 0.655606 0.565879 0.752547
C4    C     C_R   0.572466 0.155226 0.433695 0.752380
O9    O     O_3   0.536380 0.660670 0.510660 -0.365988
O10   O     O_3   0.463620 0.160670 0.489340 -0.365648
V1    V     V_3+5 0.493250 0.935680 0.498020 1.597078
V2    V     V_3+5 0.506750 0.435680 0.501980 1.599371
C5    C     C_R   0.809499 0.900240 0.148442 -0.025302
C6    C     C_R   0.151191 0.419610 0.802056 -0.001451
C7    C     C_R   0.848694 0.906312 0.108053 -0.145507
C8    C     C_R   0.114836 0.415338 0.845684 -0.187000
H1    H     H_    0.850476 0.789721 0.075402 0.204954
H2    H     H_    0.084562 0.301151 0.841640 0.118006
C9    C     C_R   0.885872 0.058913 0.109411 -0.142657
C10   C     C_R   0.115442 0.557554 0.892909 -0.114603
C11   C     C_R   0.882189 0.211195 0.152432 0.012453
C12   C     C_R   0.155452 0.706201 0.897747 -0.050748
C13   C     C_R   0.842604 0.205603 0.191902 -0.115586
C14   C     C_R   0.191323 0.711515 0.853410 -0.120855
H3    H     H_    0.840066 0.322528 0.224356 0.143457
H4    H     H_    0.221946 0.824530 0.856966 0.181497
C15   C     C_R   0.805989 0.053459 0.190100 0.015686
C16   C     C_R   0.189720 0.570980 0.805732 0.043030
C17   C     C_1   0.764769 0.062291 0.230766 0.016552
C18   C     C_1   0.229286 0.584604 0.763050 0.124031
C19   C     C_1   0.730884 0.076663 0.265074 0.163331
C20   C     C_1   0.262610 0.595807 0.727885 0.191010
C21   C     C_R   0.650333 0.958503 0.310067 -0.030995
C22   C     C_R   0.343321 0.465625 0.685050 -0.033259
C23   C     C_R   0.615177 0.979481 0.354137 -0.193789
C24   C     C_R   0.381270 0.484392 0.643884 -0.200672
H5    H     H_    0.585973 0.867730 0.357380 0.188294
H6    H     H_    0.410892 0.371928 0.642620 0.186730
C25   C     C_R   0.615410 0.141837 0.392218 -0.140494
C26   C     C_R   0.382595 0.644575 0.605356 -0.138988
C27   C     C_R   0.656023 0.283094 0.389053 0.245612
C28   C     C_R   0.341137 0.786235 0.605183 0.237187
C29   C     C_R   0.693747 0.259952 0.346916 0.252781
C30   C     C_R   0.301335 0.766541 0.644827 0.249997
C31   C     C_R   0.690769 0.098786 0.306870 -0.010503
C32   C     C_R   0.302943 0.608905 0.685946 -0.029582
C33   C     C_R   0.643472 0.211107 0.798463 0.304486
C34   C     C_R   0.357088 0.693931 0.200993 0.304974
C35   C     C_R   0.618026 0.150719 0.677065 -0.159158
C36   C     C_R   0.381830 0.648657 0.323108 -0.159857
C37   C     C_R   0.901450 0.053202 0.766482 -0.305132
C38   C     C_R   0.097965 0.564524 0.233332 -0.300809
C39   C     C_R   0.864469 0.088644 0.702372 -0.037145
C40   C     C_R   0.134851 0.604865 0.297089 -0.040878
C41   C     C_R   0.805364 0.132919 0.695253 0.271168
C42   C     C_R   0.194175 0.645032 0.304001 0.271504
C43   C     C_R   0.781232 0.109109 0.751197 0.018646
C44   C     C_R   0.218522 0.611494 0.248733 0.021754
C45   C     C_R   0.820780 0.082900 0.816622 0.048617
C46   C     C_R   0.179145 0.579500 0.183559 0.050409
C47   C     C_R   0.719972 0.123056 0.745557 0.048630
C48   C     C_R   0.279881 0.621192 0.254606 0.049895
C49   C     C_R   0.701098 0.146930 0.805117 -0.009612
C50   C     C_R   0.299149 0.634428 0.194980 -0.009253
C51   C     C_R   0.740697 0.107510 0.868873 -0.033690
C52   C     C_R   0.259715 0.588749 0.131748 -0.038817
C53   C     C_R   0.799456 0.079928 0.873707 -0.227123
C54   C     C_R   0.200770 0.566108 0.126849 -0.241202
C55   C     C_R   0.676485 0.106071 0.683012 -0.188504
C56   C     C_R   0.323081 0.609568 0.317545 -0.187532
C57   C     C_R   0.602233 0.209794 0.734795 0.216281
C58   C     C_R   0.398172 0.697139 0.264719 0.216430
C59   C     C_R   0.881206 0.058736 0.823952 -0.057687
C60   C     C_R   0.118562 0.560310 0.176112 -0.068946
H7    H     H_    0.687294 0.055295 0.638456 0.179160
H8    H     H_    0.311875 0.566164 0.362679 0.179286
H9    H     H_    0.947322 0.028226 0.772145 0.112732
H10   H     H_    0.051923 0.543711 0.227632 0.117816
H11   H     H_    0.828601 0.050150 0.923025 0.088056
H12   H     H_    0.171724 0.531371 0.077934 0.078914
O11   O     O_R   0.053190 0.709680 0.082610 -0.533506
O12   O     O_R   0.946810 0.209680 0.917390 -0.533032
O13   O     O_R   0.057740 0.380240 0.950340 -0.530807
O14   O     O_R   0.942260 0.880240 0.049660 -0.525416
C61   C     C_R   0.072390 0.549086 0.933909 0.646508
C62   C     C_R   0.928853 0.049501 0.067955 0.686727
O15   O     O_R   0.060000 0.379940 0.084150 -0.533945
O16   O     O_R   0.940000 0.879940 0.915850 -0.535934
O17   O     O_R   0.949110 0.210100 0.052140 -0.507117
O18   O     O_R   0.050890 0.710100 0.947860 -0.549802
C63   C     C_R   0.074749 0.548722 0.109329 0.711923
C64   C     C_R   0.925179 0.048471 0.890694 0.687497
O19   O     O_3   0.963630 0.543720 0.989330 -0.345398
O20   O     O_3   0.036370 0.043720 0.010670 -0.382123
V3    V     V_3+5 0.006750 0.268680 0.001980 1.496568
V4    V     V_3+5 0.993250 0.768680 0.998020 1.487080
C65   C     C_2   0.773809 0.731512 0.147774 0.454257
H13   H     H_    0.748993 0.715173 0.184272 0.122273
O21   O     O_2   0.772287 0.607133 0.106889 -0.499338
C66   C     C_2   0.146532 0.263077 0.753685 0.478649
H14   H     H_    0.119487 0.144368 0.756947 0.032064
O22   O     O_2   0.171743 0.264247 0.709404 -0.471866
C67   C     C_2   0.722433 0.063638 0.930515 0.542629
H15   H     H_    0.750870 0.097056 0.980039 0.046155
O23   O     O_2   0.677583 0.978114 0.926849 -0.457626
C68   C     C_2   0.278313 0.532582 0.071388 0.557206
H16   H     H_    0.250230 0.559192 0.021138 0.024704
O24   O     O_2   0.323052 0.444408 0.077157 -0.457128
Br1   Br    Br    0.623297 0.342383 0.871297 -0.308475
Br2   Br    Br    0.378090 0.812898 0.126502 -0.309730
Br3   Br    Br    0.766696 0.284668 0.618243 -0.420588
Br4   Br    Br    0.233017 0.804365 0.378807 -0.417762
C69   C     C_2   0.890423 0.085122 0.644443 0.545060
H17   H     H_    0.937275 0.094453 0.653535 0.018672
O25   O     O_2   0.860551 0.063471 0.586504 -0.456246
C70   C     C_2   0.108577 0.611256 0.354734 0.546981
H18   H     H_    0.061734 0.623025 0.345194 0.017565
O26   O     O_2   0.138146 0.595139 0.413049 -0.452662
C71   C     C_2   0.919897 0.376551 0.160988 0.394060
H19   H     H_    0.948541 0.408717 0.210436 0.009769
O27   O     O_2   0.916005 0.485317 0.114580 -0.508254
C72   C     C_2   0.163228 0.851357 0.950914 0.385116
H20   H     H_    0.148570 0.828519 0.995750 0.051668
O28   O     O_2   0.187262 0.997982 0.945867 -0.514175
C73   C     C_2   0.641947 0.788000 0.267900 0.537568
H21   H     H_    0.620791 0.668090 0.282627 0.094161
O29   O     O_2   0.655905 0.781125 0.215103 -0.514737
C74   C     C_2   0.348296 0.292861 0.725853 0.561887
H22   H     H_    0.377960 0.184175 0.719721 0.075473
O30   O     O_2   0.320343 0.268761 0.766790 -0.494547
Br5   Br    Br    0.664213 0.503056 0.444654 -0.417434
Br6   Br    Br    0.334773 0.003194 0.548539 -0.409837
Br7   Br    Br    0.750469 0.448716 0.344264 -0.468486
Br8   Br    Br    0.242936 0.954078 0.641630 -0.356234
Br9   Br    Br    0.523206 0.283431 0.727049 -0.493348
Br10  Br    Br    0.477715 0.761106 0.271576 -0.488761

loop_
_geom_bond_atom_site_label_1
_geom_bond_atom_site_label_2
_ccdc_geom_bond_type
C48   C50   A    
C65   H13   S    
C13   H3    S    
O1    C3    A    
O2    C4    A    
C10   C61   S    
C2    O7    A    
C66   O22   D    
C51   C67   S    
C38   C60   A    
C71   H19   S    
C23   H5    S    
O5    C3    A    
O14   V4    S    
C33   Br1   S    
C57   Br9   S    
C7    H1    S    
C10   C12   A    
C4    C25   S    
C69   O25   D    
C37   C59   A    
C39   C41   A    
C40   C42   A    
C48   C56   A    
O16   C64   A    
C47   C55   A    
C42   C44   A    
C12   C72   S    
C27   C29   A    
C61   O18   A    
C51   C53   A    
C41   Br3   S    
C5    C65   S    
C68   H16   S    
C44   C46   A    
C52   C68   S    
C5    C7    A    
C36   C56   A    
C8    C10   A    
C20   C32   S    
C70   O26   D    
C74   H22   S    
C47   C49   A    
C19   C31   S    
C67   H15   S    
C15   C17   S    
C38   C40   A    
C37   H9    S    
O17   V3    S    
C18   C20   T    
C34   C50   A    
O6    V2    S    
C24   H6    S    
C65   O21   D    
C56   H8    S    
C67   O23   D    
C35   C57   A    
C66   H14   S    
C26   C28   A    
C53   H11   S    
C58   Br10  S    
C28   C30   A    
C27   Br5   S    
C41   C43   A    
C44   C48   A    
C13   C15   A    
C1    C36   S    
C14   C16   A    
C29   C31   A    
C23   C25   A    
O5    V1    S    
C34   C58   A    
C28   Br6   S    
C49   C51   A    
C16   C18   S    
O4    V2    S    
C7    C9    A    
O12   V3    S    
C21   C31   A    
O18   V4    S    
C60   C63   S    
O6    C4    A    
C29   Br7   S    
C40   C70   S    
C55   H7    S    
C9    C62   S    
C3    C26   S    
O1    V2    S    
C33   C49   A    
O2    V1    S    
C11   C71   S    
C54   H12   S    
O12   C64   A    
C36   C58   A    
C74   O30   D    
O14   C62   A    
C37   C39   A    
C5    C15   A    
C42   Br4   S    
O4    C2    A    
C6    C16   A    
C2    C35   S    
C33   C57   A    
O19   V4    S    
O3    V1    S    
C70   H18   S    
O16   V4    S    
C62   O17   A    
C39   C69   S    
C73   H21   S    
C45   C59   A    
C72   O28   D    
C46   C60   A    
C43   C45   A    
C35   C55   A    
C6    C66   S    
C8    H2    S    
O3    C1    A    
C38   H10   S    
C22   C32   A    
C34   Br2   S    
C11   C13   A    
C59   C64   S    
C12   C14   A    
C30   Br8   S    
C14   H4    S    
O7    V1    S    
C1    O8    A    
C21   C23   A    
O11   V4    S    
O8    V2    S    
C69   H17   S    
C22   C24   A    
O11   C63   A    
C72   H20   S    
C30   C32   A    
C17   C19   T    
C21   C73   S    
C6    C8    A    
C46   C54   A    
C68   O24   D    
C71   O27   D    
O15   C63   A    
O13   V3    S    
C43   C47   A    
C24   C26   A    
C9    C11   A    
C50   C52   A    
O20   V3    S    
O9    V2    S    
O13   C61   A    
O10   V1    S    
C52   C54   A    
O15   V3    S    
C45   C53   A    
C25   C27   A    
C22   C74   S    
C73   O29   D    
