data_mof_unit_62085.cif
_audit_creation_date              2012-10-26T17:43:24-0400
_audit_creation_method            fapswitch 2.2
_symmetry_space_group_name_H-M    P1
_symmetry_Int_Tables_number       1
_space_group_crystal_system       triclinic
_cell_length_a                    18.352682
_cell_length_b                    18.352676
_cell_length_c                    21.912977
_cell_angle_alpha                 90.000076
_cell_angle_beta                  90.000083
_cell_angle_gamma                 90.0
_cell_volume                      7380.7470237

loop_
_atom_site_label
_atom_site_type_symbol
_atom_type_description
_atom_site_fract_x
_atom_site_fract_y
_atom_site_fract_z
_atom_type_partial_charge
Br1   Br    Br    0.746938 0.348955 0.807844 -0.263830
Br2   Br    Br    0.848902 0.753033 0.307835 -0.263829
Br3   Br    Br    0.753066 0.151035 0.307848 -0.263830
Br4   Br    Br    0.151084 0.246959 0.307840 -0.263829
Br5   Br    Br    0.451965 0.288950 0.685328 -0.283224
Br6   Br    Br    0.711040 0.452011 0.685336 -0.283224
Br7   Br    Br    0.548019 0.711046 0.685332 -0.283221
Br8   Br    Br    0.288958 0.547993 0.685335 -0.283223
Br9   Br    Br    0.084033 0.652680 0.863144 -0.405819
Br10  Br    Br    0.652686 0.915979 0.863145 -0.405823
Br11  Br    Br    0.915967 0.347320 0.863144 -0.405817
Br12  Br    Br    0.348913 0.253039 0.807836 -0.263828
Br13  Br    Br    0.347312 0.084015 0.863145 -0.405825
Br14  Br    Br    0.932796 0.339785 0.137237 -0.383818
Br15  Br    Br    0.660206 0.932774 0.137234 -0.383792
Br16  Br    Br    0.067201 0.660216 0.137237 -0.383817
Br17  Br    Br    0.339793 0.067226 0.137235 -0.383797
Br18  Br    Br    0.584037 0.152679 0.363144 -0.405815
Br19  Br    Br    0.152689 0.415985 0.363146 -0.405828
Br20  Br    Br    0.415966 0.847321 0.363144 -0.405815
Br21  Br    Br    0.847310 0.584009 0.363145 -0.405829
Br22  Br    Br    0.432789 0.839788 0.637236 -0.383812
Br23  Br    Br    0.253062 0.651046 0.807844 -0.263827
Br24  Br    Br    0.160207 0.432777 0.637235 -0.383797
Br25  Br    Br    0.567206 0.160214 0.637236 -0.383815
Br26  Br    Br    0.839793 0.567225 0.637235 -0.383803
Br27  Br    Br    0.651068 0.746951 0.807843 -0.263827
Br28  Br    Br    0.951953 0.788949 0.185327 -0.283222
Br29  Br    Br    0.211040 0.952010 0.185333 -0.283227
Br30  Br    Br    0.048037 0.211049 0.185328 -0.283225
Br31  Br    Br    0.788961 0.047981 0.185338 -0.283222
Br32  Br    Br    0.246938 0.848954 0.307841 -0.263830
C1    C     C_R   0.000127 0.360067 0.999414 0.596146
C2    C     C_1   0.282436 0.999644 0.999513 0.062363
C3    C     C_1   0.999644 0.717564 0.999511 0.062365
C4    C     C_1   0.717564 0.000356 0.999513 0.062361
C5    C     C_1   0.500356 0.782436 0.499512 0.062361
C6    C     C_1   0.782436 0.499644 0.499513 0.062365
C7    C     C_1   0.499644 0.217564 0.499511 0.062363
C8    C     C_1   0.217564 0.500356 0.499513 0.062364
C9    C     C_R   1.000000 0.500000 0.880854 0.588417
C10   C     C_R   0.500000 1.000000 0.880854 0.588423
C11   C     C_R   0.000000 0.500000 0.118826 0.584809
C12   C     C_R   0.360067 0.999872 0.999415 0.596146
C13   C     C_R   0.500000 0.000000 0.118826 0.584802
C14   C     C_R   0.500000 1.000000 0.380854 0.588416
C15   C     C_R   0.000000 0.500000 0.380854 0.588425
C16   C     C_R   0.500000 1.000000 0.618826 0.584808
C17   C     C_R   1.000000 0.500000 0.618826 0.584802
C18   C     C_R   0.111549 0.580101 0.804295 0.160990
C19   C     C_R   0.580110 0.888457 0.804295 0.160988
C20   C     C_R   0.888451 0.419899 0.804295 0.160991
C21   C     C_R   0.419886 0.111539 0.804294 0.160987
C22   C     C_R   0.009636 0.364105 0.193008 0.127826
C23   C     C_R   0.999873 0.639933 0.999414 0.596147
C24   C     C_R   0.635898 0.009614 0.193009 0.127824
C25   C     C_R   0.990361 0.635894 0.193008 0.127827
C26   C     C_R   0.364103 0.990385 0.193008 0.127824
C27   C     C_R   0.611551 0.080098 0.304295 0.160992
C28   C     C_R   0.080115 0.388460 0.304295 0.160987
C29   C     C_R   0.388450 0.919900 0.304294 0.160991
C30   C     C_R   0.919882 0.611537 0.304294 0.160986
C31   C     C_R   0.509629 0.864104 0.693008 0.127825
C32   C     C_R   0.135897 0.509617 0.693009 0.127824
C33   C     C_R   0.490366 0.135895 0.693008 0.127827
C34   C     C_R   0.639933 0.000127 0.999415 0.596144
C35   C     C_R   0.864103 0.490384 0.693009 0.127823
C36   C     C_R   0.179063 0.588096 0.774451 0.204310
C37   C     C_R   0.588111 0.820945 0.774451 0.204311
C38   C     C_R   0.820937 0.411906 0.774451 0.204309
C39   C     C_R   0.411880 0.179050 0.774448 0.204311
C40   C     C_R   0.048038 0.306965 0.221125 0.197634
C41   C     C_R   0.693044 0.048004 0.221129 0.197631
C42   C     C_R   0.951956 0.693033 0.221124 0.197633
C43   C     C_R   0.306957 0.951992 0.221127 0.197631
C44   C     C_R   0.679065 0.088090 0.274453 0.204309
C45   C     C_R   0.500127 0.860067 0.499414 0.596144
C46   C     C_R   0.088121 0.320949 0.274449 0.204312
C47   C     C_R   0.320937 0.911906 0.274450 0.204309
C48   C     C_R   0.911872 0.679047 0.274448 0.204311
C49   C     C_R   0.548028 0.806962 0.721127 0.197633
C50   C     C_R   0.193042 0.548010 0.721128 0.197631
C51   C     C_R   0.451963 0.193035 0.721125 0.197633
C52   C     C_R   0.806957 0.451992 0.721128 0.197631
C53   C     C_R   0.139544 0.999896 0.999979 0.545529
C54   C     C_R   0.999896 0.860456 0.999979 0.545528
C55   C     C_R   0.860456 0.000104 0.999979 0.545528
C56   C     C_R   0.860067 0.499872 0.499416 0.596148
C57   C     C_R   0.000104 0.139544 0.999979 0.545528
C58   C     C_R   0.639544 0.499896 0.499979 0.545528
C59   C     C_R   0.499896 0.360455 0.499979 0.545528
C60   C     C_R   0.360455 0.500104 0.499979 0.545528
C61   C     C_R   0.500104 0.639544 0.499979 0.545528
C62   C     C_R   0.065240 0.512628 0.718441 -0.040135
C63   C     C_R   0.512634 0.934761 0.718441 -0.040135
C64   C     C_R   0.934760 0.487372 0.718441 -0.040136
C65   C     C_R   0.487365 0.065238 0.718441 -0.040134
C66   C     C_R   0.031604 0.441239 0.280183 -0.033878
C67   C     C_R   0.499872 0.139933 0.499414 0.596145
C68   C     C_R   0.558765 0.031595 0.280183 -0.033880
C69   C     C_R   0.968396 0.558760 0.280183 -0.033878
C70   C     C_R   0.441235 0.968405 0.280183 -0.033879
C71   C     C_R   0.565241 0.012627 0.218441 -0.040137
C72   C     C_R   0.012637 0.434762 0.218441 -0.040134
C73   C     C_R   0.434760 0.987373 0.218441 -0.040135
C74   C     C_R   0.987362 0.565238 0.218441 -0.040133
C75   C     C_R   0.531601 0.941238 0.780183 -0.033879
C76   C     C_R   0.058765 0.531596 0.780183 -0.033879
C77   C     C_R   0.468398 0.058761 0.780183 -0.033879
C78   C     C_R   0.139933 0.500127 0.499415 0.596147
C79   C     C_R   0.941235 0.468404 0.780183 -0.033879
C80   C     C_R   1.000000 0.500000 0.685573 0.046427
C81   C     C_R   0.500000 1.000000 0.685573 0.046427
C82   C     C_R   0.000000 0.500000 0.313557 0.035727
C83   C     C_R   0.500000 0.000000 0.313557 0.035722
C84   C     C_R   0.500000 0.000000 0.185573 0.046427
C85   C     C_R   0.000000 0.500000 0.185573 0.046427
C86   C     C_R   0.500000 1.000000 0.813557 0.035725
C87   C     C_R   1.000000 0.500000 0.813557 0.035722
C88   C     C_1   0.000297 0.217108 0.999810 0.043983
C89   C     C_1   0.000356 0.282436 0.999512 0.062364
C90   C     C_1   0.217109 0.999703 0.999810 0.043984
C91   C     C_1   0.999703 0.782891 0.999810 0.043984
C92   C     C_1   0.782891 0.000297 0.999810 0.043982
C93   C     C_1   0.500297 0.717109 0.499810 0.043982
C94   C     C_1   0.717108 0.499703 0.499811 0.043984
C95   C     C_1   0.499703 0.282891 0.499810 0.043983
C96   C     C_1   0.282891 0.500297 0.499810 0.043985
Cu1   Cu    Cu3+1 0.927460 0.500000 0.000000 1.150117
Cu2   Cu    Cu3+1 1.000000 1.000000 0.061780 1.248125
Cu3   Cu    Cu3+1 0.500000 0.500000 0.438220 1.108529
Cu4   Cu    Cu3+1 0.500000 0.500000 0.561780 1.248125
Cu5   Cu    Cu3+1 0.500000 0.072540 0.000000 1.150114
Cu6   Cu    Cu3+1 0.072540 0.500000 0.000000 1.150116
Cu7   Cu    Cu3+1 0.500000 0.927460 0.000000 1.150119
Cu8   Cu    Cu3+1 0.427460 1.000000 0.500000 1.150117
Cu9   Cu    Cu3+1 1.000000 0.572540 0.500000 1.150113
Cu10  Cu    Cu3+1 0.572540 1.000000 0.500000 1.150117
Cu11  Cu    Cu3+1 0.000000 0.427460 0.500000 1.150116
Cu12  Cu    Cu3+1 0.000000 0.000000 0.938220 1.108527
O1    O     O_R   0.938740 0.394190 0.000020 -0.451159
O2    O     O_R   0.894190 0.561260 0.500020 -0.451157
O3    O     O_R   0.561260 0.105810 0.500020 -0.451158
O4    O     O_R   0.105810 0.438740 0.500020 -0.451156
O5    O     O_R   0.438740 0.105810 0.499980 -0.508227
O6    O     O_R   0.894190 0.438740 0.499980 -0.508229
O7    O     O_R   0.561260 0.894190 0.499980 -0.508228
O8    O     O_R   0.105810 0.561260 0.499980 -0.508229
O9    O     O_R   0.938740 0.500000 0.909860 -0.486538
O10   O     O_R   0.500000 0.061260 0.909860 -0.486536
O11   O     O_R   0.061260 0.500000 0.909860 -0.486537
O12   O     O_R   0.394190 0.061260 0.000020 -0.451156
O13   O     O_R   0.500000 0.938740 0.909860 -0.486536
O14   O     O_R   0.938740 0.500000 0.090140 -0.482666
O15   O     O_R   0.500000 0.938740 0.090140 -0.482665
O16   O     O_R   0.061260 0.500000 0.090140 -0.482667
O17   O     O_R   0.500000 0.061260 0.090140 -0.482665
O18   O     O_R   0.438740 1.000000 0.409860 -0.486538
O19   O     O_R   0.000000 0.561260 0.409860 -0.486536
O20   O     O_R   0.561260 1.000000 0.409860 -0.486537
O21   O     O_R   0.000000 0.438740 0.409860 -0.486535
O22   O     O_R   0.438740 1.000000 0.590140 -0.482665
O23   O     O_R   0.061260 0.605810 0.000020 -0.451160
O24   O     O_R   0.000000 0.438740 0.590140 -0.482666
O25   O     O_R   0.561260 1.000000 0.590140 -0.482666
O26   O     O_R   0.000000 0.561260 0.590140 -0.482666
O27   O     O_R   0.105780 0.999970 0.947820 -0.501896
O28   O     O_R   0.999970 0.894220 0.947820 -0.501899
O29   O     O_R   0.894220 0.000030 0.947820 -0.501897
O30   O     O_R   0.000030 0.105780 0.947820 -0.501898
O31   O     O_R   0.105780 0.000030 0.052180 -0.464566
O32   O     O_R   0.999970 0.105780 0.052180 -0.464566
O33   O     O_R   0.894220 0.999970 0.052180 -0.464565
O34   O     O_R   0.605810 0.938740 0.000020 -0.451155
O35   O     O_R   0.000030 0.894220 0.052180 -0.464565
O36   O     O_R   0.605780 0.499970 0.447820 -0.501895
O37   O     O_R   0.499970 0.394220 0.447820 -0.501899
O38   O     O_R   0.394220 0.500030 0.447820 -0.501896
O39   O     O_R   0.500030 0.605780 0.447820 -0.501898
O40   O     O_R   0.605780 0.500030 0.552180 -0.464567
O41   O     O_R   0.499970 0.605780 0.552180 -0.464565
O42   O     O_R   0.394220 0.499970 0.552180 -0.464565
O43   O     O_R   0.500030 0.394220 0.552180 -0.464565
O44   O     O_R   0.938740 0.605810 0.999980 -0.508226
O45   O     O_R   0.394190 0.938740 0.999980 -0.508230
O46   O     O_R   0.061260 0.394190 0.999980 -0.508227
O47   O     O_R   0.605810 0.061260 0.999980 -0.508231
O48   O     O_R   0.438740 0.894190 0.500020 -0.451158

loop_
_geom_bond_atom_site_label_1
_geom_bond_atom_site_label_2
_ccdc_geom_bond_type
Br25  C33   S    
Cu12  O28   S    
C15   C82   S    
C18   C76   A    
Cu9   O2    S    
Cu11  O6    S    
Cu12  O29   S    
C27   C68   A    
C31   C63   A    
Cu6   O46   S    
C73   C84   A    
Br28  C42   S    
Cu3   O37   S    
Cu8   O22   S    
C15   O19   A    
Cu1   O9    S    
Cu5   O12   S    
C28   C46   A    
C12   O12   A    
C59   C95   S    
C14   C83   S    
C31   C49   A    
Cu10  O25   S    
Br8   C50   S    
Br26  C35   S    
C30   C48   A    
Cu11  O24   S    
C4    C92   T    
Br23  C36   S    
C63   C81   A    
C57   O30   A    
C28   C66   A    
Cu10  O3    S    
Cu4   O43   S    
Cu1   O14   S    
Br5   C51   S    
C4    C34   S    
C33   C51   A    
C9    O9    A    
C55   O29   A    
C58   O36   A    
Cu3   O36   S    
Cu7   O15   S    
Cu6   O23   S    
C70   C73   A    
C79   C87   A    
C54   O35   A    
Br20  C29   S    
C17   O24   A    
C40   C46   A    
Br11  C20   S    
Cu9   O8    S    
Cu4   O42   S    
Br22  C31   S    
C67   O3    A    
C61   O41   A    
Cu6   O16   S    
C16   O25   A    
Cu2   O32   S    
C77   C86   A    
C23   O44   A    
C1    O46   A    
C70   C83   A    
C20   C38   A    
C11   O14   A    
C38   C52   A    
C45   O7    A    
C75   C86   A    
C39   C51   A    
Cu8   O5    S    
Br27  C37   S    
Br17  C26   S    
C30   C69   A    
Cu8   O18   S    
Cu12  O27   S    
C25   C74   A    
C67   O5    A    
Cu2   Cu12  S    
C35   C52   A    
C2    C90   T    
C42   C48   A    
C34   O47   A    
Cu8   O48   S    
C1    C89   S    
C69   C82   A    
C76   C87   A    
C68   C83   A    
C78   O8    A    
Br10  C19   S    
C60   C96   S    
C56   O2    A    
Cu9   O26   S    
C6    C94   T    
Cu3   O38   S    
C26   C43   A    
C5    C93   T    
Cu2   O33   S    
C61   O39   A    
C55   O33   A    
C64   C79   A    
C58   O40   A    
Br6   C52   S    
Cu9   O19   S    
C3    C23   S    
C53   O27   A    
Cu7   O34   S    
Cu11  O21   S    
C10   O13   A    
C13   O17   A    
C57   O32   A    
Cu8   Cu10  S    
Cu3   O39   S    
C10   C86   S    
Cu1   O1    S    
C8    C78   S    
C20   C79   A    
C1    O1    A    
C5    C45   S    
C68   C71   A    
C6    C56   S    
C7    C95   T    
C25   C42   A    
Br13  C21   S    
Br4   C46   S    
C16   O22   A    
Cu4   O41   S    
C14   O18   A    
C65   C77   A    
Cu11  O4    S    
Br9   C18   S    
C7    C67   S    
C57   C88   S    
Cu10  O7    S    
C14   O20   A    
C58   C94   S    
C54   O28   A    
C53   C90   S    
C53   O31   A    
C9    C87   S    
C12   O45   A    
C78   O4    A    
Br3   C44   S    
Cu9   Cu11  S    
C32   C50   A    
Br21  C30   S    
C63   C75   A    
C11   C85   S    
C37   C49   A    
Br29  C43   S    
C60   O38   A    
C19   C75   A    
Br14  C22   S    
Br12  C39   S    
Cu4   O40   S    
C17   C80   S    
C74   C85   A    
C35   C64   A    
Cu2   O35   S    
C41   C44   A    
C65   C81   A    
C11   O16   A    
C21   C39   A    
C62   C76   A    
C88   C89   T    
Cu2   O31   S    
C72   C85   A    
C21   C77   A    
C69   C74   A    
C2    C12   S    
Cu12  O30   S    
C24   C41   A    
Br7   C49   S    
C59   O43   A    
Cu1   O44   S    
Cu5   O10   S    
C24   C71   A    
Br30  C40   S    
C9    O11   A    
Br19  C28   S    
C66   C82   A    
C22   C72   A    
Br1   C38   S    
Cu7   O13   S    
C26   C73   A    
C36   C50   A    
Br15  C24   S    
Br2   C48   S    
C3    C91   T    
C71   C84   A    
C23   O23   A    
C17   O26   A    
C60   O42   A    
Br32  C47   S    
C13   C84   S    
C55   C92   S    
C43   C47   A    
C29   C47   A    
C66   C72   A    
Cu6   O11   S    
C59   O37   A    
C62   C80   A    
C64   C80   A    
C29   C70   A    
Cu5   O17   S    
Br16  C25   S    
C13   O15   A    
C10   O10   A    
C61   C93   S    
Br31  C41   S    
Cu5   O47   S    
C32   C62   A    
Cu1   Cu6   S    
C15   O21   A    
Cu10  O20   S    
Br18  C27   S    
C22   C40   A    
C33   C65   A    
Br24  C32   S    
C54   C91   S    
Cu5   Cu7   S    
C45   O48   A    
C56   O6    A    
C34   O34   A    
C19   C37   A    
C18   C36   A    
C27   C44   A    
Cu7   O45   S    
Cu3   Cu4   S    
C16   C81   S    
C8    C96   T    
