data_mof_unit_36247.cif
_audit_creation_date              2012-12-11T17:02:16-0500
_audit_creation_method            fapswitch 2.2
_symmetry_space_group_name_H-M    P1
_symmetry_Int_Tables_number       1
_space_group_crystal_system       triclinic
_cell_length_a                    21.645769
_cell_length_b                    7.068024
_cell_length_c                    14.830919
_cell_angle_alpha                 89.701871
_cell_angle_beta                  105.973324
_cell_angle_gamma                 89.917175
_cell_volume                      2181.37755174

loop_
_atom_site_label
_atom_site_type_symbol
_atom_type_description
_atom_site_fract_x
_atom_site_fract_y
_atom_site_fract_z
_atom_type_partial_charge
O1    O     O_R   0.585850 0.505770 0.002130 -0.552011
O2    O     O_R   0.414150 0.005770 0.997870 -0.552320
O3    O     O_R   0.467530 0.173560 0.861970 -0.535779
O4    O     O_R   0.532470 0.673560 0.138030 -0.535995
C1    C     C_R   0.455836 0.345108 0.825296 0.684200
C2    C     C_R   0.544227 0.843720 0.174794 0.684260
O5    O     O_R   0.588690 0.175900 0.993250 -0.533432
O6    O     O_R   0.411310 0.675900 0.006750 -0.533112
O7    O     O_R   0.536170 0.007950 0.130090 -0.538448
O8    O     O_R   0.463830 0.507950 0.869910 -0.538474
C3    C     C_R   0.614968 0.344631 0.997113 0.695465
C4    C     C_R   0.385016 0.844796 0.002819 0.696746
O9    O     O_3   0.482630 0.339970 0.044740 -0.380075
O10   O     O_3   0.517370 0.839970 0.955260 -0.379980
V1    V     V_3+5 0.503220 0.064200 0.991700 1.420748
V2    V     V_3+5 0.496780 0.564200 0.008300 1.422244
C5    C     C_R   0.292755 0.006296 0.045486 0.094314
C6    C     C_R   0.707008 0.506638 0.953968 0.098560
C7    C     C_R   0.317166 0.852685 0.006364 -0.150973
C8    C     C_R   0.682801 0.352420 0.993440 -0.150916
C9    C     C_R   0.274814 0.701515 0.972657 -0.112097
C10   C     C_R   0.725396 0.200889 0.027549 -0.116320
H1    H     H_    0.291398 0.578873 0.942789 0.124837
H2    H     H_    0.708991 0.077663 0.057604 0.123428
C11   C     C_R   0.209412 0.712866 0.970817 -0.179644
C12   C     C_R   0.790822 0.212573 0.029556 -0.179211
H3    H     H_    0.177864 0.597348 0.940757 0.125258
H4    H     H_    0.822541 0.096640 0.059890 0.124688
C13   C     C_R   0.184166 0.876795 0.001549 -0.113687
C14   C     C_R   0.815845 0.377138 0.998554 -0.111756
C15   C     C_R   0.227901 0.018561 0.042226 0.057703
C16   C     C_R   0.771857 0.519158 0.957329 0.054573
C17   C     C_3   0.225526 0.226205 0.023798 -0.374920
C18   C     C_3   0.773760 0.726695 0.974837 -0.376806
C19   C     C_3   0.296568 0.213792 0.028595 0.184825
C20   C     C_3   0.702703 0.714026 0.969908 0.187848
H5    H     H_    0.215204 0.307894 0.081928 0.193903
H6    H     H_    0.783979 0.808772 0.916401 0.193954
H7    H     H_    0.194668 0.262010 0.952533 0.118177
H8    H     H_    0.804468 0.762167 0.045981 0.119548
H9    H     H_    0.308172 0.250067 0.961951 0.064516
H10   H     H_    0.690918 0.749898 0.036301 0.065532
C21   C     C_R   0.926843 0.888804 0.723426 -0.034019
C22   C     C_R   0.073452 0.381930 0.276220 -0.030448
C23   C     C_R   0.571785 0.847151 0.276472 -0.030699
C24   C     C_R   0.428241 0.356169 0.723829 -0.029256
C25   C     C_R   0.936154 0.944754 0.567214 -0.168222
C26   C     C_R   0.062189 0.354606 0.432937 -0.167684
C27   C     C_R   0.964291 0.933566 0.663419 -0.176062
C28   C     C_R   0.034463 0.365042 0.336574 -0.178544
C29   C     C_R   0.860928 0.856172 0.687306 -0.209574
C30   C     C_R   0.140308 0.388221 0.311963 -0.209267
C31   C     C_R   0.830588 0.870798 0.589736 0.106428
C32   C     C_R   0.169971 0.378878 0.409796 0.106931
C33   C     C_R   0.869877 0.915500 0.530109 0.146543
C34   C     C_R   0.129263 0.361353 0.469883 0.146851
C35   C     C_R   0.762805 0.846418 0.549702 -0.026741
C36   C     C_R   0.238251 0.385666 0.449800 -0.026975
C37   C     C_R   0.735645 0.868560 0.450818 0.057985
C38   C     C_R   0.264477 0.372882 0.549216 0.058414
C39   C     C_R   0.777321 0.911770 0.394940 -0.168064
C40   C     C_R   0.221504 0.355527 0.605523 -0.167274
C41   C     C_R   0.842838 0.933848 0.433925 -0.206978
C42   C     C_R   0.155538 0.350322 0.566484 -0.207142
C43   C     C_R   0.721530 0.799962 0.605362 -0.185154
C44   C     C_R   0.280937 0.406771 0.393620 -0.184952
C45   C     C_R   0.655874 0.774528 0.567292 0.341015
C46   C     C_R   0.347148 0.415223 0.431666 0.340805
C47   C     C_R   0.627853 0.804099 0.470412 0.028445
C48   C     C_R   0.374000 0.392538 0.529242 0.027480
C49   C     C_R   0.667751 0.848118 0.411059 0.044875
C50   C     C_R   0.332735 0.375653 0.589054 0.045834
C51   C     C_R   0.560604 0.792747 0.431701 -0.154905
C52   C     C_R   0.441303 0.381845 0.568129 -0.154480
C53   C     C_R   0.533165 0.810964 0.335591 -0.150182
C54   C     C_R   0.467980 0.364639 0.664486 -0.150284
C55   C     C_R   0.637988 0.868519 0.313544 -0.185578
C56   C     C_R   0.361622 0.360707 0.686959 -0.184047
H11   H     H_    0.872642 0.967882 0.388088 0.118565
H12   H     H_    0.124687 0.336820 0.612702 0.117987
H13   H     H_    0.664643 0.895291 0.263381 0.083773
H14   H     H_    0.334182 0.352363 0.737320 0.081689
H15   H     H_    0.481701 0.794822 0.307106 0.124697
H16   H     H_    0.519746 0.358758 0.692859 0.123654
H17   H     H_    0.966095 0.979893 0.521764 0.116221
H18   H     H_    0.031114 0.341071 0.478793 0.115946
H19   H     H_    0.015190 0.961384 0.691232 0.104378
H20   H     H_    0.982657 0.359630 0.309019 0.102831
H21   H     H_    0.834857 0.826326 0.737948 0.098183
H22   H     H_    0.167265 0.399355 0.261038 0.096676
H23   H     H_    0.761212 0.930907 0.320144 0.113471
H24   H     H_    0.236862 0.345153 0.680749 0.113030
H25   H     H_    0.738818 0.776641 0.679827 0.161067
H26   H     H_    0.264561 0.422247 0.318595 0.162413
H27   H     H_    0.528293 0.769362 0.474723 0.122918
H28   H     H_    0.474194 0.383751 0.524905 0.124305
O11   O     O_R   0.036080 0.231270 0.130120 -0.538342
O12   O     O_R   0.963920 0.731270 0.869880 -0.538895
O13   O     O_R   0.911300 0.558970 0.006750 -0.542452
O14   O     O_R   0.088700 0.058970 0.993250 -0.542285
C57   C     C_R   0.884883 0.389984 0.001965 0.697880
C58   C     C_R   0.115121 0.889803 0.998052 0.698728
O15   O     O_R   0.032450 0.561140 0.138040 -0.538756
O16   O     O_R   0.967550 0.061140 0.861960 -0.538861
O17   O     O_R   0.085870 0.728910 0.002130 -0.539841
O18   O     O_R   0.914130 0.228910 0.997870 -0.539272
C59   C     C_R   0.044865 0.391973 0.174986 0.692711
C60   C     C_R   0.955083 0.893241 0.824921 0.693035
O19   O     O_3   0.017320 0.394650 0.955270 -0.374742
O20   O     O_3   0.982680 0.894650 0.044730 -0.374322
V3    V     V_3+5 0.996780 0.670490 0.008300 1.413801
V4    V     V_3+5 0.003220 0.170490 0.991700 1.414794
O21   O     O_3   0.620971 0.720234 0.628141 -0.627548
H29   H     H_    0.588028 0.628052 0.595805 0.279472
O22   O     O_3   0.383774 0.445227 0.370055 -0.627011
H30   H     H_    0.420144 0.528535 0.400601 0.278814
O23   O     O_3   0.334668 0.306353 0.107782 -0.609302
H31   H     H_    0.379833 0.284271 0.107482 0.317513
O24   O     O_3   0.664475 0.806916 0.890255 -0.608820
H32   H     H_    0.619322 0.783173 0.890044 0.317447

loop_
_geom_bond_atom_site_label_1
_geom_bond_atom_site_label_2
_ccdc_geom_bond_type
C44   C46   A    
C2    C23   S    
C51   C53   A    
C27   H19   S    
C20   H10   S    
O1    C3    A    
O16   C60   A    
O2    C4    A    
C54   H16   S    
C2    O7    A    
C24   C54   A    
C25   C27   A    
C41   H11   S    
O5    C3    A    
C17   H7    S    
C52   C54   A    
C18   H8    S    
C25   H17   S    
C10   H2    S    
O15   V3    S    
C7    C9    A    
O19   V3    S    
C35   C37   A    
C38   C50   A    
C36   C38   A    
O22   H30   S    
O12   C60   A    
C14   C57   S    
C58   O17   A    
C38   C40   A    
C47   C49   A    
C20   O24   S    
O20   V3    S    
C50   C56   A    
C17   C19   S    
C30   H22   S    
C36   C44   A    
C43   C45   A    
C33   C41   A    
C48   C52   A    
C40   C42   A    
C34   C42   A    
C47   C51   A    
C18   C20   S    
C28   H20   S    
C44   H26   S    
C22   C30   A    
C26   C28   A    
O17   V3    S    
C25   C33   A    
O6    V2    S    
C42   H12   S    
O14   C58   A    
C30   C32   A    
C31   C33   A    
C11   C13   A    
C32   C34   A    
C3    C8    S    
C37   C39   A    
C48   C50   A    
C53   H15   S    
C52   H28   S    
O4    C2    A    
O19   V4    S    
C24   C56   A    
O11   V4    S    
C31   C35   A    
C21   C27   A    
O18   V4    S    
C17   H5    S    
C40   H24   S    
C29   C31   A    
C16   C18   S    
O4    V2    S    
C56   H14   S    
C55   H13   S    
O6    C4    A    
O13   V3    S    
C15   C17   S    
O1    V2    S    
O2    V1    S    
O13   C57   A    
C8    C10   A    
O14   V4    S    
C9    H1    S    
C5    C15   A    
C26   H18   S    
C19   O23   S    
C6    C16   A    
C51   H27   S    
C49   C55   A    
O3    V1    S    
O16   V4    S    
O21   H29   S    
C32   C36   A    
C22   C59   S    
C22   C28   A    
C57   O18   A    
C26   C34   A    
C9    C11   A    
O12   V3    S    
C18   H6    S    
C39   C41   A    
C35   C43   A    
O3    C1    A    
O15   C59   A    
O24   H32   S    
C12   C14   A    
C11   H3    S    
C1    C24   S    
C12   H4    S    
C23   C53   A    
C45   O21   S    
C1    O8    A    
C13   C15   A    
O8    V2    S    
O23   H31   S    
C29   H21   S    
C14   C16   A    
C21   C29   A    
C4    C7    S    
O5    V1    S    
C43   H25   S    
C5    C7    A    
C13   C58   S    
C6    C8    A    
C21   C60   S    
O7    V1    S    
C19   H9    S    
O20   V4    S    
C46   O22   S    
O11   C59   A    
C46   C48   A    
C10   C12   A    
O9    V2    S    
O10   V1    S    
C23   C55   A    
C5    C19   S    
C45   C47   A    
C6    C20   S    
C39   H23   S    
C37   C49   A    
