data_mof_unit_30923.cif
_audit_creation_date              2012-12-11T16:12:50-0500
_audit_creation_method            fapswitch 2.2
_symmetry_space_group_name_H-M    P1
_symmetry_Int_Tables_number       1
_space_group_crystal_system       triclinic
_cell_length_a                    23.512894
_cell_length_b                    13.606105
_cell_length_c                    28.419863
_cell_angle_alpha                 89.941024
_cell_angle_beta                  90.464329
_cell_angle_gamma                 89.853203
_cell_volume                      9091.71802389

loop_
_atom_site_label
_atom_site_type_symbol
_atom_type_description
_atom_site_fract_x
_atom_site_fract_y
_atom_site_fract_z
_atom_type_partial_charge
C1    C     C_R   0.285051 0.004755 0.816344 0.539470
C2    C     C_R   0.715258 0.005462 0.183941 0.538671
C3    C     C_R   0.784604 0.505045 0.816110 0.541558
C4    C     C_R   0.214961 0.504873 0.183661 0.538608
C5    C     C_3   0.492317 0.839756 0.954519 0.040258
C6    C     C_3   0.502977 0.839610 0.046726 0.037155
C7    C     C_3   0.009400 0.345905 0.949814 0.040397
C8    C     C_3   0.021216 0.348752 0.042003 0.033885
C9    C     C_3   0.512354 0.733848 0.026901 0.157547
C10   C     C_3   0.503689 0.733419 0.972743 0.163783
C11   C     C_3   0.993013 0.250607 0.025850 0.153064
C12   C     C_3   0.991642 0.245117 0.971322 0.149844
C13   C     C_1   0.513727 0.836124 0.097630 -0.028550
C14   C     C_1   0.482843 0.835239 0.903465 -0.021194
C15   C     C_1   0.028743 0.342409 0.093304 -0.046248
C16   C     C_1   0.995729 0.340441 0.899187 -0.043155
C17   C     C_1   0.263952 0.627761 0.859273 -0.017859
C18   C     C_1   0.730913 0.636085 0.137970 -0.016870
C19   C     C_1   0.765058 0.131267 0.860154 -0.018657
C20   C     C_1   0.236109 0.128522 0.140687 -0.016271
C21   C     C_R   0.291866 0.525612 0.972789 0.290943
C22   C     C_R   0.740182 0.495901 0.030260 0.289728
C23   C     C_R   0.788239 0.016992 0.973272 0.289446
C24   C     C_R   0.206651 0.031222 0.026812 0.292334
C25   C     C_R   0.287396 0.514665 0.021968 0.301759
C26   C     C_R   0.746338 0.482026 0.981417 0.289202
C27   C     C_R   0.784931 0.007878 0.022581 0.290299
C28   C     C_R   0.211629 0.018966 0.977786 0.302645
C29   C     C_R   0.199936 0.610112 0.020628 -0.171264
C30   C     C_R   0.722550 0.653960 0.968029 -0.162663
C31   C     C_R   0.714951 0.139352 0.024570 -0.161107
C32   C     C_R   0.300969 0.108095 0.979493 -0.191808
C33   C     C_R   0.203269 0.617928 0.971842 -0.164687
C34   C     C_R   0.715393 0.666769 0.016241 -0.187687
C35   C     C_R   0.718593 0.149801 0.976000 -0.160154
C36   C     C_R   0.297536 0.115814 0.028297 -0.191985
C37   C     C_R   0.249294 0.576969 0.947853 -0.011176
C38   C     C_R   0.728603 0.590607 0.047609 -0.023719
C39   C     C_R   0.754605 0.088792 0.950085 -0.029749
C40   C     C_R   0.250297 0.078759 0.052008 -0.016627
C41   C     C_R   0.242503 0.560627 0.045880 -0.006659
C42   C     C_R   0.739728 0.562764 0.950619 -0.014889
C43   C     C_R   0.748905 0.070583 0.048095 0.000478
C44   C     C_R   0.257626 0.061515 0.954064 -0.013958
C45   C     C_R   0.445863 0.823910 0.816671 0.538152
C46   C     C_R   0.553863 0.824185 0.183502 0.538295
C47   C     C_R   0.946820 0.324244 0.816169 0.539917
C48   C     C_R   0.055533 0.324401 0.182491 0.539948
C49   C     C_1   0.237067 0.549687 0.095908 -0.018364
C50   C     C_1   0.752701 0.552375 0.901527 -0.027549
C51   C     C_1   0.741461 0.056689 0.097763 -0.028628
C52   C     C_1   0.263076 0.050056 0.904062 -0.018412
C53   C     C_1   0.256358 0.599694 0.898868 -0.038351
C54   C     C_1   0.730878 0.611894 0.097214 -0.046726
C55   C     C_1   0.759157 0.106793 0.900466 -0.044525
C56   C     C_1   0.243584 0.101014 0.101026 -0.035532
C57   C     C_1   0.229546 0.534071 0.137028 -0.005830
C58   C     C_1   0.766365 0.536827 0.861504 -0.003797
C59   C     C_1   0.731725 0.038138 0.138269 -0.014182
C60   C     C_1   0.270470 0.034086 0.862959 -0.001899
C61   C     C_1   0.470368 0.834005 0.638971 -0.014962
C62   C     C_1   0.530215 0.833788 0.361284 -0.017469
C63   C     C_1   0.970371 0.334006 0.638972 -0.014875
C64   C     C_1   0.030219 0.333788 0.361285 -0.017044
C65   C     C_R   0.517284 0.758521 0.527047 -0.113992
C66   C     C_R   0.523031 0.757042 0.478296 -0.118896
C67   C     C_R   0.017298 0.258528 0.527050 -0.113962
C68   C     C_R   0.023046 0.257049 0.478299 -0.118997
C69   C     C_R   0.485766 0.923352 0.473644 -0.112601
C70   C     C_R   0.479943 0.924705 0.522538 -0.112244
C71   C     C_R   0.985769 0.423351 0.473645 -0.112456
C72   C     C_R   0.979945 0.424704 0.522539 -0.112285
C73   C     C_R   0.495992 0.842373 0.549231 0.039777
C74   C     C_R   0.506982 0.839151 0.451528 0.032009
C75   C     C_R   0.996000 0.342376 0.549234 0.039771
C76   C     C_R   0.006991 0.339154 0.451530 0.031982
C77   C     C_1   0.516796 0.838193 0.401897 -0.068337
C78   C     C_1   0.484659 0.839422 0.598601 -0.062256
C79   C     C_1   0.016802 0.338194 0.401899 -0.068075
C80   C     C_1   0.984664 0.339423 0.598603 -0.062244
C81   C     C_1   0.265014 0.631219 0.638147 0.012194
C82   C     C_1   0.735447 0.630373 0.361596 0.007107
C83   C     C_1   0.765014 0.131221 0.638147 0.012266
C84   C     C_1   0.235448 0.130369 0.361595 0.006905
C85   C     C_R   0.199958 0.604096 0.526480 0.290480
C86   C     C_R   0.794511 0.630458 0.475226 0.279169
C87   C     C_R   0.699958 0.104101 0.526479 0.290522
C88   C     C_R   0.294517 0.130445 0.475223 0.279063
C89   C     C_R   0.274317 0.673332 0.814822 0.538459
C90   C     C_R   0.725003 0.674837 0.184493 0.541210
C91   C     C_R   0.774377 0.173533 0.814883 0.541727
C92   C     C_R   0.225723 0.173513 0.185201 0.537943
C93   C     C_R   0.197706 0.597621 0.476804 -0.155782
C94   C     C_R   0.796509 0.621211 0.524630 -0.162516
C95   C     C_R   0.697707 0.097626 0.476803 -0.155802
C96   C     C_R   0.296515 0.121197 0.524627 -0.162482
C97   C     C_R   0.299003 0.561174 0.473972 0.262568
C98   C     C_R   0.706575 0.532982 0.523995 0.272840
C99   C     C_R   0.799003 0.061177 0.473972 0.262595
C100  C     C_R   0.206580 0.032971 0.523992 0.272798
C101  C     C_R   0.301648 0.566350 0.522940 -0.153385
C102  C     C_R   0.705127 0.539364 0.474893 -0.151247
C103  C     C_R   0.801648 0.066352 0.522940 -0.153407
C104  C     C_R   0.205132 0.039352 0.474890 -0.151205
C105  C     C_R   0.252840 0.588282 0.548773 0.012602
C106  C     C_R   0.748497 0.587896 0.450917 0.011803
C107  C     C_R   0.752841 0.088285 0.548773 0.012584
C108  C     C_R   0.248502 0.087883 0.450914 0.011751
C109  C     C_R   0.246713 0.576260 0.451117 0.004208
C110  C     C_R   0.752611 0.574107 0.548604 0.003255
C111  C     C_R   0.746714 0.076264 0.451116 0.004216
C112  C     C_R   0.252616 0.074095 0.548602 0.003263
C113  C     C_1   0.241027 0.560973 0.401609 -0.016870
C114  C     C_1   0.758837 0.559205 0.598082 -0.009049
C115  C     C_1   0.741029 0.060976 0.401608 -0.016907
C116  C     C_1   0.258841 0.059197 0.598080 -0.009005
C117  C     C_1   0.258886 0.606356 0.598048 0.006064
C118  C     C_1   0.742018 0.605296 0.401636 -0.002525
C119  C     C_1   0.758886 0.106358 0.598048 0.006029
C120  C     C_1   0.242021 0.105288 0.401634 -0.002607
C121  C     C_1   0.231957 0.541313 0.361212 -0.004062
C122  C     C_1   0.768165 0.540375 0.638545 0.002792
C123  C     C_1   0.731958 0.041315 0.361212 -0.004147
C124  C     C_1   0.268167 0.040372 0.638543 0.002858
C125  C     C_R   0.284512 0.006981 0.683974 0.543604
C126  C     C_R   0.715548 0.007213 0.315945 0.542625
C127  C     C_R   0.784511 0.506981 0.683974 0.542134
C128  C     C_R   0.215548 0.507213 0.315945 0.543605
C129  C     C_R   0.445730 0.825257 0.684425 0.546820
C130  C     C_R   0.554255 0.825312 0.315585 0.546217
C131  C     C_R   0.945731 0.325257 0.684425 0.546547
C132  C     C_R   0.054255 0.325312 0.315585 0.547682
C133  C     C_R   0.274219 0.674024 0.683067 0.544213
C134  C     C_R   0.725883 0.673876 0.316843 0.545341
C135  C     C_R   0.774219 0.174025 0.683067 0.544389
C136  C     C_R   0.225883 0.173876 0.316844 0.543529
C137  C     C_3   0.436362 0.874740 0.977980 -0.210651
C138  C     C_3   0.549121 0.905363 0.023944 -0.210738
C139  C     C_3   0.970836 0.425771 0.972524 -0.189621
C140  C     C_3   0.080222 0.354256 0.017283 -0.195938
C141  C     C_3   0.542077 0.911496 0.969004 0.533039
C142  C     C_3   0.442032 0.880940 0.033010 0.536017
C143  C     C_3   0.073851 0.369130 0.962414 0.554168
C144  C     C_3   0.984515 0.440804 0.026113 0.550741
C145  C     C_1   0.528435 0.831590 0.138076 -0.034763
C146  C     C_1   0.469690 0.830625 0.862677 -0.030921
C147  C     C_1   0.037388 0.333725 0.134799 -0.034337
C148  C     C_1   0.976837 0.333143 0.859888 -0.036313
Cr1   Cr    Cr6+3 0.250680 0.837130 0.748990 1.039816
Cr2   Cr    Cr6+3 0.749320 0.837130 0.251010 1.037178
Cr3   Cr    Cr6+3 0.750680 0.337130 0.748990 1.042632
Cr4   Cr    Cr6+3 0.249320 0.337130 0.251010 1.033435
Cr5   Cr    Cr6+3 0.378160 0.960100 0.750430 1.022893
Cr6   Cr    Cr6+3 0.621840 0.960100 0.249570 1.022364
Cr7   Cr    Cr6+3 0.878160 0.460100 0.750430 1.024561
Cr8   Cr    Cr6+3 0.121840 0.460100 0.249570 1.025650
Cr9   Cr    Cr6+3 0.376090 0.707720 0.749670 1.027796
Cr10  Cr    Cr6+3 0.623910 0.707720 0.250330 1.020055
Cr11  Cr    Cr6+3 0.876090 0.207720 0.749670 1.020105
Cr12  Cr    Cr6+3 0.123910 0.207720 0.250330 1.026519
H1    H     H_    0.170494 0.657897 0.952884 0.129515
H2    H     H_    0.701182 0.737299 0.029182 0.113677
H3    H     H_    0.692588 0.204842 0.958476 0.169478
H4    H     H_    0.331272 0.152414 0.047492 0.131141
H5    H     H_    0.528575 0.693970 0.547381 0.095911
H6    H     H_    0.540074 0.691992 0.461475 0.099410
H7    H     H_    0.028593 0.193979 0.547385 0.095942
H8    H     H_    0.040093 0.192001 0.461478 0.099422
H9    H     H_    0.473877 0.987581 0.453218 0.121686
H10   H     H_    0.462257 0.989117 0.539422 0.108312
H11   H     H_    0.973875 0.487576 0.453219 0.122039
H12   H     H_    0.962254 0.489113 0.539423 0.108305
H13   H     H_    0.158393 0.608158 0.457385 0.093490
H14   H     H_    0.832528 0.648089 0.544717 0.096740
H15   H     H_    0.658394 0.108164 0.457383 0.093325
H16   H     H_    0.332534 0.148075 0.544714 0.096814
H17   H     H_    0.342079 0.554838 0.540744 0.119609
H18   H     H_    0.670027 0.506904 0.455496 0.116176
H19   H     H_    0.842078 0.054838 0.540744 0.119562
H20   H     H_    0.170031 0.006893 0.455494 0.116380
H21   H     H_    0.423556 0.947475 0.963259 0.158911
H22   H     H_    0.547525 0.980317 0.039570 0.157233
H23   H     H_    0.974507 0.496807 0.953411 0.142758
H24   H     H_    0.106415 0.414314 0.032616 0.141819
H25   H     H_    0.591805 0.875724 0.033638 0.079239
H26   H     H_    0.401490 0.823452 0.967879 0.078831
H27   H     H_    0.104041 0.285167 0.024879 0.081581
H28   H     H_    0.926141 0.402099 0.968029 0.072817
H29   H     H_    0.464235 0.690796 0.964671 0.100122
H30   H     H_    0.557983 0.714219 0.034123 0.123918
H31   H     H_    0.946459 0.230945 0.960257 0.112795
H32   H     H_    0.020519 0.189031 0.038695 0.110463
H33   H     H_    0.164184 0.642896 0.038686 0.143980
H34   H     H_    0.715326 0.715422 0.944428 0.160987
H35   H     H_    0.684924 0.183883 0.043762 0.122191
H36   H     H_    0.337558 0.138135 0.961603 0.148994
O1    O     O_R   0.237900 0.735050 0.799950 -0.514015
O2    O     O_R   0.762100 0.735050 0.200050 -0.507161
O3    O     O_R   0.737900 0.235050 0.799950 -0.503610
O4    O     O_R   0.262100 0.235050 0.200050 -0.513941
O5    O     O_R   0.425240 0.902610 0.703070 -0.494277
O6    O     O_R   0.574760 0.902610 0.296930 -0.492591
O7    O     O_R   0.925240 0.402610 0.703070 -0.494843
O8    O     O_R   0.074760 0.402610 0.296930 -0.491127
O9    O     O_R   0.433420 0.739640 0.698910 -0.507798
O10   O     O_R   0.566580 0.739640 0.301090 -0.509808
O11   O     O_R   0.933420 0.239640 0.698910 -0.507562
O12   O     O_R   0.066580 0.239640 0.301090 -0.509474
O13   O     O_R   0.323550 0.666510 0.701520 -0.502255
O14   O     O_R   0.676450 0.666510 0.298480 -0.500829
O15   O     O_R   0.823550 0.166510 0.701520 -0.502355
O16   O     O_R   0.176450 0.166510 0.298480 -0.500607
O17   O     O_3   0.334980 0.834990 0.749700 -0.252173
O18   O     O_3   0.665020 0.834990 0.250300 -0.250624
O19   O     O_3   0.834980 0.334990 0.749700 -0.250547
O20   O     O_3   0.165020 0.334990 0.250300 -0.252267
O21   O     O_R   0.256160 0.936210 0.796950 -0.493279
O22   O     O_R   0.743840 0.936210 0.203050 -0.492733
O23   O     O_R   0.756160 0.436210 0.796950 -0.492944
O24   O     O_R   0.243840 0.436210 0.203050 -0.492349
O25   O     O_R   0.333710 0.029860 0.801630 -0.511548
O26   O     O_R   0.666290 0.029860 0.198370 -0.513670
O27   O     O_R   0.833710 0.529860 0.801630 -0.509802
O28   O     O_R   0.166290 0.529860 0.198370 -0.515152
O29   O     O_R   0.425340 0.901920 0.798280 -0.501643
O30   O     O_R   0.574660 0.901920 0.201720 -0.500110
O31   O     O_R   0.925340 0.401920 0.798280 -0.498345
O32   O     O_R   0.074660 0.401920 0.201720 -0.499460
O33   O     O_R   0.433530 0.738890 0.801610 -0.508761
O34   O     O_R   0.566470 0.738890 0.198390 -0.511449
O35   O     O_R   0.933530 0.238890 0.801610 -0.510977
O36   O     O_R   0.066470 0.238890 0.198390 -0.511856
O37   O     O_R   0.323650 0.665810 0.796720 -0.491861
O38   O     O_R   0.676350 0.665810 0.203280 -0.499098
O39   O     O_R   0.823650 0.165810 0.796720 -0.503094
O40   O     O_R   0.176350 0.165810 0.203280 -0.491645
O41   O     O_R   0.237790 0.735800 0.697250 -0.493119
O42   O     O_R   0.762210 0.735800 0.302750 -0.496143
O43   O     O_R   0.737790 0.235800 0.697250 -0.493417
O44   O     O_R   0.262210 0.235800 0.302750 -0.497804
O45   O     O_R   0.256050 0.936910 0.701750 -0.486316
O46   O     O_R   0.743950 0.936910 0.298250 -0.490975
O47   O     O_R   0.756050 0.436910 0.701750 -0.487705
O48   O     O_R   0.243950 0.436910 0.298250 -0.490606
O49   O     O_R   0.333600 0.030610 0.698930 -0.512139
O50   O     O_R   0.666400 0.030610 0.301070 -0.510623
O51   O     O_R   0.833600 0.530610 0.698930 -0.512814
O52   O     O_R   0.166400 0.530610 0.301070 -0.509385
O53   O     O_3   0.435962 0.982640 0.045182 -0.574070
C149  C     C_3   0.432700 0.001625 0.094043 -0.104821
H37   H     H_    0.417149 0.939105 0.115485 0.152596
H38   H     H_    0.402817 0.063659 0.099511 0.122707
H39   H     H_    0.474977 0.025317 0.107367 0.119685
O54   O     O_3   0.528099 0.011667 0.958149 -0.578861
C150  C     C_3   0.529934 0.036271 0.909772 -0.103510
H40   H     H_    0.557247 0.987848 0.888055 0.155553
H41   H     H_    0.546933 0.111910 0.906493 0.128336
H42   H     H_    0.486075 0.036997 0.895057 0.126328
O55   O     O_3   0.016020 0.530582 0.030076 -0.562223
C151  C     C_3   0.029590 0.558267 0.076862 -0.103522
H43   H     H_    0.997246 0.536325 0.103114 0.151918
H44   H     H_    0.032781 0.639527 0.078185 0.130190
H45   H     H_    0.071870 0.528618 0.087185 0.120065
O56   O     O_3   0.088219 0.469181 0.952306 -0.556549
C152  C     C_3   0.086357 0.493154 0.903802 -0.105387
H46   H     H_    0.096152 0.430681 0.880042 0.147139
H47   H     H_    0.118474 0.550777 0.896938 0.124698
H48   H     H_    0.044214 0.524682 0.894455 0.116588
O57   O     O_3   0.153747 0.627465 0.555230 -0.538820
C153  C     C_3   0.100895 0.632751 0.531422 -0.004456
H49   H     H_    0.091437 0.562474 0.512911 0.134369
H50   H     H_    0.100447 0.695611 0.506328 0.135291
C154  C     C_3   0.054103 0.650220 0.567116 -0.362582
H51   H     H_    0.062664 0.718724 0.587150 0.166661
H52   H     H_    0.012493 0.657648 0.548666 0.077566
H53   H     H_    0.051985 0.587378 0.592021 0.164990
O58   O     O_3   0.837650 0.673422 0.448795 -0.550339
C155  C     C_3   0.865208 0.751391 0.472479 -0.011404
H54   H     H_    0.896502 0.721803 0.498429 0.116537
H55   H     H_    0.834184 0.800819 0.490257 0.147045
C156  C     C_3   0.897870 0.812149 0.436860 -0.336781
H56   H     H_    0.868026 0.844466 0.410552 0.201269
H57   H     H_    0.920872 0.872315 0.455186 0.124836
H58   H     H_    0.929304 0.765164 0.418434 0.144897
O59   O     O_3   0.653748 0.127473 0.555228 -0.538758
C157  C     C_3   0.600896 0.132758 0.531421 -0.004511
H59   H     H_    0.591438 0.062481 0.512910 0.134355
H60   H     H_    0.600448 0.195618 0.506326 0.135154
C158  C     C_3   0.554103 0.150228 0.567114 -0.362450
H61   H     H_    0.562664 0.218732 0.587148 0.166728
H62   H     H_    0.512493 0.157655 0.548664 0.077529
H63   H     H_    0.551985 0.087386 0.592020 0.165141
O60   O     O_3   0.337655 0.173407 0.448793 -0.550660
C159  C     C_3   0.365209 0.251384 0.472474 -0.011309
H64   H     H_    0.396504 0.221806 0.498425 0.116582
H65   H     H_    0.334181 0.300810 0.490250 0.147148
C160  C     C_3   0.397867 0.312143 0.436853 -0.337217
H66   H     H_    0.368021 0.344454 0.410545 0.201131
H67   H     H_    0.420866 0.372314 0.455178 0.124934
H68   H     H_    0.429303 0.265160 0.418428 0.144236
O61   O     O_3   0.346634 0.534254 0.448915 -0.575031
C161  C     C_3   0.377935 0.619670 0.438321 -0.011577
H69   H     H_    0.393616 0.655853 0.471098 0.140095
H70   H     H_    0.351636 0.672848 0.417616 0.140324
C162  C     C_3   0.429068 0.591177 0.408835 -0.375375
H71   H     H_    0.414853 0.551311 0.376763 0.163945
H72   H     H_    0.452395 0.658110 0.398011 0.116209
H73   H     H_    0.458204 0.543234 0.429595 0.139194
O62   O     O_3   0.666254 0.478338 0.547551 -0.536219
C163  C     C_3   0.615395 0.533298 0.549957 -0.010664
H74   H     H_    0.598173 0.549836 0.514179 0.112650
H75   H     H_    0.622508 0.603375 0.569392 0.131345
C164  C     C_3   0.571083 0.473730 0.576180 -0.363385
H76   H     H_    0.586643 0.456531 0.612272 0.170136
H77   H     H_    0.530874 0.516322 0.578643 0.090134
H78   H     H_    0.562478 0.403999 0.557151 0.153206
O63   O     O_3   0.846634 0.034256 0.448915 -0.575057
C165  C     C_3   0.877940 0.119670 0.438327 -0.011655
H79   H     H_    0.893616 0.155851 0.471106 0.140112
H80   H     H_    0.851646 0.172851 0.417620 0.140421
C166  C     C_3   0.929078 0.091176 0.408847 -0.375138
H81   H     H_    0.914867 0.051311 0.376773 0.164158
H82   H     H_    0.952407 0.158109 0.398026 0.116289
H83   H     H_    0.958209 0.043232 0.429610 0.139305
O64   O     O_3   0.166258 0.978330 0.547549 -0.536202
C167  C     C_3   0.115399 0.033291 0.549954 -0.010584
H84   H     H_    0.098178 0.049826 0.514176 0.112665
H85   H     H_    0.122513 0.103370 0.569387 0.131429
C168  C     C_3   0.071087 0.973727 0.576179 -0.363351
H86   H     H_    0.086647 0.956532 0.612270 0.170284
H87   H     H_    0.030878 0.016319 0.578640 0.090088
H88   H     H_    0.062482 0.903994 0.557151 0.153187
O65   O     O_3   0.593022 0.879825 0.946406 -0.528867
C169  C     C_3   0.640731 0.939360 0.956978 -0.107875
H89   H     H_    0.670611 0.897737 0.979989 0.111583
H90   H     H_    0.630290 0.010249 0.974352 0.141946
H91   H     H_    0.663045 0.956070 0.923706 0.144546
O66   O     O_3   0.399537 0.821147 0.054461 -0.524768
C170  C     C_3   0.343331 0.856414 0.046928 -0.091052
H92   H     H_    0.315970 0.793730 0.036372 0.128459
H93   H     H_    0.339134 0.913845 0.019255 0.129473
H94   H     H_    0.326520 0.886432 0.080338 0.137189
O67   O     O_3   0.110316 0.301902 0.938384 -0.523918
C171  C     C_3   0.168871 0.323956 0.944480 -0.074669
H95   H     H_    0.193868 0.256724 0.936785 0.142158
H96   H     H_    0.180457 0.347316 0.980737 0.098614
H97   H     H_    0.182358 0.381284 0.919171 0.142026
O68   O     O_3   0.933018 0.444081 0.052576 -0.529028
C172  C     C_3   0.899299 0.528215 0.042461 -0.092409
H98   H     H_    0.885218 0.531144 0.005151 0.090115
H99   H     H_    0.921185 0.597603 0.051964 0.138535
H100  H     H_    0.860372 0.524488 0.064138 0.160706
O69   O     O_3   0.552506 0.692543 0.950819 -0.529275
C173  C     C_3   0.540601 0.597990 0.932759 -0.024403
H101  H     H_    0.512277 0.604336 0.901332 0.136872
H102  H     H_    0.520104 0.550425 0.959651 0.113297
C174  C     C_3   0.595675 0.548520 0.918256 -0.345035
H103  H     H_    0.622057 0.533555 0.950005 0.161195
H104  H     H_    0.586239 0.477634 0.900554 0.102311
H105  H     H_    0.619479 0.596471 0.893689 0.178408
O70   O     O_3   0.473846 0.666486 0.047832 -0.539516
C175  C     C_3   0.503407 0.590123 0.071388 -0.029676
H106  H     H_    0.528020 0.620169 0.101717 0.148146
H107  H     H_    0.532849 0.551318 0.047102 0.113834
C176  C     C_3   0.461039 0.515649 0.089897 -0.335907
H108  H     H_    0.439470 0.478507 0.059990 0.189591
H109  H     H_    0.483639 0.459322 0.111344 0.085676
H110  H     H_    0.428831 0.552801 0.112105 0.199463
O71   O     O_3   0.029673 0.170562 0.955762 -0.544191
C177  C     C_3   0.999728 0.090797 0.936080 -0.038026
H111  H     H_    0.974846 0.114992 0.904609 0.137901
H112  H     H_    0.971244 0.058246 0.962766 0.114009
C178  C     C_3   0.041285 0.011634 0.920884 -0.329711
H113  H     H_    0.061145 0.977378 0.952416 0.192898
H114  H     H_    0.018292 0.953744 0.900912 0.081773
H115  H     H_    0.074681 0.043663 0.898138 0.212871
O72   O     O_3   0.936378 0.243988 0.042925 -0.551021
C179  C     C_3   0.931001 0.172808 0.079004 -0.011978
H116  H     H_    0.890003 0.186545 0.097005 0.182596
H117  H     H_    0.964939 0.178839 0.106290 0.127691
C180  C     C_3   0.929582 0.068860 0.059026 -0.378617
H118  H     H_    0.972714 0.044391 0.048698 0.108694
H119  H     H_    0.913801 0.017270 0.086206 0.164916
H120  H     H_    0.901239 0.066758 0.027710 0.201449
O73   O     O_3   0.336101 0.481624 0.948885 -0.563487
C181  C     C_3   0.383182 0.545366 0.949990 -0.105672
H121  H     H_    0.398662 0.557343 0.986602 0.177843
H122  H     H_    0.373093 0.617026 0.932856 0.105313
H123  H     H_    0.418266 0.510926 0.929997 0.122866
O74   O     O_3   0.748707 0.417733 0.060638 -0.548160
C182  C     C_3   0.695153 0.382850 0.075006 -0.102010
H124  H     H_    0.668767 0.359486 0.044300 0.119602
H125  H     H_    0.671772 0.438673 0.095913 0.108941
H126  H     H_    0.701865 0.318021 0.098095 0.140534
O75   O     O_3   0.820165 0.948703 0.948665 -0.563090
C183  C     C_3   0.865827 0.994253 0.925331 -0.109838
H127  H     H_    0.856634 0.997433 0.887014 0.139703
H128  H     H_    0.904134 0.947516 0.930095 0.133870
H129  H     H_    0.875968 0.069602 0.938319 0.080054
O76   O     O_3   0.160524 0.992350 0.050183 -0.561885
C184  C     C_3   0.116649 0.063080 0.050191 -0.110758
H130  H     H_    0.128793 0.128627 0.071331 0.106359
H131  H     H_    0.078570 0.030222 0.066670 0.131931
H132  H     H_    0.104611 0.085697 0.013847 0.183935
O77   O     O_3   0.328881 0.464499 0.046966 -0.571346
C185  C     C_3   0.314795 0.363979 0.047225 -0.117986
H133  H     H_    0.315409 0.332747 0.011061 0.152334
H134  H     H_    0.272686 0.350965 0.063760 0.110302
H135  H     H_    0.347211 0.324279 0.068549 0.134670
O78   O     O_3   0.752965 0.388173 0.963563 -0.563838
C186  C     C_3   0.811310 0.365287 0.962442 -0.096412
H136  H     H_    0.830128 0.363965 0.998474 0.195383
H137  H     H_    0.834552 0.417243 0.939318 0.092789
H138  H     H_    0.816536 0.290701 0.947357 0.141046
O79   O     O_3   0.821455 0.944873 0.046291 -0.575502
C187  C     C_3   0.796409 0.851504 0.048829 -0.105086
H139  H     H_    0.790581 0.819831 0.013106 0.161295
H140  H     H_    0.755519 0.854385 0.068220 0.102900
H141  H     H_    0.825435 0.801873 0.068673 0.143252
O80   O     O_3   0.169700 0.970778 0.952672 -0.571489
C188  C     C_3   0.181760 0.869339 0.953511 -0.121587
H142  H     H_    0.179961 0.839457 0.989932 0.151065
H143  H     H_    0.223834 0.852889 0.937556 0.110840
H144  H     H_    0.148894 0.831017 0.932228 0.134365

loop_
_geom_bond_atom_site_label_1
_geom_bond_atom_site_label_2
_ccdc_geom_bond_type
C182  H126  S    
C99   C103  A    
C150  H41   S    
C174  H103  S    
C134  O14   A    
C126  O50   A    
C168  H87   S    
C108  C120  S    
C62   C77   T    
C76   C79   S    
C32   H36   S    
Cr5   O17   S    
O61   C161  S    
C156  H58   S    
C20   C92   S    
C21   O73   S    
C72   H12   S    
Cr5   O29   S    
O80   C188  S    
C183  H128  S    
Cr4   O48   S    
C88   C108  A    
C186  H137  S    
C149  H38   S    
C22   C38   A    
C81   C117  T    
C100  C104  A    
C154  H53   S    
Cr11  O15   S    
Cr4   O4    S    
C1    O25   A    
C11   H32   S    
C86   O58   S    
C83   C119  T    
C95   H15   S    
Cr6   O50   S    
Cr8   O20   S    
Cr1   O41   S    
C167  H84   S    
C96   H16   S    
C130  O6    A    
Cr8   O32   S    
C149  H39   S    
Cr3   O19   S    
C106  C118  S    
C134  O42   A    
C24   O76   S    
C41   C49   S    
Cr5   O5    S    
C163  H75   S    
C115  C123  T    
C138  H25   S    
C17   C89   S    
C121  C128  S    
C178  H115  S    
C25   C41   A    
C2    C59   S    
C123  C126  S    
C98   C102  A    
C28   C44   A    
C35   H3    S    
Cr11  O35   S    
C82   C134  S    
C33   H1    S    
C167  C168  S    
C69   C74   A    
Cr1   O21   S    
C5    C137  S    
C174  H105  S    
C136  O44   A    
C180  H118  S    
C128  O48   A    
C64   C79   T    
Cr3   O23   S    
C181  H123  S    
C82   C118  T    
C137  H26   S    
C67   H7    S    
C157  C158  S    
C140  H27   S    
C87   O59   S    
C138  C141  S    
Cr11  O11   S    
Cr7   O51   S    
C8    C140  S    
C187  H139  S    
C140  H24   S    
C176  H108  S    
C31   H35   S    
C169  H91   S    
C159  H64   S    
C29   H33   S    
C31   C35   A    
C93   H13   S    
O68   C172  S    
C69   C70   A    
C138  H22   S    
Cr1   O17   S    
Cr3   O47   S    
C87   C107  A    
C172  H100  S    
C166  H81   S    
Cr12  O40   S    
C2    O22   A    
C103  C107  A    
C143  O56   S    
C179  H116  S    
O77   C185  S    
C157  H60   S    
C137  C142  S    
Cr9   O13   S    
C188  H142  S    
C29   C33   A    
C133  O13   A    
C62   C130  S    
Cr7   O27   S    
C140  C143  S    
C13   C145  T    
C20   C56   T    
C131  O11   A    
C6    C9    S    
C7    C143  S    
C177  H111  S    
Cr10  O10   S    
Cr9   O33   S    
C11   O72   S    
Cr4   O20   S    
Cr7   O31   S    
O53   C149  S    
C31   C43   A    
C141  O54   S    
C32   C36   A    
C48   O32   A    
C164  H77   S    
C137  H21   S    
C175  H106  S    
C66   C74   A    
C91   O39   A    
C153  H50   S    
C49   C57   T    
C28   O80   S    
C26   O78   S    
C88   O60   S    
C89   O37   A    
C122  C127  S    
C99   O63   S    
C165  H80   S    
C52   C60   T    
C136  O16   A    
C85   C93   A    
O56   C152  S    
C162  H72   S    
C74   C77   S    
C87   C95   A    
C126  O46   A    
C180  H120  S    
Cr12  O36   S    
C9    C10   S    
C110  C114  S    
C61   C129  S    
C37   C53   S    
C44   C52   S    
C142  O53   S    
O58   C155  S    
C160  H67   S    
C86   C106  A    
C133  O41   A    
C72   C75   A    
Cr7   O7    S    
C63   C80   T    
C46   O30   A    
C7    C12   S    
C161  H70   S    
C10   H29   S    
Cr11  O19   S    
C30   C34   A    
C187  H141  S    
C127  O47   A    
C176  H110  S    
C169  H89   S    
C4    O24   A    
O60   C159  S    
C130  O10   A    
Cr12  O12   S    
C97   C109  A    
C166  H83   S    
C99   C111  A    
C100  O64   S    
C158  H61   S    
C69   H9    S    
C152  H47   S    
O78   C186  S    
C42   C50   S    
C68   H8    S    
C23   O75   S    
C22   O74   S    
C188  H144  S    
C102  H18   S    
C71   H11   S    
C67   C75   A    
C172  H99   S    
C139  H28   S    
C112  C116  S    
C184  H132  S    
C26   C42   A    
C180  H119  S    
C182  H125  S    
C21   C25   A    
C3    O27   A    
C29   C41   A    
C185  H133  S    
Cr11  O39   S    
C24   C28   A    
C151  H43   S    
C34   H2    S    
C81   C133  S    
C156  H57   S    
C89   O1    A    
Cr8   O28   S    
C71   C72   A    
Cr10  O38   S    
C154  H52   S    
C170  H94   S    
C113  C121  T    
C171  H95   S    
C173  H101  S    
C155  H54   S    
C167  H85   S    
C92   O4    A    
C163  C164  S    
O55   C151  S    
C93   C109  A    
C135  O15   A    
C88   C96   A    
C98   C110  A    
C125  O49   A    
Cr6   O18   S    
O69   C173  S    
C172  H98   S    
Cr6   O30   S    
O65   C169  S    
C178  H114  S    
C71   C76   A    
Cr12  O20   S    
C48   C147  S    
C65   H5    S    
C2    O26   A    
C158  H63   S    
C12   O71   S    
C168  H86   S    
C85   O57   S    
C144  O55   S    
C161  H69   S    
C39   C55   S    
C64   C132  S    
C40   C56   S    
C155  C156  S    
Cr5   O49   S    
C63   C131  S    
C6    C142  S    
C131  O7    A    
C150  H42   S    
C174  H104  S    
O57   C153  S    
C186  H138  S    
C46   O34   A    
C153  C154  S    
C105  C117  S    
C151  H45   S    
C107  C119  S    
Cr6   O6    S    
C184  H130  S    
C132  O8    A    
C67   C68   A    
C18   C90   S    
C183  H127  S    
C159  C160  S    
Cr8   O52   S    
O76   C184  S    
C27   O79   S    
C149  H37   S    
C94   C110  A    
C33   C37   A    
C50   C58   T    
C35   C39   A    
Cr5   O25   S    
O54   C150  S    
C129  O9    A    
C170  H92   S    
C38   C54   S    
C171  H97   S    
C84   C120  T    
C98   O62   S    
Cr9   O9    S    
Cr7   O19   S    
C5    C14   S    
C7    C16   S    
C100  C112  A    
C8    C15   S    
C141  O65   S    
C1    C60   S    
Cr10  O18   S    
C179  H117  S    
C9    H30   S    
C17   C53   T    
C104  C108  A    
C25   O77   S    
O73   C181  S    
C19   C55   T    
C12   H31   S    
C163  H74   S    
C84   C136  S    
C165  C166  S    
C116  C124  T    
C177  H112  S    
O75   C183  S    
O74   C182  S    
Cr3   O43   S    
C179  C180  S    
C181  H121  S    
C70   H10   S    
C15   C147  T    
C43   C51   S    
C164  H76   S    
C30   H34   S    
C175  H107  S    
C92   O40   A    
C144  O68   S    
C103  H19   S    
C65   C66   A    
O64   C167  S    
C177  C178  S    
C19   C91   S    
C142  O66   S    
C3    C58   S    
C27   C43   A    
Cr2   O46   S    
C21   C37   A    
C3    O23   A    
C162  H71   S    
C22   C26   A    
C186  H136  S    
C36   H4    S    
C153  H49   S    
C30   C42   A    
C1    O21   A    
Cr2   O2    S    
C101  H17   S    
C187  H140  S    
C175  C176  S    
Cr10  O14   S    
C10   O69   S    
C7    C139  S    
O67   C171  S    
Cr6   O26   S    
C160  H66   S    
C181  H122  S    
C183  H129  S    
Cr10  O34   S    
C182  H124  S    
O62   C163  S    
C96   C112  A    
C161  C162  S    
O59   C157  S    
C176  H109  S    
C157  H59   S    
C169  H90   S    
C46   C145  S    
C47   O35   A    
C65   C73   A    
C90   O38   A    
C86   C94   A    
C24   C40   A    
C166  H82   S    
C185  H135  S    
C4    C57   S    
C73   C78   S    
C125  O45   A    
C23   C27   A    
C75   C80   S    
C83   C135  S    
C109  C113  S    
C91   O3    A    
C188  H143  S    
C45   O33   A    
C70   C73   A    
C85   C105  A    
C184  H131  S    
C101  C105  A    
Cr12  O16   S    
C66   H6    S    
C45   C146  S    
C128  O52   A    
Cr3   O3    S    
C36   C40   A    
C151  H44   S    
C164  H78   S    
C45   O29   A    
C160  H68   S    
Cr2   O42   S    
C156  H56   S    
C4    O28   A    
C48   O36   A    
C6    C138  S    
C165  H79   S    
C139  C144  S    
C5    C141  S    
O79   C187  S    
Cr4   O44   S    
C61   C78   T    
C162  H73   S    
C154  H51   S    
C32   C44   A    
C47   O31   A    
C8    C144  S    
C68   C76   A    
O72   C179  S    
C94   H14   S    
Cr1   O45   S    
C170  H93   S    
C171  H96   S    
C132  O12   A    
C173  H102  S    
C168  H88   S    
C155  H55   S    
C51   C59   T    
C150  H40   S    
Cr8   O8    S    
C139  H23   S    
Cr2   O22   S    
O71   C177  S    
C152  H46   S    
C47   C148  S    
C34   C38   A    
C11   C12   S    
C90   O2    A    
C173  C174  S    
O70   C175  S    
C14   C146  T    
Cr9   O17   S    
C16   C148  T    
C129  O5    A    
C5    C10   S    
C95   C111  A    
C178  H113  S    
C6    C13   S    
C159  H65   S    
Cr9   O37   S    
C104  H20   S    
C8    C11   S    
C23   C39   A    
Cr4   O24   S    
C158  H62   S    
C135  O43   A    
C102  C106  A    
C185  H134  S    
Cr2   O18   S    
O63   C165  S    
C152  H48   S    
C18   C54   T    
C114  C122  T    
C127  O51   A    
C143  O67   S    
O66   C170  S    
C111  C115  S    
C9    O70   S    
C97   C101  A    
C97   O61   S    
Cr1   O1    S    
C124  C125  S    
