data_mof_unit_34611.cif
_audit_creation_date              2012-12-10T17:55:05-0500
_audit_creation_method            fapswitch 2.2
_symmetry_space_group_name_H-M    P1
_symmetry_Int_Tables_number       1
_space_group_crystal_system       triclinic
_cell_length_a                    8.780972
_cell_length_b                    10.827577
_cell_length_c                    9.520918
_cell_angle_alpha                 89.756144
_cell_angle_beta                  97.522282
_cell_angle_gamma                 90.530284
_cell_volume                      897.38405072

loop_
_atom_site_label
_atom_site_type_symbol
_atom_type_description
_atom_site_fract_x
_atom_site_fract_y
_atom_site_fract_z
_atom_type_partial_charge
C1    C     C_R   0.499608 0.262083 0.500112 0.790656
C2    C     C_R   0.499943 0.737905 0.499879 0.767238
C3    C     C_R   0.204041 0.497521 0.464099 0.811359
C4    C     C_R   0.795642 0.501881 0.535434 0.818309
C5    C     C_2   0.038649 0.483964 0.445626 0.176655
C6    C     C_2   0.959946 0.518627 0.551738 0.203928
C7    C     C_R   0.482387 0.064240 0.371386 -0.186504
C8    C     C_R   0.515795 0.935695 0.628744 -0.204535
C9    C     C_R   0.482206 0.936492 0.371258 -0.191028
C10   C     C_R   0.515329 0.063472 0.628897 -0.171364
C11   C     C_R   0.499476 0.871741 0.499878 -0.012970
C12   C     C_R   0.499077 0.128220 0.500215 -0.010732
C13   C     C_R   0.408091 0.420202 0.064119 -0.263961
C14   C     C_R   0.593132 0.578936 0.935916 -0.260165
C15   C     C_R   0.403959 0.421890 0.913518 0.622523
C16   C     C_R   0.590786 0.582315 0.086045 0.607392
Cu1   Cu    Cu3+1 0.500000 0.500020 0.640660 0.998114
Cu2   Cu    Cu3+1 0.500000 0.499980 0.359340 0.992312
H1    H     H_    0.468733 0.112621 0.270749 0.151804
H2    H     H_    0.529468 0.887280 0.729373 0.146005
H3    H     H_    0.467724 0.888708 0.270670 0.157582
H4    H     H_    0.528503 0.111281 0.729540 0.165240
H5    H     H_    0.338981 0.354691 0.114512 0.158291
H6    H     H_    0.669439 0.638480 0.885673 0.164395
N1    N     N_R   0.500040 0.500030 0.852080 -0.209307
N2    N     N_R   0.499960 0.499970 0.147920 -0.208866
O1    O     O_R   0.499990 0.319660 0.618740 -0.549600
O2    O     O_R   0.500010 0.680340 0.381260 -0.548248
O3    O     O_R   0.499990 0.319630 0.381170 -0.590724
O4    O     O_R   0.500010 0.680370 0.618830 -0.599923
O5    O     O_R   0.274840 0.500010 0.591370 -0.501837
O6    O     O_R   0.725160 0.499990 0.408630 -0.511542
O7    O     O_R   0.274830 0.499980 0.353800 -0.607001
O8    O     O_R   0.725170 0.500020 0.646200 -0.588669
O9    O     O_3   0.966624 0.415276 0.331895 -0.593949
C17   C     C_3   0.977370 0.476129 0.201965 -0.197808
H7    H     H_    0.078772 0.442949 0.155463 0.153373
H8    H     H_    0.980671 0.578801 0.210855 0.163986
H9    H     H_    0.875025 0.450807 0.126365 0.179416
O10   O     O_3   0.031642 0.574344 0.674304 -0.583285
C18   C     C_3   0.005535 0.702633 0.664981 -0.331671
H10   H     H_    0.881900 0.724015 0.665456 0.156348
H11   H     H_    0.047774 0.743151 0.569359 0.146741
H12   H     H_    0.070539 0.747471 0.759183 0.190405
O11   O     O_3   0.313603 0.339543 0.826702 -0.551098
C19   C     C_3   0.163840 0.329053 0.864654 -0.311646
H13   H     H_    0.086078 0.294692 0.771499 0.198275
H14   H     H_    0.117938 0.419357 0.894852 0.180662
H15   H     H_    0.160836 0.260145 0.950985 0.137262
O12   O     O_3   0.686303 0.660092 0.174915 -0.549732
C20   C     C_3   0.709282 0.776137 0.112560 -0.419472
H16   H     H_    0.749097 0.842544 0.198257 0.204377
H17   H     H_    0.601425 0.813535 0.053672 0.152890
H18   H     H_    0.801355 0.770663 0.043239 0.160098

loop_
_geom_bond_atom_site_label_1
_geom_bond_atom_site_label_2
_ccdc_geom_bond_type
C14   C16   A    
C18   H11   S    
C18   H10   S    
O9    C17   S    
Cu2   N2    S    
C2    O4    A    
C20   H18   S    
Cu1   N1    S    
C1    O3    A    
O12   C20   S    
Cu2   O3    S    
C4    O6    A    
O11   C19   S    
C10   H4    S    
C3    O5    A    
Cu1   O4    S    
C9    C11   A    
C19   H15   S    
C9    H3    S    
C8    H2    S    
C1    C12   S    
C10   C12   A    
C8    C11   A    
C2    C11   S    
C5    O9    S    
C17   H8    S    
O10   C18   S    
Cu2   O7    S    
C16   O12   S    
Cu1   Cu2   S    
C7    H1    S    
C13   C15   A    
C14   N1    A    
C16   N2    A    
C5    C6    D    
Cu1   O5    S    
C18   H12   S    
C4    O8    A    
C13   N2    A    
C15   N1    A    
C4    C6    S    
Cu2   O6    S    
Cu1   O8    S    
C3    O7    A    
C20   H16   S    
Cu1   O1    S    
C19   H14   S    
C7    C9    A    
C6    O10   S    
Cu2   O2    S    
C13   H5    S    
C8    C10   A    
C14   H6    S    
C1    O1    A    
C15   O11   S    
C19   H13   S    
C17   H7    S    
C2    O2    A    
C3    C5    S    
C7    C12   A    
C17   H9    S    
C20   H17   S    
