data_mof_unit_12629.cif
_audit_creation_date              2012-12-11T16:17:45-0500
_audit_creation_method            fapswitch 2.2
_symmetry_space_group_name_H-M    P1
_symmetry_Int_Tables_number       1
_space_group_crystal_system       triclinic
_cell_length_a                    6.92605
_cell_length_b                    28.856368
_cell_length_c                    31.966125
_cell_angle_alpha                 101.042552
_cell_angle_beta                  89.528874
_cell_angle_gamma                 90.236113
_cell_volume                      6270.25058392

loop_
_atom_site_label
_atom_site_type_symbol
_atom_type_description
_atom_site_fract_x
_atom_site_fract_y
_atom_site_fract_z
_atom_type_partial_charge
O1    O     O_R   0.494350 0.453160 0.452490 -0.543659
O2    O     O_R   0.820990 0.455850 0.538220 -0.546630
O3    O     O_R   0.994300 0.546840 0.547510 -0.534149
C1    C     C_R   0.651578 0.445745 0.551830 0.691172
O4    O     O_R   0.823860 0.447580 0.452250 -0.542956
O5    O     O_R   0.997190 0.538510 0.460920 -0.516473
C2    C     C_R   0.655385 0.434677 0.436388 0.712333
O6    O     O_R   0.491450 0.461490 0.539080 -0.543921
O7    O     O_3   0.661790 0.529840 0.502950 -0.338077
V1    V     V_3+5 0.935470 0.494460 0.499450 1.449835
O8    O     O_R   0.327090 0.544150 0.461780 -0.528352
C3    C     C_R   0.158398 0.555075 0.448919 0.760751
O9    O     O_R   0.324210 0.552420 0.547750 -0.541586
C4    C     C_R   0.154518 0.565127 0.563688 0.726101
V2    V     V_3+5 0.435840 0.505540 0.500550 1.466325
O10   O     O_3   0.159650 0.470160 0.497050 -0.380525
C5    C     C_R   0.964630 0.610343 0.625295 -0.225942
H1    H     H_    0.839043 0.589039 0.614437 0.134321
C6    C     C_R   0.948110 0.644613 0.662835 0.434597
C7    C     C_R   0.107470 0.674085 0.677422 -0.093771
C8    C     C_R   0.282596 0.666589 0.654284 -0.176955
H2    H     H_    0.408221 0.688113 0.664495 0.204703
C9    C     C_R   0.299405 0.631161 0.617739 -0.140091
H3    H     H_    0.436869 0.626352 0.601101 0.156944
C10   C     C_R   0.140140 0.602823 0.602587 -0.111546
N1    N     N_R   0.924111 0.723592 0.737083 -0.222433
N2    N     N_R   0.913926 0.757588 0.771775 -0.284502
C11   C     C_R   0.074534 0.781794 0.787473 0.527127
N3    N     N_R   0.245398 0.770380 0.766889 -0.282143
N4    N     N_R   0.255434 0.736352 0.732261 -0.281421
C12   C     C_R   0.094992 0.712095 0.716479 0.533552
C13   C     C_R   0.891582 0.830858 0.849096 -0.133379
H4    H     H_    0.761985 0.810450 0.839901 0.156246
C14   C     C_R   0.884100 0.867608 0.884849 -0.218973
H5    H     H_    0.749049 0.874056 0.902253 0.189041
C15   C     C_R   0.047834 0.895645 0.897978 -0.155882
C16   C     C_R   0.220535 0.885902 0.873734 0.413610
C17   C     C_R   0.228100 0.847895 0.838967 -0.216237
H6    H     H_    0.363307 0.840868 0.821676 0.156011
C18   C     C_R   0.064162 0.820438 0.825776 -0.035883
C19   C     C_R   0.977455 0.669920 0.295778 0.659056
N5    N     N_R   0.130403 0.674745 0.323299 -0.566984
C20   C     C_R   0.273611 0.707155 0.321294 0.659733
C21   C     C_R   0.267928 0.736573 0.290635 -0.090000
C22   C     C_R   0.108009 0.732908 0.262823 -0.111517
C23   C     C_R   0.960641 0.699104 0.264955 -0.038855
C24   C     C_R   0.416826 0.769646 0.287259 0.447973
C25   C     C_R   0.404480 0.798069 0.256233 -0.228559
C26   C     C_R   0.243646 0.795950 0.229686 -0.085455
C27   C     C_R   0.095996 0.763092 0.232649 -0.019643
C28   C     C_R   0.936887 0.760309 0.205195 -0.079559
C29   C     C_R   0.792531 0.726742 0.207296 -0.167249
C30   C     C_R   0.803245 0.696000 0.236099 0.338974
C31   C     C_R   0.228004 0.825865 0.199802 0.663863
N6    N     N_R   0.071138 0.823108 0.173625 -0.553059
C32   C     C_R   0.926968 0.790904 0.175709 0.641778
O11   O     O_2   0.843237 0.636694 0.298407 -0.482923
O12   O     O_2   0.419322 0.711396 0.349528 -0.481268
H7    H     H_    0.523141 0.821621 0.252771 0.195480
O13   O     O_2   0.367622 0.857863 0.197264 -0.472999
O14   O     O_2   0.775022 0.788278 0.149204 -0.507541
H8    H     H_    0.669890 0.723929 0.186126 0.189957
C33   C     C_R   0.183922 0.847273 0.107508 -0.114141
H9    H     H_    0.287740 0.818758 0.102918 0.157332
C34   C     C_R   0.176189 0.877321 0.077943 -0.189309
H10   H     H_    0.274521 0.871550 0.050931 0.138678
C35   C     C_R   0.040101 0.913941 0.082772 -0.099762
C36   C     C_R   0.915685 0.920849 0.118325 -0.219669
H11   H     H_    0.813666 0.949780 0.123145 0.153966
C37   C     C_R   0.928112 0.891955 0.148865 0.340090
C38   C     C_R   0.059580 0.854083 0.143084 0.300421
C39   C     C_R   0.990469 0.647536 0.385958 -0.104013
H12   H     H_    0.871400 0.671707 0.385733 0.182140
C40   C     C_R   0.994327 0.618922 0.416806 0.220374
C41   C     C_R   0.150249 0.587443 0.417785 -0.116626
C42   C     C_R   0.300752 0.586462 0.387719 -0.218717
H13   H     H_    0.422092 0.562855 0.387543 0.158534
C43   C     C_R   0.294560 0.614912 0.356820 -0.053688
H14   H     H_    0.410526 0.612788 0.333603 0.186943
C44   C     C_R   0.138791 0.645554 0.355500 0.289259
C45   C     C_R   0.525784 0.225403 0.839263 0.581707
N7    N     N_R   0.571230 0.178460 0.827326 -0.531790
C46   C     C_R   0.624458 0.159785 0.786103 0.617734
C47   C     C_R   0.635151 0.188589 0.755202 -0.042013
C48   C     C_R   0.588258 0.236787 0.766973 -0.017140
C49   C     C_R   0.532805 0.255467 0.809317 -0.034005
C50   C     C_R   0.691119 0.170354 0.712887 -0.136903
C51   C     C_R   0.700060 0.199545 0.682690 -0.135140
C52   C     C_R   0.652686 0.247683 0.694009 -0.031028
C53   C     C_R   0.596319 0.266336 0.736294 -0.013427
C54   C     C_R   0.547792 0.314451 0.747953 -0.026226
C55   C     C_R   0.492261 0.332694 0.790308 -0.141680
C56   C     C_R   0.485086 0.303588 0.820612 -0.142421
C57   C     C_R   0.659716 0.277697 0.664043 0.575994
N8    N     N_R   0.612108 0.324546 0.675802 -0.558971
C58   C     C_R   0.556677 0.343151 0.716904 0.567019
O15   O     O_2   0.472154 0.242881 0.879868 -0.527441
O16   O     O_2   0.667006 0.113477 0.774980 -0.525194
H15   H     H_    0.728335 0.133448 0.702937 0.172111
H16   H     H_    0.743906 0.184213 0.650425 0.173896
O17   O     O_2   0.712153 0.260057 0.623391 -0.516599
O18   O     O_2   0.512042 0.389374 0.727853 -0.526312
H17   H     H_    0.454240 0.369554 0.800214 0.170195
H18   H     H_    0.441701 0.318932 0.852906 0.170569
C59   C     C_R   0.452927 0.374389 0.631347 -0.086994
H19   H     H_    0.314217 0.366922 0.644497 0.119017
C60   C     C_R   0.462223 0.403643 0.601087 -0.200633
H20   H     H_    0.329461 0.418358 0.591702 0.126804
C61   C     C_R   0.640783 0.413940 0.583434 -0.055240
C62   C     C_R   0.809469 0.394028 0.596814 -0.199661
H21   H     H_    0.949451 0.401135 0.584055 0.129621
C63   C     C_R   0.799741 0.364696 0.626974 -0.087289
H22   H     H_    0.931256 0.349902 0.636901 0.121137
C64   C     C_R   0.621569 0.354701 0.644543 0.379596
C65   C     C_R   0.412680 0.114295 0.856433 0.489910
C66   C     C_R   0.408213 0.084352 0.886519 -0.360439
H23   H     H_    0.297385 0.057642 0.884503 0.152449
C67   C     C_R   0.548239 0.087703 0.918434 -0.192217
C68   C     C_R   0.692907 0.122684 0.921001 0.367550
C69   C     C_R   0.697064 0.152743 0.891220 -0.297989
H24   H     H_    0.809724 0.179177 0.893050 0.157331
C70   C     C_R   0.560504 0.148179 0.858473 0.249912
C71   C     C_R   0.472197 0.372776 0.385431 -0.156893
H25   H     H_    0.342127 0.381428 0.404306 0.139560
C72   C     C_R   0.463668 0.337119 0.348950 -0.191258
H26   H     H_    0.327247 0.319251 0.341137 0.202940
C73   C     C_R   0.627828 0.324595 0.322974 -0.089095
C74   C     C_R   0.802444 0.349465 0.334570 0.443605
C75   C     C_R   0.811253 0.383975 0.372213 -0.238836
H27   H     H_    0.947278 0.401832 0.380745 0.129068
C76   C     C_R   0.646389 0.396442 0.397746 -0.106794
N9    N     N_R   0.773659 0.268163 0.262217 -0.213484
N10   N     N_R   0.760160 0.234187 0.227617 -0.288320
C77   C     C_R   0.585456 0.216681 0.213132 0.501250
N11   N     N_R   0.424847 0.234651 0.235028 -0.274431
N12   N     N_R   0.438572 0.268591 0.269703 -0.276499
C78   C     C_R   0.613327 0.286334 0.284074 0.528523
C79   C     C_R   0.390724 0.162501 0.157349 -0.124202
H28   H     H_    0.258391 0.177955 0.171892 0.137695
C80   C     C_R   0.378540 0.126280 0.121210 -0.154568
H29   H     H_    0.237220 0.114877 0.109035 0.115817
C81   C     C_R   0.546550 0.104909 0.101300 -0.047423
C82   C     C_R   0.726799 0.121110 0.118346 -0.159121
H30   H     H_    0.859533 0.105634 0.104041 0.117414
C83   C     C_R   0.738950 0.157404 0.154245 -0.128122
H31   H     H_    0.880519 0.168655 0.166343 0.133283
C84   C     C_R   0.571226 0.178504 0.174442 0.025378
O19   O     O_R   0.699050 0.038480 0.960880 -0.519240
O20   O     O_R   0.366680 0.052470 0.047720 -0.546457
O21   O     O_R   0.193410 0.961530 0.039110 -0.536280
C85   C     C_R   0.535436 0.065715 0.063360 0.678694
O22   O     O_R   0.369510 0.044100 0.961740 -0.538733
O23   O     O_R   0.196260 0.953110 0.952520 -0.509996
C86   C     C_R   0.538968 0.054874 0.948892 0.758804
O24   O     O_R   0.696210 0.046900 0.047470 -0.543409
O25   O     O_3   0.528780 0.970170 0.997070 -0.358082
V3    V     V_3+5 0.255080 0.005530 0.000540 1.457389
O26   O     O_R   0.866350 0.947520 0.952280 -0.543460
C87   C     C_R   0.035990 0.934684 0.936263 0.711710
O27   O     O_R   0.863520 0.955880 0.038260 -0.540101
C88   C     C_R   0.031798 0.945790 0.051630 0.715000
V4    V     V_3+5 0.754720 0.994440 0.999470 1.456441
O28   O     O_3   0.030880 0.029830 0.002930 -0.367634
Br1   Br    Br    0.594610 0.651056 0.232350 -0.474447
Br2   Br    Br    0.775165 0.907379 0.199729 -0.452590
Br3   Br    Br    0.786767 0.626853 0.457784 -0.508192
O29   O     O_3   0.772427 0.650202 0.683998 -0.547562
C89   C     C_3   0.757441 0.615996 0.710106 0.094941
H32   H     H_    0.880096 0.619084 0.732870 0.122448
H33   H     H_    0.754463 0.579668 0.690480 0.109249
C90   C     C_3   0.570847 0.623682 0.735903 -0.645720
H34   H     H_    0.444755 0.617636 0.714334 0.209937
H35   H     H_    0.562722 0.598510 0.758141 0.175911
H36   H     H_    0.565681 0.660299 0.754639 0.252457
O30   O     O_3   0.285214 0.108535 0.822509 -0.540165
C91   C     C_3   0.090523 0.108365 0.836319 0.095897
H37   H     H_    0.012227 0.135802 0.823171 0.161764
H38   H     H_    0.069774 0.117236 0.871566 0.125250
C92   C     C_3   0.997862 0.060665 0.818857 -0.631091
H39   H     H_    0.002937 0.053537 0.783476 0.251769
H40   H     H_    0.844881 0.060862 0.829524 0.196715
H41   H     H_    0.074616 0.031958 0.830437 0.180455
O31   O     O_3   0.836715 0.126242 0.951164 -0.547475
C93   C     C_3   0.776368 0.158273 0.987965 0.125594
H42   H     H_    0.638951 0.146401 0.001028 0.090292
H43   H     H_    0.756415 0.194247 0.980810 0.134793
C94   C     C_3   0.930287 0.161058 0.022042 -0.687474
H44   H     H_    0.884044 0.185962 0.051301 0.175126
H45   H     H_    0.952639 0.125696 0.030026 0.224687
H46   H     H_    0.068760 0.173650 0.010390 0.218382
O32   O     O_3   0.967189 0.339661 0.309825 -0.544816
C95   C     C_3   0.984513 0.373579 0.283470 0.089998
H47   H     H_    0.007823 0.409526 0.302893 0.111986
H48   H     H_    0.853312 0.373796 0.263509 0.119721
C96   C     C_3   0.157133 0.361494 0.253734 -0.623799
H49   H     H_    0.140302 0.325383 0.234441 0.253578
H50   H     H_    0.167863 0.387099 0.231936 0.171082
H51   H     H_    0.292023 0.363313 0.272479 0.212298
O33   O     O_3   0.385514 0.912656 0.883850 -0.553451
C97   C     C_3   0.398436 0.946150 0.856924 0.097091
H52   H     H_    0.303711 0.976563 0.869726 0.107961
H53   H     H_    0.355415 0.931637 0.823372 0.118988
C98   C     C_3   0.605938 0.963278 0.855571 -0.703533
H54   H     H_    0.699205 0.934091 0.839119 0.220215
H55   H     H_    0.613630 0.992837 0.837915 0.188335
H56   H     H_    0.660331 0.975616 0.888299 0.225297
O34   O     O_3   0.584843 0.769884 0.310678 -0.528728
C99   C     C_3   0.624151 0.815194 0.335235 0.120768
H57   H     H_    0.621320 0.812427 0.369413 0.168500
H58   H     H_    0.518000 0.843150 0.331644 0.102813
C100  C     C_3   0.825537 0.830883 0.324354 -0.687838
H59   H     H_    0.834244 0.833520 0.290197 0.231063
H60   H     H_    0.858778 0.865967 0.344118 0.196442
H61   H     H_    0.934393 0.805071 0.330860 0.218946

loop_
_geom_bond_atom_site_label_1
_geom_bond_atom_site_label_2
_ccdc_geom_bond_type
C98   H54   S    
C33   C34   A    
C41   C42   A    
N5    C44   S    
O21   V3    S    
C58   O18   S    
C19   N5    A    
N8    C58   A    
C47   C50   A    
C1    O6    A    
C74   C75   A    
C63   C64   A    
C45   N7    A    
N11   N12   A    
C31   O13   S    
C22   C23   A    
C29   C30   A    
C77   C84   S    
C59   C60   A    
N1    N2    A    
C99   H57   S    
C6    O29   S    
C22   C27   A    
C11   N3    A    
C42   C43   A    
C28   C32   A    
O20   C85   A    
O5    C3    A    
N4    C12   A    
C43   C44   A    
C71   C72   A    
C11   C18   S    
N8    C64   S    
C26   C31   A    
C93   H42   S    
C5    H1    S    
C14   H5    S    
C52   C57   A    
C26   C27   A    
C62   H21   S    
C94   H46   S    
C65   O30   S    
C15   C87   S    
C54   C58   A    
C67   C68   A    
O8    V2    S    
C89   C90   S    
C6    C7    A    
C57   O17   S    
C66   C67   A    
N9    N10   A    
C34   C35   A    
C46   O16   S    
C24   C25   A    
C19   C23   A    
C67   C86   S    
C37   C38   A    
O1    V2    S    
C85   O24   A    
N3    N4    A    
O7    V1    S    
V3    O28   S    
C2    C76   S    
C45   C49   A    
C55   H17   S    
C21   C24   A    
C92   H41   S    
C98   H55   S    
C91   H38   S    
C72   H26   S    
O25   V4    S    
N1    C12   A    
C65   C70   A    
O1    C2    A    
O9    C4    A    
C92   H40   S    
C60   C61   A    
O19   C86   A    
C56   H18   S    
C63   H22   S    
C83   C84   A    
C69   C70   A    
C83   H31   S    
C50   H15   S    
C42   H13   S    
C91   C92   S    
O24   V4    S    
C17   H6    S    
C90   H36   S    
C40   C41   A    
C33   H9    S    
C28   C29   A    
C95   C96   S    
C89   H32   S    
C59   C64   A    
C71   H25   S    
C47   C48   A    
C39   C40   A    
C37   Br2   S    
O29   C89   S    
O4    C2    A    
C43   H14   S    
C97   H52   S    
N9    C78   A    
C48   C49   A    
O34   C99   S    
C13   C14   A    
C81   C85   S    
O23   C87   A    
O2    C1    A    
C35   C36   A    
C100  H59   S    
C16   C17   A    
C49   C56   A    
C16   O33   S    
C90   H35   S    
C35   C88   S    
C46   C47   A    
C79   C84   A    
C48   C53   A    
C100  H61   S    
N6    C32   A    
C27   C28   A    
C69   H24   S    
O31   C93   S    
C68   O31   S    
C80   H29   S    
C90   H34   S    
C51   H16   S    
O3    C4    A    
C79   C80   A    
C97   H53   S    
C91   H37   S    
C100  H60   S    
O22   C86   A    
C34   H10   S    
O6    V2    S    
C8    C9    A    
C20   C21   A    
O26   C87   A    
C96   H50   S    
N5    C20   A    
C60   H20   S    
C73   C74   A    
O2    V1    S    
C40   Br3   S    
C21   C22   A    
C25   H7    S    
C72   C73   A    
V4    O28   S    
O32   C95   S    
C82   C83   A    
O21   C88   A    
C31   N6    A    
O25   V3    S    
C71   C76   A    
C7    C8    A    
C32   O14   S    
C36   H11   S    
C80   C81   A    
C39   H12   S    
O5    V1    S    
C68   C69   A    
C30   Br1   S    
C77   N11   A    
C92   H39   S    
C1    C61   S    
C59   H19   S    
C98   H56   S    
C75   H27   S    
C93   C94   S    
C24   O34   S    
C74   O32   S    
C5    C10   A    
C13   H4    S    
C96   H51   S    
O9    V2    S    
C82   H30   S    
O7    V2    S    
O19   V4    S    
O4    V1    S    
C39   C44   A    
O30   C91   S    
C29   H8    S    
C61   C62   A    
C95   H47   S    
C17   C18   A    
C20   O12   S    
C53   C54   A    
N10   C77   A    
V1    O10   S    
C45   O15   S    
C15   C16   A    
C99   C100  S    
C25   C26   A    
V2    O10   S    
C23   C30   A    
C89   H33   S    
C55   C56   A    
C5    C6    A    
C93   H43   S    
C66   H23   S    
O22   V3    S    
C14   C15   A    
C13   C18   A    
C4    C10   S    
O23   V3    S    
C57   N8    A    
O27   C88   A    
C62   C63   A    
C94   H45   S    
C79   H28   S    
O26   V4    S    
C9    H3    S    
C19   O11   S    
C96   H49   S    
O33   C97   S    
C9    C10   A    
C51   C52   A    
C50   C51   A    
C99   H58   S    
N7    C46   A    
C3    C41   S    
N2    C11   A    
O3    V1    S    
C36   C37   A    
C81   C82   A    
N12   C78   A    
C94   H44   S    
C73   C78   S    
C97   C98   S    
C52   C53   A    
C8    H2    S    
O20   V3    S    
C33   C38   A    
N7    C70   S    
N6    C38   S    
C54   C55   A    
C65   C66   A    
O8    C3    A    
O27   V4    S    
C75   C76   A    
C7    C12   S    
C95   H48   S    
