data_mof_unit_46942.cif
_audit_creation_date              2012-12-10T20:44:45-0500
_audit_creation_method            fapswitch 2.2
_symmetry_space_group_name_H-M    P1
_symmetry_Int_Tables_number       1
_space_group_crystal_system       triclinic
_cell_length_a                    9.865621
_cell_length_b                    10.671004
_cell_length_c                    16.770984
_cell_angle_alpha                 89.334659
_cell_angle_beta                  94.638222
_cell_angle_gamma                 89.426495
_cell_volume                      1759.57663519

loop_
_atom_site_label
_atom_site_type_symbol
_atom_type_description
_atom_site_fract_x
_atom_site_fract_y
_atom_site_fract_z
_atom_type_partial_charge
C1    C     C_R   0.500119 0.260250 0.498240 0.947196
C2    C     C_R   0.650007 0.500497 0.785557 -0.226558
C3    C     C_R   0.560430 0.610831 0.144001 -0.259509
C4    C     C_R   0.573419 0.586302 0.225204 -0.229641
C5    C     C_R   0.443575 0.572264 0.097370 0.251738
C6    C     C_R   0.469183 0.525226 0.261072 -0.077292
C7    C     C_R   0.349343 0.492993 0.215941 -0.337747
C8    C     C_R   0.334058 0.519316 0.133588 0.488514
C9    C     C_R   0.584866 0.062220 0.553525 0.049927
C10   C     C_R   0.497937 0.128006 0.498156 -0.193083
C11   C     C_R   0.394838 0.065967 0.451354 0.446793
C12   C     C_R   0.517798 0.502116 0.653370 0.866757
C13   C     C_R   0.394961 0.935652 0.453073 -0.332145
C14   C     C_R   0.494985 0.871096 0.501540 -0.145681
C15   C     C_R   0.583728 0.934229 0.554912 0.117011
C16   C     C_3   0.734623 0.923458 0.569511 -0.451014
C17   C     C_3   0.736229 0.065391 0.567981 -0.482651
C18   C     C_R   0.081113 0.476040 0.568960 0.217210
C19   C     C_R   0.062471 0.536173 0.433959 -0.159252
C20   C     C_R   0.918618 0.536185 0.433950 -0.127383
C21   C     C_R   0.938403 0.475503 0.568820 0.185068
C22   C     C_3   0.940147 0.358065 0.617806 -0.580210
C23   C     C_R   0.499103 0.739561 0.499694 0.905118
C24   C     C_3   0.094593 0.358603 0.618351 -0.128958
C25   C     C_R   0.481948 0.504207 0.346689 0.910517
C26   C     C_R   0.527927 0.523650 0.738837 -0.018799
C27   C     C_R   0.416015 0.575682 0.773303 -0.222096
C28   C     C_R   0.423685 0.599061 0.854305 -0.160661
C29   C     C_R   0.543761 0.569412 0.902223 0.324009
C30   C     C_R   0.657646 0.523628 0.867145 -0.193456
H1    H     H_    0.664806 0.615534 0.259912 0.162909
H2    H     H_    0.324300 0.885187 0.412659 0.163921
H3    H     H_    0.766271 0.882185 0.629374 0.197931
H4    H     H_    0.783776 0.881001 0.518722 0.212180
H5    H     H_    0.768956 0.105714 0.627155 0.200597
H6    H     H_    0.786120 0.104509 0.516239 0.211407
H7    H     H_    0.108773 0.562963 0.380109 0.146816
H8    H     H_    0.857164 0.563220 0.380111 0.144215
H9    H     H_    0.900620 0.372869 0.677136 0.197064
H10   H     H_    0.893516 0.279341 0.583585 0.199303
H11   H     H_    0.643225 0.656894 0.117210 0.166840
H12   H     H_    0.138734 0.278574 0.587082 0.170240
H13   H     H_    0.750650 0.501607 0.903664 0.139220
H14   H     H_    0.738210 0.462790 0.759434 0.148218
H15   H     H_    0.269730 0.445320 0.244616 0.161853
H16   H     H_    0.335015 0.637919 0.879537 0.152176
H17   H     H_    0.322612 0.599240 0.737628 0.164751
N1    N     N_2   0.550561 0.575489 0.986227 -0.209851
N2    N     N_2   0.436661 0.577582 0.013266 -0.159013
N3    N     N_R   0.142860 0.499130 0.500540 -0.119327
N4    N     N_R   0.857210 0.499170 0.500530 -0.102326
O1    O     O_R   0.614690 0.316790 0.499990 -0.617904
O2    O     O_R   0.385350 0.316760 0.500000 -0.602484
O3    O     O_R   0.627460 0.498860 0.616130 -0.620714
O4    O     O_R   0.398120 0.498820 0.616130 -0.604610
O5    O     O_R   0.614650 0.683240 0.500000 -0.621271
O6    O     O_R   0.385310 0.683210 0.500010 -0.623142
O7    O     O_R   0.601880 0.501180 0.383870 -0.628545
O8    O     O_R   0.372540 0.501140 0.383870 -0.628803
Zn1   Zn    Zn3+2 0.653130 0.500020 0.499990 0.938659
Zn2   Zn    Zn3+2 0.346870 0.499980 0.500010 0.950667
N5    N     N_3   0.163408 0.379841 0.697593 -0.423844
H18   H     H_    0.151932 0.299318 0.732398 0.196615
H19   H     H_    0.116508 0.453917 0.725611 0.185619
O9    O     O_3   0.222145 0.479312 0.085127 -0.639817
C31   C     C_3   0.097160 0.513324 0.115596 0.068002
H20   H     H_    0.034518 0.563701 0.067084 0.160933
H21   H     H_    0.106958 0.579048 0.167014 0.115596
C32   C     C_3   0.021435 0.395082 0.137997 -0.335380
H22   H     H_    0.002045 0.336349 0.084045 0.233541
H23   H     H_    0.084721 0.339342 0.183486 0.214586
C33   C     C_3   0.886119 0.427394 0.171188 -0.961566
H24   H     H_    0.903088 0.483866 0.226271 0.253557
H25   H     H_    0.833418 0.339834 0.186239 0.275015
H26   H     H_    0.820104 0.480871 0.125788 0.272743
O10   O     O_3   0.311278 0.131874 0.394753 -0.635347
C34   C     C_3   0.174303 0.121083 0.412464 0.109100
H27   H     H_    0.162235 0.147068 0.475665 0.131459
H28   H     H_    0.137665 0.023829 0.402305 0.124810
C35   C     C_3   0.086952 0.209789 0.357079 -0.320528
H29   H     H_    0.128904 0.305889 0.361550 0.240471
H30   H     H_    0.090174 0.178594 0.294271 0.215127
C36   C     C_3   0.939562 0.212834 0.378450 -0.954249
H31   H     H_    0.934128 0.246584 0.440439 0.264055
H32   H     H_    0.879077 0.277836 0.337086 0.276325
H33   H     H_    0.894795 0.117897 0.373252 0.258476

loop_
_geom_bond_atom_site_label_1
_geom_bond_atom_site_label_2
_ccdc_geom_bond_type
C31   H21   S    
C33   H25   S    
C18   C21   A    
C24   H12   S    
C13   H2    S    
C19   C20   A    
C23   O5    A    
O3    Zn1   S    
C34   H27   S    
C28   H16   S    
C26   C27   A    
N5    H18   S    
C18   C24   S    
C7    H15   S    
C28   C29   A    
C20   N4    A    
C11   O10   S    
C35   C36   S    
C6    C25   S    
O7    Zn1   S    
C15   C16   S    
C32   H23   S    
C1    O2    A    
N5    H19   S    
C19   H7    S    
C16   H4    S    
O2    Zn2   S    
C2    H14   S    
C16   C17   S    
C17   H6    S    
O1    Zn1   S    
C9    C10   A    
C31   H20   S    
C8    O9    S    
C13   C14   A    
C5    N2    S    
C33   H26   S    
C34   H28   S    
O8    Zn2   S    
C29   N1    S    
C12   O4    A    
C7    C8    A    
O10   C34   S    
C35   H30   S    
C33   H24   S    
O5    Zn1   S    
C12   C26   S    
C14   C23   S    
C32   C33   S    
C29   C30   A    
C16   H3    S    
C20   H8    S    
C36   H31   S    
C22   H10   S    
C2    C26   A    
C9    C17   S    
N1    N2    D    
C36   H32   S    
C22   C24   S    
C30   H13   S    
C4    C6    A    
C25   O7    A    
C3    C4    A    
C21   N4    A    
C18   N3    A    
C34   C35   S    
C27   H17   S    
C23   O6    A    
C3    H11   S    
C24   N5    S    
C1    C10   S    
C35   H29   S    
C3    C5    A    
C5    C8    A    
O6    Zn2   S    
C6    C7    A    
C17   H5    S    
C2    C30   A    
C9    C15   A    
C11   C13   A    
C19   N3    A    
C22   H9    S    
O4    Zn2   S    
C32   H22   S    
C1    O1    A    
C4    H1    S    
C10   C11   A    
C31   C32   S    
C36   H33   S    
O9    C31   S    
C27   C28   A    
N3    Zn2   S    
C14   C15   A    
N4    Zn1   S    
C25   O8    A    
C21   C22   S    
C12   O3    A    
