data_mof_unit_25001.cif
_audit_creation_date              2012-12-10T18:10:47-0500
_audit_creation_method            fapswitch 2.2
_symmetry_space_group_name_H-M    P1
_symmetry_Int_Tables_number       1
_space_group_crystal_system       triclinic
_cell_length_a                    12.587053
_cell_length_b                    13.298887
_cell_length_c                    15.732335
_cell_angle_alpha                 91.874567
_cell_angle_beta                  101.986048
_cell_angle_gamma                 83.915553
_cell_volume                      2561.41366041

loop_
_atom_site_label
_atom_site_type_symbol
_atom_type_description
_atom_site_fract_x
_atom_site_fract_y
_atom_site_fract_z
_atom_type_partial_charge
C1    C     C_R   0.441060 0.688917 0.478127 0.876598
C2    C     C_R   0.593112 0.200721 0.517543 -0.098254
C3    C     C_R   0.294865 0.828632 0.421703 -0.060251
C4    C     C_R   0.499977 0.502201 0.661455 0.911378
C5    C     C_R   0.262743 0.933554 0.420926 0.020341
C6    C     C_R   0.342126 0.001288 0.441639 -0.274707
C7    C     C_R   0.454746 0.967460 0.454155 0.079832
C8    C     C_R   0.486516 0.862867 0.449634 0.074383
C9    C     C_R   0.537869 0.033436 0.477970 0.094125
C10   C     C_R   0.648144 0.993564 0.504368 0.133939
C11   C     C_R   0.678254 0.893255 0.485412 -0.267211
C12   C     C_3   0.375135 0.561328 0.029833 -0.432994
C13   C     C_R   0.598001 0.830888 0.451302 -0.181062
C14   C     C_R   0.514942 0.137738 0.477290 -0.306243
C15   C     C_R   0.697305 0.158079 0.561057 0.163663
C16   C     C_R   0.559659 0.309234 0.512171 0.862274
C17   C     C_R   0.407145 0.793723 0.446600 -0.200188
C18   C     C_R   0.078008 0.380918 0.354057 -0.335008
C19   C     C_R   0.803349 0.625251 0.606900 0.014378
C20   C     C_R   0.910879 0.646748 0.633672 -0.267838
C21   C     C_R   0.991394 0.595378 0.595346 -0.211193
C22   C     C_R   0.964388 0.522710 0.528844 0.003285
C23   C     C_3   0.489980 0.521176 0.081227 0.354656
C24   C     C_R   0.853883 0.503779 0.504078 0.204487
C25   C     C_R   0.041528 0.472028 0.483596 -0.023363
C26   C     C_R   0.004923 0.411267 0.408807 0.130236
C27   C     C_R   0.895824 0.386132 0.389427 -0.066350
C28   C     C_R   0.498568 0.501857 0.338218 0.879303
C29   C     C_R   0.823824 0.431641 0.439500 -0.274820
C30   C     C_R   0.153818 0.483786 0.506887 -0.018005
C31   C     C_R   0.186874 0.396575 0.379741 0.019928
C32   C     C_3   0.375132 0.561575 0.930736 -0.118673
C33   C     C_3   0.578810 0.588470 0.967128 -0.396067
C34   C     C_3   0.521588 0.413338 0.048757 -0.411688
C35   C     C_3   0.574626 0.590811 0.064775 -0.407074
C36   C     C_1   0.493723 0.510395 0.248664 -0.209543
C37   C     C_3   0.491773 0.522570 0.915952 0.322751
C38   C     C_3   0.773909 0.216660 0.626737 -0.393279
C39   C     C_3   0.868891 0.248472 0.590583 -0.812716
C40   C     C_R   0.211179 0.756934 0.391573 0.159849
C41   C     C_R   0.125985 0.749406 0.435689 -0.110622
C42   C     C_R   0.038584 0.694914 0.398519 -0.144382
C43   C     C_R   0.038937 0.642205 0.320279 -0.110400
C44   C     C_R   0.126534 0.644361 0.278713 -0.139311
C45   C     C_3   0.519799 0.413423 0.950811 -0.435532
C46   C     C_R   0.211965 0.702236 0.313696 -0.129387
C47   C     C_R   0.145769 0.972039 0.409242 0.118268
C48   C     C_R   0.070990 0.948210 0.333513 -0.159592
C49   C     C_R   0.959109 0.958670 0.332607 -0.142727
C50   C     C_R   0.920612 0.000155 0.404440 -0.094828
C51   C     C_R   0.994253 0.029330 0.477945 -0.162737
C52   C     C_R   0.106378 0.015277 0.480665 -0.182852
C53   C     C_R   0.328731 0.662277 0.886616 0.147022
C54   C     C_R   0.253863 0.662119 0.806360 -0.161965
C55   C     C_R   0.212427 0.752671 0.763218 -0.135524
C56   C     C_1   0.490822 0.517201 0.173034 -0.122161
C57   C     C_R   0.244537 0.844545 0.799545 -0.108760
C58   C     C_R   0.318142 0.846142 0.879123 -0.149736
C59   C     C_R   0.360129 0.755884 0.922453 -0.155130
C60   C     C_R   0.853601 0.311440 0.319723 0.123013
C61   C     C_R   0.918694 0.223689 0.301350 -0.143253
C62   C     C_R   0.880089 0.159781 0.232030 -0.136699
C63   C     C_R   0.771429 0.173216 0.188605 -0.122158
C64   C     C_R   0.702853 0.254183 0.211188 -0.151838
C65   C     C_R   0.744671 0.325496 0.272871 -0.165717
C66   C     C_1   0.495477 0.518664 0.824904 -0.115958
C67   C     C_1   0.498355 0.511314 0.750078 -0.187909
C68   C     C_R   0.726100 0.054861 0.548685 -0.252576
H1    H     H_    0.350466 0.637568 0.054659 0.162619
H2    H     H_    0.243325 0.372478 0.338054 0.131886
H3    H     H_    0.052118 0.348285 0.290355 0.149613
H4    H     H_    0.188916 0.525195 0.563920 0.121817
H5    H     H_    0.740542 0.663850 0.637186 0.142827
H6    H     H_    0.073014 0.616148 0.617229 0.130986
H7    H     H_    0.931857 0.702997 0.683980 0.148345
H8    H     H_    0.743816 0.408313 0.428169 0.225310
H9    H     H_    0.661576 0.556192 0.959291 0.170259
H10   H     H_    0.566843 0.666369 0.941163 0.170050
H11   H     H_    0.553131 0.669527 0.086079 0.159136
H12   H     H_    0.319910 0.504165 0.900472 0.117124
H13   H     H_    0.657014 0.565197 0.103597 0.171314
H14   H     H_    0.458602 0.363441 0.916364 0.165587
H15   H     H_    0.600899 0.381210 0.938935 0.176433
H16   H     H_    0.465148 0.359848 0.062605 0.162918
H17   H     H_    0.944752 0.199522 0.616974 0.224632
H18   H     H_    0.852462 0.243885 0.518521 0.269574
H19   H     H_    0.883512 0.327230 0.611394 0.255061
H20   H     H_    0.729147 0.284030 0.651383 0.211573
H21   H     H_    0.806884 0.169241 0.685096 0.184765
H22   H     H_    0.124505 0.789981 0.496306 0.124446
H23   H     H_    0.313857 0.511658 0.041561 0.155250
H24   H     H_    0.970102 0.694189 0.430041 0.143657
H25   H     H_    0.971498 0.599381 0.292067 0.132607
H26   H     H_    0.127099 0.602934 0.218416 0.123674
H27   H     H_    0.277303 0.706537 0.279112 0.111380
H28   H     H_    0.099716 0.914500 0.277766 0.127657
H29   H     H_    0.902132 0.935211 0.275882 0.127064
H30   H     H_    0.833864 0.009575 0.402991 0.145232
H31   H     H_    0.964998 0.059125 0.534181 0.136793
H32   H     H_    0.162472 0.032531 0.540169 0.130952
H33   H     H_    0.228453 0.591704 0.776424 0.116339
H34   H     H_    0.605715 0.386919 0.082954 0.181278
H35   H     H_    0.155631 0.751806 0.701389 0.117044
H36   H     H_    0.212398 0.914511 0.765992 0.117415
H37   H     H_    0.342896 0.917482 0.907307 0.123429
H38   H     H_    0.416702 0.760006 0.983949 0.119513
H39   H     H_    0.000107 0.204880 0.339288 0.148970
H40   H     H_    0.933858 0.098281 0.213050 0.131641
H41   H     H_    0.740281 0.120605 0.137897 0.118346
H42   H     H_    0.617511 0.262467 0.179860 0.123153
H43   H     H_    0.691288 0.391307 0.283966 0.139783
H44   H     H_    0.763470 0.863422 0.495927 0.150267
H45   H     H_    0.807324 0.021280 0.577325 0.139125
H46   H     H_    0.436432 0.171201 0.443430 0.168802
H47   H     H_    0.313209 0.079864 0.448402 0.144187
H48   H     H_    0.625075 0.757006 0.428545 0.182937
N1    N     N_R   0.222200 0.444690 0.455710 -0.097901
N2    N     N_R   0.776960 0.554780 0.543830 -0.126942
O1    O     O_R   0.366740 0.627160 0.478850 -0.600662
O2    O     O_R   0.544830 0.662520 0.507140 -0.627311
O3    O     O_R   0.410920 0.482310 0.608710 -0.618866
O4    O     O_R   0.589010 0.517670 0.637000 -0.617480
O5    O     O_R   0.455170 0.337480 0.492860 -0.620458
O6    O     O_R   0.633260 0.372840 0.521150 -0.624768
O7    O     O_R   0.410990 0.482330 0.363000 -0.618486
O8    O     O_R   0.589080 0.517690 0.391290 -0.646415
Zn1   Zn    Zn3+2 0.381090 0.476390 0.481110 0.944164
Zn2   Zn    Zn3+2 0.618910 0.523610 0.518890 0.916928

loop_
_geom_bond_atom_site_label_1
_geom_bond_atom_site_label_2
_ccdc_geom_bond_type
C12   H1    S    
C8    C13   A    
C27   C29   A    
C41   C42   A    
C54   H33   S    
C45   H14   S    
C18   C26   A    
C39   H19   S    
C43   C44   A    
C53   C59   A    
C23   C56   S    
C29   H8    S    
C53   C54   A    
C40   C46   A    
C5    C47   S    
C38   H21   S    
C26   C27   A    
C34   H34   S    
C34   H16   S    
C16   O5    A    
O3    Zn1   S    
C27   C60   S    
C38   C39   S    
C33   H10   S    
C62   H40   S    
C44   H26   S    
C55   H35   S    
C25   C30   A    
C1    O1    A    
C24   C29   A    
C31   N1    A    
C12   H23   S    
C33   C35   S    
C64   H42   S    
C31   H2    S    
C65   H43   S    
C46   H27   S    
C19   C20   A    
C19   N2    A    
C28   O8    A    
C22   C25   A    
C2    C16   S    
C9    C10   A    
C68   H45   S    
O6    Zn2   S    
C41   H22   S    
C21   C22   A    
C12   C32   S    
C45   H15   S    
N2    Zn2   S    
C2    C14   A    
C44   C46   A    
C51   H31   S    
C50   H30   S    
C59   H38   S    
C51   C52   A    
C19   H5    S    
C66   C67   T    
C58   C59   A    
C14   H46   S    
C21   H6    S    
C52   H32   S    
C33   C37   S    
C20   H7    S    
C38   H20   S    
C60   C61   A    
C1    O2    A    
C63   H41   S    
C9    C14   A    
C15   C38   S    
C62   C63   A    
C36   C56   T    
C32   H12   S    
O5    Zn1   S    
C47   C48   A    
C12   C23   S    
C23   C34   S    
C37   C66   S    
C50   C51   A    
C4    O4    A    
C34   C45   S    
C32   C37   S    
C2    C15   A    
N1    Zn1   S    
C6    C7    A    
C40   C41   A    
C3    C40   S    
C23   C35   S    
C55   C57   A    
C22   C24   A    
C42   C43   A    
C39   H17   S    
C37   C45   S    
C32   C53   S    
C28   O7    A    
C18   H3    S    
C7    C9    A    
C57   H36   S    
C54   C55   A    
C48   C49   A    
O8    Zn2   S    
C48   H28   S    
C11   H44   S    
C1    C17   S    
C3    C5    A    
C60   C65   A    
C4    C67   S    
C30   H4    S    
O2    Zn2   S    
C47   C52   A    
C30   N1    A    
C10   C68   A    
C24   N2    A    
C8    C17   A    
C35   H13   S    
C58   H37   S    
C64   C65   A    
C25   C26   A    
C11   C13   A    
C33   H9    S    
C57   C58   A    
C5    C6    A    
C15   C68   A    
C35   H11   S    
C43   H25   S    
C4    O3    A    
C3    C17   A    
C42   H24   S    
O4    Zn2   S    
C61   C62   A    
C61   H39   S    
C6    H47   S    
C13   H48   S    
C7    C8    A    
C10   C11   A    
C49   H29   S    
C63   C64   A    
C20   C21   A    
C28   C36   S    
C49   C50   A    
O7    Zn1   S    
C18   C31   A    
C39   H18   S    
C16   O6    A    
O1    Zn1   S    
