data_mof_unit_15388.cif
_audit_creation_date              2012-12-11T16:12:45-0500
_audit_creation_method            fapswitch 2.2
_symmetry_space_group_name_H-M    P1
_symmetry_Int_Tables_number       1
_space_group_crystal_system       triclinic
_cell_length_a                    23.312134
_cell_length_b                    13.620606
_cell_length_c                    28.44168
_cell_angle_alpha                 89.989459
_cell_angle_beta                  90.746924
_cell_angle_gamma                 89.999814
_cell_volume                      9030.18807426

loop_
_atom_site_label
_atom_site_type_symbol
_atom_type_description
_atom_site_fract_x
_atom_site_fract_y
_atom_site_fract_z
_atom_type_partial_charge
C1    C     C_R   0.284592 0.005431 0.816069 0.546331
C2    C     C_R   0.715408 0.005444 0.183933 0.546615
C3    C     C_R   0.784592 0.505432 0.816069 0.546336
C4    C     C_R   0.215407 0.505442 0.183932 0.546613
C5    C     C_3   0.493187 0.835739 0.954138 0.067484
C6    C     C_3   0.506797 0.835757 0.045862 0.067445
C7    C     C_3   0.993255 0.335741 0.954120 0.067498
C8    C     C_3   0.006866 0.335758 0.045843 0.067415
C9    C     C_3   0.503882 0.729077 0.027069 -0.212798
C10   C     C_3   0.496125 0.729067 0.972958 -0.212824
C11   C     C_3   0.004503 0.229080 0.026996 -0.212780
C12   C     C_3   0.996747 0.229075 0.972886 -0.212847
C13   C     C_1   0.516001 0.834726 0.096748 -0.073115
C14   C     C_1   0.483988 0.834689 0.903252 -0.073174
C15   C     C_1   0.016057 0.334725 0.096731 -0.073125
C16   C     C_1   0.984043 0.334692 0.903235 -0.073166
C17   C     C_1   0.266627 0.633581 0.860883 -0.014188
C18   C     C_1   0.733379 0.633583 0.139121 -0.014092
C19   C     C_1   0.766622 0.133552 0.860877 -0.014162
C20   C     C_1   0.233373 0.133611 0.139114 -0.014125
C21   C     C_R   0.289780 0.653452 0.982211 -0.107143
C22   C     C_R   0.709372 0.652046 0.017807 -0.107145
C23   C     C_R   0.790390 0.152432 0.982184 -0.107059
C24   C     C_R   0.209869 0.152909 0.017782 -0.107251
C25   C     C_R   0.284572 0.640826 0.030709 -0.108532
C26   C     C_R   0.714608 0.639475 0.969307 -0.108513
C27   C     C_R   0.785163 0.139863 0.030685 -0.108440
C28   C     C_R   0.215088 0.140289 0.969285 -0.108615
C29   C     C_R   0.219544 0.504389 0.016773 -0.105904
C30   C     C_R   0.781432 0.505593 0.983252 -0.105936
C31   C     C_R   0.718841 0.005251 0.016769 -0.105899
C32   C     C_R   0.280846 0.004879 0.983248 -0.105948
C33   C     C_R   0.224620 0.517150 0.968305 -0.107363
C34   C     C_R   0.776326 0.518299 0.031719 -0.107315
C35   C     C_R   0.723938 0.017955 0.968300 -0.107311
C36   C     C_R   0.275758 0.017633 0.031713 -0.107368
C37   C     C_R   0.259542 0.592020 0.950999 0.041027
C38   C     C_R   0.740483 0.591865 0.049022 0.041097
C39   C     C_R   0.759524 0.091884 0.950983 0.041066
C40   C     C_R   0.240463 0.091987 0.049006 0.041077
C41   C     C_R   0.249110 0.566652 0.047992 0.041056
C42   C     C_R   0.750980 0.566620 0.952025 0.041146
C43   C     C_R   0.749044 0.066641 0.047980 0.041093
C44   C     C_R   0.250920 0.066638 0.952013 0.041130
C45   C     C_R   0.446168 0.824067 0.816584 0.544740
C46   C     C_R   0.553833 0.824079 0.183414 0.545184
C47   C     C_R   0.946174 0.324068 0.816581 0.544742
C48   C     C_R   0.053838 0.324079 0.183411 0.545183
C49   C     C_1   0.241510 0.554119 0.097568 -0.059082
C50   C     C_1   0.758522 0.554083 0.902442 -0.059127
C51   C     C_1   0.741487 0.054118 0.097562 -0.059025
C52   C     C_1   0.258498 0.054091 0.902435 -0.059186
C53   C     C_1   0.262574 0.610222 0.901455 -0.059370
C54   C     C_1   0.737438 0.610173 0.098557 -0.059293
C55   C     C_1   0.762563 0.110152 0.901444 -0.059319
C56   C     C_1   0.237426 0.110239 0.098546 -0.059348
C57   C     C_1   0.231731 0.536912 0.138132 -0.013482
C58   C     C_1   0.768274 0.536879 0.861873 -0.013701
C59   C     C_1   0.731726 0.036913 0.138129 -0.013450
C60   C     C_1   0.268267 0.036884 0.861870 -0.013741
C61   C     C_1   0.468633 0.833622 0.638238 -0.022858
C62   C     C_1   0.529303 0.833565 0.360862 -0.019563
C63   C     C_1   0.968634 0.333622 0.638238 -0.022856
C64   C     C_1   0.029303 0.333565 0.360862 -0.019564
C65   C     C_R   0.499586 0.750972 0.524175 -0.116459
C66   C     C_R   0.506249 0.750780 0.475607 -0.120337
C67   C     C_R   0.999585 0.250972 0.524175 -0.116458
C68   C     C_R   0.006248 0.250780 0.475607 -0.120336
C69   C     C_R   0.495246 0.927928 0.474170 -0.107802
C70   C     C_R   0.489354 0.928258 0.523026 -0.107799
C71   C     C_R   0.995248 0.427928 0.474170 -0.107803
C72   C     C_R   0.989356 0.428258 0.523026 -0.107800
C73   C     C_R   0.491894 0.839691 0.548052 0.037469
C74   C     C_R   0.503519 0.838983 0.450482 0.037063
C75   C     C_R   0.991895 0.339691 0.548052 0.037469
C76   C     C_R   0.003519 0.338983 0.450482 0.037064
C77   C     C_1   0.514818 0.837882 0.401155 -0.066291
C78   C     C_1   0.481687 0.838106 0.597584 -0.066398
C79   C     C_1   0.014818 0.337882 0.401156 -0.066290
C80   C     C_1   0.981688 0.338106 0.597584 -0.066398
C81   C     C_1   0.282712 0.696192 0.628727 -0.017376
C82   C     C_1   0.716729 0.697816 0.371312 -0.019008
C83   C     C_1   0.782712 0.196192 0.628727 -0.017375
C84   C     C_1   0.216729 0.197816 0.371312 -0.019009
C85   C     C_R   0.222049 0.691328 0.513494 0.013723
C86   C     C_R   0.783859 0.670156 0.482802 0.013589
C87   C     C_R   0.722050 0.191330 0.513494 0.013722
C88   C     C_R   0.283858 0.170158 0.482802 0.013590
C89   C     C_R   0.274515 0.673790 0.815070 0.556750
C90   C     C_R   0.725482 0.673808 0.184927 0.556791
C91   C     C_R   0.774516 0.173791 0.815070 0.556768
C92   C     C_R   0.225482 0.173808 0.184926 0.556773
C93   C     C_R   0.217469 0.668465 0.465424 -0.097897
C94   C     C_R   0.789673 0.646725 0.530686 -0.098847
C95   C     C_R   0.717469 0.168466 0.465424 -0.097896
C96   C     C_R   0.289673 0.146728 0.530687 -0.098847
C97   C     C_R   0.312756 0.594272 0.466606 0.015005
C98   C     C_R   0.686515 0.620358 0.536918 0.015658
C99   C     C_R   0.812755 0.094269 0.466607 0.015005
C100  C     C_R   0.186515 0.120354 0.536917 0.015659
C101  C     C_R   0.317901 0.618048 0.514351 -0.104191
C102  C     C_R   0.680344 0.643555 0.489144 -0.105185
C103  C     C_R   0.817901 0.118046 0.514352 -0.104190
C104  C     C_R   0.180343 0.143551 0.489144 -0.105186
C105  C     C_R   0.272902 0.664297 0.537743 0.024754
C106  C     C_R   0.728432 0.666478 0.462205 0.024021
C107  C     C_R   0.772902 0.164297 0.537743 0.024754
C108  C     C_R   0.228431 0.166478 0.462205 0.024021
C109  C     C_R   0.261606 0.618986 0.442464 0.030586
C110  C     C_R   0.741959 0.620398 0.557155 0.028382
C111  C     C_R   0.761606 0.118985 0.442464 0.030586
C112  C     C_R   0.241958 0.120398 0.557155 0.028383
C113  C     C_1   0.249878 0.584220 0.395826 -0.069820
C114  C     C_1   0.752410 0.584566 0.603776 -0.071440
C115  C     C_1   0.749878 0.084219 0.395826 -0.069819
C116  C     C_1   0.252410 0.084566 0.603776 -0.071440
C117  C     C_1   0.278948 0.680988 0.587297 -0.072390
C118  C     C_1   0.720766 0.683172 0.412779 -0.073433
C119  C     C_1   0.778948 0.180988 0.587297 -0.072389
C120  C     C_1   0.220766 0.183171 0.412779 -0.073433
C121  C     C_1   0.236313 0.551253 0.358251 -0.022377
C122  C     C_1   0.764596 0.551000 0.641501 -0.022784
C123  C     C_1   0.736313 0.051252 0.358251 -0.022375
C124  C     C_1   0.264596 0.051000 0.641501 -0.022785
C125  C     C_R   0.284231 0.007375 0.684088 0.540260
C126  C     C_R   0.715874 0.007397 0.315899 0.540737
C127  C     C_R   0.784231 0.507375 0.684088 0.540260
C128  C     C_R   0.215874 0.507397 0.315899 0.540737
C129  C     C_R   0.445414 0.825227 0.684204 0.531415
C130  C     C_R   0.554212 0.825217 0.315542 0.534391
C131  C     C_R   0.945415 0.325227 0.684204 0.531411
C132  C     C_R   0.054212 0.325217 0.315542 0.534396
C133  C     C_R   0.286444 0.718129 0.677553 0.565069
C134  C     C_R   0.713370 0.718683 0.322356 0.565928
C135  C     C_R   0.786444 0.218129 0.677553 0.565068
C136  C     C_R   0.213370 0.218683 0.322356 0.565929
C137  C     C_3   0.442311 0.888828 0.978075 -0.212481
C138  C     C_3   0.557662 0.888866 0.021911 -0.212582
C139  C     C_3   0.942108 0.388002 0.978085 -0.212678
C140  C     C_3   0.057455 0.389693 0.021921 -0.212366
C141  C     C_3   0.549497 0.889256 0.967752 -0.216409
C142  C     C_3   0.450476 0.889238 0.032235 -0.216347
C143  C     C_3   0.049286 0.390082 0.967760 -0.216239
C144  C     C_3   0.950271 0.388414 0.032243 -0.216503
C145  C     C_1   0.529400 0.831179 0.137522 -0.015933
C146  C     C_1   0.470595 0.831141 0.862478 -0.016211
C147  C     C_1   0.029433 0.331178 0.137509 -0.015921
C148  C     C_1   0.970627 0.331143 0.862466 -0.016222
Cr1   Cr    Cr6+3 0.250680 0.837130 0.748990 1.021395
Cr2   Cr    Cr6+3 0.749320 0.837130 0.251010 1.021589
Cr3   Cr    Cr6+3 0.750680 0.337130 0.748990 1.021401
Cr4   Cr    Cr6+3 0.249320 0.337130 0.251010 1.021582
Cr5   Cr    Cr6+3 0.378160 0.960100 0.750430 1.025053
Cr6   Cr    Cr6+3 0.621840 0.960100 0.249570 1.024891
Cr7   Cr    Cr6+3 0.878160 0.460100 0.750430 1.025064
Cr8   Cr    Cr6+3 0.121840 0.460100 0.249570 1.024882
Cr9   Cr    Cr6+3 0.376090 0.707720 0.749670 1.026307
Cr10  Cr    Cr6+3 0.623910 0.707720 0.250330 1.026358
Cr11  Cr    Cr6+3 0.876090 0.207720 0.749670 1.026315
Cr12  Cr    Cr6+3 0.123910 0.207720 0.250330 1.026347
H1    H     H_    0.451699 0.966293 0.045223 0.121464
H2    H     H_    0.548259 0.966307 0.954745 0.121429
H3    H     H_    0.951094 0.465455 0.045267 0.121305
H4    H     H_    0.047647 0.467141 0.954789 0.121600
H5    H     H_    0.200853 0.469715 0.944473 0.102510
H6    H     H_    0.800779 0.471861 0.055550 0.102599
H7    H     H_    0.699676 0.971227 0.944478 0.102562
H8    H     H_    0.299804 0.970602 0.055552 0.102518
H9    H     H_    0.500239 0.681934 0.543001 0.101688
H10   H     H_    0.513833 0.681928 0.457682 0.102659
H11   H     H_    0.000238 0.181933 0.543001 0.101689
H12   H     H_    0.013832 0.181928 0.457682 0.102659
H13   H     H_    0.493984 0.996699 0.455028 0.107259
H14   H     H_    0.482459 0.997117 0.541169 0.103931
H15   H     H_    0.993986 0.496699 0.455028 0.107259
H16   H     H_    0.982461 0.497117 0.541169 0.103931
H17   H     H_    0.178898 0.685620 0.445530 0.109870
H18   H     H_    0.831402 0.645751 0.547766 0.109654
H19   H     H_    0.678899 0.185623 0.445530 0.109871
H20   H     H_    0.331402 0.145756 0.547767 0.109653
H21   H     H_    0.356649 0.598692 0.533744 0.107194
H22   H     H_    0.638179 0.641928 0.472586 0.107529
H23   H     H_    0.856648 0.098687 0.533745 0.107194
H24   H     H_    0.138179 0.141922 0.472585 0.107529
H25   H     H_    0.438935 0.965732 0.965079 0.123135
H26   H     H_    0.561025 0.965775 0.034889 0.123076
H27   H     H_    0.938333 0.464882 0.965125 0.122929
H28   H     H_    0.060419 0.466619 0.034935 0.123295
H29   H     H_    0.586683 0.852388 0.951081 0.108542
H30   H     H_    0.413298 0.852354 0.048916 0.108663
H31   H     H_    0.086662 0.353822 0.951070 0.108563
H32   H     H_    0.913284 0.350931 0.048906 0.108651
H33   H     H_    0.598660 0.851232 0.031168 0.104781
H34   H     H_    0.401316 0.851178 0.968827 0.104841
H35   H     H_    0.098649 0.352667 0.031161 0.104847
H36   H     H_    0.901310 0.349753 0.968820 0.104791
H37   H     H_    0.456100 0.688813 0.963304 0.121582
H38   H     H_    0.543915 0.688849 0.036732 0.121300
H39   H     H_    0.956932 0.188235 0.963213 0.121507
H40   H     H_    0.044744 0.189438 0.036640 0.121345
H41   H     H_    0.532565 0.689361 0.956656 0.119535
H42   H     H_    0.467451 0.689355 0.043381 0.119849
H43   H     H_    0.033391 0.189964 0.956564 0.119545
H44   H     H_    0.968280 0.188764 0.043289 0.119819
H45   H     H_    0.316689 0.711955 0.969036 0.097839
H46   H     H_    0.681754 0.709560 0.030977 0.097859
H47   H     H_    0.817809 0.210221 0.969001 0.097909
H48   H     H_    0.182670 0.211019 0.030944 0.097752
H49   H     H_    0.307571 0.689274 0.054567 0.101985
H50   H     H_    0.690905 0.686945 0.945443 0.101845
H51   H     H_    0.808669 0.187619 0.054537 0.102007
H52   H     H_    0.191803 0.188339 0.945415 0.101797
H53   H     H_    0.192106 0.446681 0.029948 0.097839
H54   H     H_    0.809570 0.448899 0.970080 0.097905
H55   H     H_    0.690901 0.948273 0.029954 0.097941
H56   H     H_    0.308570 0.947573 0.970084 0.097754
O1    O     O_R   0.237900 0.735050 0.799950 -0.500810
O2    O     O_R   0.762100 0.735050 0.200050 -0.500876
O3    O     O_R   0.737900 0.235050 0.799950 -0.500806
O4    O     O_R   0.262100 0.235050 0.200050 -0.500881
O5    O     O_R   0.425240 0.902610 0.703070 -0.494500
O6    O     O_R   0.574760 0.902610 0.296930 -0.495210
O7    O     O_R   0.925240 0.402610 0.703070 -0.494502
O8    O     O_R   0.074760 0.402610 0.296930 -0.495209
O9    O     O_R   0.433420 0.739640 0.698910 -0.519532
O10   O     O_R   0.566580 0.739640 0.301090 -0.520037
O11   O     O_R   0.933420 0.239640 0.698910 -0.519533
O12   O     O_R   0.066580 0.239640 0.301090 -0.520036
O13   O     O_R   0.323550 0.666510 0.701520 -0.489392
O14   O     O_R   0.676450 0.666510 0.298480 -0.489563
O15   O     O_R   0.823550 0.166510 0.701520 -0.489389
O16   O     O_R   0.176450 0.166510 0.298480 -0.489566
O17   O     O_3   0.334980 0.834990 0.749700 -0.271987
O18   O     O_3   0.665020 0.834990 0.250300 -0.272537
O19   O     O_3   0.834980 0.334990 0.749700 -0.271987
O20   O     O_3   0.165020 0.334990 0.250300 -0.272539
O21   O     O_R   0.256160 0.936210 0.796950 -0.493991
O22   O     O_R   0.743840 0.936210 0.203050 -0.493766
O23   O     O_R   0.756160 0.436210 0.796950 -0.493984
O24   O     O_R   0.243840 0.436210 0.203050 -0.493775
O25   O     O_R   0.333710 0.029860 0.801630 -0.503657
O26   O     O_R   0.666290 0.029860 0.198370 -0.503729
O27   O     O_R   0.833710 0.529860 0.801630 -0.503653
O28   O     O_R   0.166290 0.529860 0.198370 -0.503733
O29   O     O_R   0.425340 0.901920 0.798280 -0.492141
O30   O     O_R   0.574660 0.901920 0.201720 -0.492348
O31   O     O_R   0.925340 0.401920 0.798280 -0.492139
O32   O     O_R   0.074660 0.401920 0.201720 -0.492349
O33   O     O_R   0.433530 0.738890 0.801610 -0.506541
O34   O     O_R   0.566470 0.738890 0.198390 -0.506270
O35   O     O_R   0.933530 0.238890 0.801610 -0.506544
O36   O     O_R   0.066470 0.238890 0.198390 -0.506271
O37   O     O_R   0.323650 0.665810 0.796720 -0.487811
O38   O     O_R   0.676350 0.665810 0.203280 -0.487895
O39   O     O_R   0.823650 0.165810 0.796720 -0.487812
O40   O     O_R   0.176350 0.165810 0.203280 -0.487895
O41   O     O_R   0.237790 0.735800 0.697250 -0.508306
O42   O     O_R   0.762210 0.735800 0.302750 -0.509252
O43   O     O_R   0.737790 0.235800 0.697250 -0.508309
O44   O     O_R   0.262210 0.235800 0.302750 -0.509249
O45   O     O_R   0.256050 0.936910 0.701750 -0.516508
O46   O     O_R   0.743950 0.936910 0.298250 -0.516242
O47   O     O_R   0.756050 0.436910 0.701750 -0.516512
O48   O     O_R   0.243950 0.436910 0.298250 -0.516238
O49   O     O_R   0.333600 0.030610 0.698930 -0.505055
O50   O     O_R   0.666400 0.030610 0.301070 -0.504883
O51   O     O_R   0.833600 0.530610 0.698930 -0.505052
O52   O     O_R   0.166400 0.530610 0.301070 -0.504886
C149  C     C_3   0.173656 0.741302 0.540120 -0.246631
C150  C     C_3   0.119217 0.765084 0.511165 -0.312268
C151  C     C_3   0.073203 0.811247 0.541821 -0.456116
H57   H     H_    0.089678 0.879052 0.558814 0.147433
H58   H     H_    0.035226 0.830712 0.519788 0.137037
H59   H     H_    0.059634 0.758716 0.569409 0.157423
H60   H     H_    0.129822 0.817399 0.482551 0.162760
H61   H     H_    0.101292 0.696633 0.495556 0.158499
H62   H     H_    0.161276 0.692658 0.569719 0.157674
H63   H     H_    0.190587 0.810899 0.555346 0.150523
C152  C     C_3   0.835214 0.697107 0.452613 -0.245873
C153  C     C_3   0.894079 0.696238 0.477647 -0.314790
C154  C     C_3   0.941805 0.723946 0.443875 -0.457910
H64   H     H_    0.935330 0.799916 0.430578 0.151869
H65   H     H_    0.983884 0.720100 0.462498 0.138580
H66   H     H_    0.942576 0.672199 0.413704 0.158793
H67   H     H_    0.894321 0.749824 0.507131 0.158358
H68   H     H_    0.903168 0.621552 0.491669 0.160143
H69   H     H_    0.836908 0.644627 0.422707 0.159151
H70   H     H_    0.827740 0.771784 0.437923 0.146930
C155  C     C_3   0.673658 0.241306 0.540119 -0.246632
C156  C     C_3   0.619219 0.265090 0.511164 -0.312267
C157  C     C_3   0.573205 0.311254 0.541821 -0.456116
H71   H     H_    0.589681 0.379059 0.558813 0.147433
H72   H     H_    0.535229 0.330721 0.519787 0.137037
H73   H     H_    0.559636 0.258724 0.569408 0.157422
H74   H     H_    0.629825 0.317404 0.482550 0.162761
H75   H     H_    0.601293 0.196639 0.495555 0.158500
H76   H     H_    0.661277 0.192663 0.569719 0.157674
H77   H     H_    0.690590 0.310903 0.555345 0.150523
C158  C     C_3   0.335213 0.197112 0.452614 -0.245873
C159  C     C_3   0.394078 0.196246 0.477648 -0.314790
C160  C     C_3   0.441803 0.223956 0.443876 -0.457909
H78   H     H_    0.435327 0.299926 0.430578 0.151870
H79   H     H_    0.483883 0.220115 0.462499 0.138581
H80   H     H_    0.442576 0.172208 0.413706 0.158793
H81   H     H_    0.394319 0.249833 0.507132 0.158358
H82   H     H_    0.403168 0.121560 0.491670 0.160142
H83   H     H_    0.336908 0.144632 0.422708 0.159151
H84   H     H_    0.327738 0.271789 0.437924 0.146931
C161  C     C_3   0.361104 0.540007 0.442823 -0.254201
C162  C     C_3   0.392794 0.607266 0.408572 -0.292983
C163  C     C_3   0.443805 0.554717 0.386815 -0.453163
H85   H     H_    0.474487 0.530299 0.414646 0.141520
H86   H     H_    0.428920 0.489845 0.366374 0.156829
H87   H     H_    0.466380 0.605616 0.362798 0.162595
H88   H     H_    0.363332 0.631568 0.379861 0.173518
H89   H     H_    0.408361 0.673581 0.427531 0.174982
H90   H     H_    0.392335 0.512098 0.469556 0.129168
H91   H     H_    0.343731 0.474778 0.423939 0.146257
C164  C     C_3   0.634540 0.591201 0.565078 -0.255005
C165  C     C_3   0.619089 0.670447 0.601157 -0.293738
C166  C     C_3   0.573544 0.633611 0.634964 -0.440538
H92   H     H_    0.534041 0.611619 0.615485 0.151727
H93   H     H_    0.590062 0.569600 0.655209 0.155743
H94   H     H_    0.562634 0.692785 0.660141 0.158083
H95   H     H_    0.657445 0.692354 0.622195 0.174464
H96   H     H_    0.602923 0.736750 0.582498 0.174144
H97   H     H_    0.596825 0.578577 0.541491 0.123440
H98   H     H_    0.643720 0.520553 0.583219 0.145130
C167  C     C_3   0.861103 0.040001 0.442824 -0.254201
C168  C     C_3   0.892795 0.107257 0.408573 -0.292983
C169  C     C_3   0.943805 0.054706 0.386817 -0.453167
H99   H     H_    0.974486 0.030290 0.414649 0.141519
H100  H     H_    0.928920 0.989834 0.366377 0.156828
H101  H     H_    0.966381 0.105604 0.362799 0.162593
H102  H     H_    0.863333 0.131559 0.379861 0.173519
H103  H     H_    0.908361 0.173573 0.427531 0.174982
H104  H     H_    0.892334 0.012091 0.469557 0.129168
H105  H     H_    0.843729 0.974772 0.423940 0.146257
C170  C     C_3   0.134540 0.091193 0.565077 -0.255005
C171  C     C_3   0.119087 0.170436 0.601156 -0.293739
C172  C     C_3   0.073540 0.133596 0.634961 -0.440539
H106  H     H_    0.034038 0.111603 0.615480 0.151725
H107  H     H_    0.090058 0.069584 0.655206 0.155745
H108  H     H_    0.062628 0.192768 0.660139 0.158085
H109  H     H_    0.157441 0.192343 0.622196 0.174462
H110  H     H_    0.102920 0.236739 0.582498 0.174144
H111  H     H_    0.096826 0.078567 0.541489 0.123441
H112  H     H_    0.143721 0.020544 0.583217 0.145131

loop_
_geom_bond_atom_site_label_1
_geom_bond_atom_site_label_2
_ccdc_geom_bond_type
C99   C103  A    
C108  C120  S    
C100  C170  S    
C157  H71   S    
C76   C79   S    
C47   O31   A    
C162  H89   S    
C160  H78   S    
C99   C167  S    
C154  H66   S    
C170  H112  S    
C20   C92   S    
C127  O51   A    
C103  H23   S    
C88   C108  A    
C85   C105  A    
C160  H80   S    
C159  H82   S    
C151  H57   S    
C22   C38   A    
C29   C33   A    
C100  C104  A    
C94   H18   S    
C12   H43   S    
C83   C119  T    
Cr12  O36   S    
C153  H67   S    
C46   O34   A    
C48   O36   A    
C62   C77   T    
Cr6   O30   S    
C136  O44   A    
Cr1   O21   S    
C165  H96   S    
Cr10  O10   S    
C23   H47   S    
C106  C118  S    
C69   H13   S    
C41   C49   S    
C115  C123  T    
C168  C169  S    
C102  H22   S    
C17   C89   S    
C171  C172  S    
C121  C128  S    
C1    C60   S    
C25   C41   A    
C2    C59   S    
C123  C126  S    
C98   C102  A    
C28   C44   A    
C45   C146  S    
C4    O24   A    
Cr11  O15   S    
Cr6   O6    S    
C89   O37   A    
C29   H53   S    
C134  O42   A    
Cr6   O18   S    
C69   C74   A    
C88   C158  S    
Cr1   O1    S    
C96   H20   S    
C64   C79   T    
Cr3   O3    S    
C82   C118  T    
C159  C160  S    
C138  H33   S    
C125  O49   A    
C138  C141  S    
Cr9   O33   S    
C5    C137  S    
Cr4   O20   S    
Cr7   O31   S    
C8    C140  S    
C155  H76   S    
Cr11  O35   S    
C48   O32   A    
C158  H83   S    
C91   O39   A    
C11   H44   S    
C69   C70   A    
C9    H42   S    
C87   C107  A    
C130  O10   A    
C166  H92   S    
Cr12  O20   S    
C143  H31   S    
C103  C107  A    
C159  H81   S    
C137  C142  S    
Cr5   O25   S    
C62   C130  S    
Cr7   O7    S    
C140  C143  S    
C36   H8    S    
C20   C56   T    
C142  H1    S    
C7    C143  S    
Cr3   O43   S    
C31   C43   A    
C156  H75   S    
C32   C36   A    
C157  H72   S    
C31   H55   S    
C66   C74   A    
C49   C57   T    
C22   H46   S    
C122  C127  S    
C11   H40   S    
Cr8   O28   S    
C45   O33   A    
C85   C93   A    
C127  O47   A    
C74   C77   S    
C87   C95   A    
Cr12  O16   S    
C9    C10   S    
C110  C114  S    
C47   O35   A    
C61   C129  S    
C37   C53   S    
C44   C52   S    
C72   H16   S    
C90   O38   A    
Cr3   O19   S    
C141  H2    S    
C86   C106  A    
C72   C75   A    
C167  H104  S    
C63   C80   T    
C172  H107  S    
Cr2   O2    S    
C7    C12   S    
C30   C34   A    
C153  C154  S    
C46   O30   A    
C93   H17   S    
C1    O21   A    
Cr1   O17   S    
C152  H69   S    
Cr10  O38   S    
C131  O11   A    
C97   C109  A    
C161  H91   S    
Cr8   O52   S    
C166  H94   S    
C99   C111  A    
C155  C156  S    
C50   C58   T    
C149  H62   S    
C26   H50   S    
C70   H14   S    
Cr1   O41   S    
C42   C50   S    
C164  H97   S    
C168  H102  S    
C163  H86   S    
C13   C145  T    
C67   C75   A    
C171  H109  S    
C10   H37   S    
C112  C116  S    
C101  H21   S    
C26   C42   A    
C2    O26   A    
C21   C25   A    
C137  H34   S    
C29   C41   A    
Cr11  O19   S    
C150  H60   S    
C33   H5    S    
C24   C28   A    
C81   C133  S    
Cr3   O47   S    
C154  H65   S    
C170  H111  S    
C135  O43   A    
Cr8   O8    S    
C71   C72   A    
Cr10  O18   S    
Cr8   O20   S    
C134  O14   A    
C169  H101  S    
C153  H68   S    
C90   O2    A    
C32   H56   S    
C113  C121  T    
C129  O9    A    
C126  O50   A    
C131  O7    A    
C4    O28   A    
C93   C109  A    
Cr7   O27   S    
C151  H59   S    
C88   C96   A    
C98   C110  A    
Cr11  O39   S    
C138  H26   S    
C132  O12   A    
C71   C76   A    
C142  H30   S    
C48   C147  S    
C156  C157  S    
C85   C149  S    
C39   C55   S    
C64   C132  S    
C40   C56   S    
Cr5   O29   S    
C152  C153  S    
C63   C131  S    
C6    C142  S    
Cr9   O9    S    
Cr4   O48   S    
C133  O41   A    
C135  O15   A    
C149  C150  S    
C105  C117  S    
C6    C9    S    
C107  C119  S    
C137  H25   S    
C162  H88   S    
C160  H79   S    
Cr9   O13   S    
C67   C68   A    
C18   C90   S    
C130  O6    A    
C141  H29   S    
Cr8   O32   S    
C45   O29   A    
C144  H32   S    
C161  C162  S    
C94   C110  A    
C33   C37   A    
Cr12  O12   S    
C65   H9    S    
C140  H28   S    
Cr5   O49   S    
C158  C159  S    
Cr5   O5    S    
C30   H54   S    
C136  O16   A    
C170  C171  S    
C38   C54   S    
C84   C120  T    
C70   C73   A    
C128  O52   A    
Cr5   O17   S    
C165  H95   S    
C5    C14   S    
Cr2   O46   S    
C92   O40   A    
C7    C16   S    
C104  H24   S    
C100  C112  A    
C8    C15   S    
C144  H3    S    
C31   C35   A    
C68   C76   A    
C17   C53   T    
C143  H4    S    
C104  C108  A    
C139  H36   S    
C19   C55   T    
C162  C163  S    
C84   C136  S    
C116  C124  T    
C132  O8    A    
Cr1   O45   S    
Cr10  O34   S    
C28   H52   S    
Cr3   O23   S    
Cr12  O40   S    
Cr2   O18   S    
C152  H70   S    
C15   C147  T    
C68   H12   S    
C43   C51   S    
C87   C155  S    
C71   H15   S    
C128  O48   A    
C10   H41   S    
C133  O13   A    
C19   C91   S    
C164  C165  S    
C3    C58   S    
C27   C43   A    
C21   C37   A    
Cr2   O22   S    
C22   C26   A    
C150  C151  S    
C30   C42   A    
C34   H6    S    
C3    O23   A    
C163  H85   S    
Cr6   O26   S    
C97   C161  S    
C167  C168  S    
C35   C39   A    
C169  H99   S    
Cr10  O14   S    
C172  H106  S    
C82   C134  S    
C96   C112  A    
C155  H77   S    
C158  H84   S    
C46   C145  S    
C65   C73   A    
C126  O46   A    
C21   H45   S    
C92   O4    A    
C86   C94   A    
C161  H90   S    
C166  H93   S    
C4    C57   S    
C35   H7    S    
C73   C78   S    
Cr11  O11   S    
C52   C60   T    
C75   C80   S    
C83   C135  S    
C109  C113  S    
C168  H103  S    
C171  H110  S    
C139  H27   S    
C140  H35   S    
C101  C105  A    
C156  H74   S    
C150  H61   S    
C36   C40   A    
C157  H73   S    
C129  O5    A    
C2    O22   A    
C67   H11   S    
C154  H64   S    
C98   C164  S    
C6    C138  S    
Cr9   O37   S    
C139  C144  S    
Cr4   O44   S    
C5    C141  S    
Cr4   O24   S    
Cr7   O19   S    
C61   C78   T    
C27   H51   S    
C32   C44   A    
C8    C144  S    
C3    O27   A    
C86   C152  S    
C25   H49   S    
C169  H100  S    
C1    O25   A    
C81   C117  T    
C95   H19   S    
C23   C27   A    
C51   C59   T    
C125  O45   A    
C167  H105  S    
C9    H38   S    
C172  H108  S    
C151  H58   S    
C47   C148  S    
C34   C38   A    
C66   H10   S    
Cr6   O50   S    
C11   C12   S    
C14   C146  T    
C16   C148  T    
C165  C166  S    
C5    C10   S    
C95   C111  A    
Cr2   O42   S    
C6    C13   S    
C7    C139  S    
Cr9   O17   S    
C8    C11   S    
C23   C39   A    
Cr4   O4    S    
C24   C40   A    
C12   H39   S    
C149  H63   S    
C102  C106  A    
C91   O3    A    
C97   C101  A    
C18   C54   T    
C89   O1    A    
C114  C122  T    
C164  H98   S    
C65   C66   A    
C163  H87   S    
C24   H48   S    
C111  C115  S    
Cr7   O51   S    
C124  C125  S    
