data_mof_unit_27716.cif
_audit_creation_date              2012-12-10T19:59:43-0500
_audit_creation_method            fapswitch 2.2
_symmetry_space_group_name_H-M    P1
_symmetry_Int_Tables_number       1
_space_group_crystal_system       triclinic
_cell_length_a                    18.389821
_cell_length_b                    18.406385
_cell_length_c                    36.138232
_cell_angle_alpha                 89.976663
_cell_angle_beta                  89.919515
_cell_angle_gamma                 89.941443
_cell_volume                      12232.4152168

loop_
_atom_site_label
_atom_site_type_symbol
_atom_type_description
_atom_site_fract_x
_atom_site_fract_y
_atom_site_fract_z
_atom_type_partial_charge
C1    C     C_R   0.500077 0.000069 0.901163 0.905898
C2    C     C_R   0.454067 0.951533 0.730554 0.416295
C3    C     C_R   0.283600 0.773652 0.536674 0.286966
C4    C     C_3   0.235086 0.705300 0.930653 0.460281
C5    C     C_3   0.287631 0.225266 0.930344 0.459925
C6    C     C_3   0.763549 0.295651 0.931550 0.474243
C7    C     C_3   0.732377 0.792737 0.928942 0.491651
C8    C     C_3   0.238101 0.295544 0.932691 0.493053
C9    C     C_3   0.303291 0.757909 0.933072 0.473860
C10   C     C_3   0.796956 0.734775 0.929384 0.458787
C11   C     C_3   0.709184 0.228516 0.930657 0.446704
C12   C     C_3   0.706180 0.233814 0.429028 0.487641
C13   C     C_R   0.048001 0.454259 0.730446 0.414990
C14   C     C_3   0.803672 0.742207 0.432263 0.444918
C15   C     C_3   0.292070 0.768014 0.428908 0.488703
C16   C     C_3   0.202423 0.261062 0.431868 0.463355
C17   C     C_3   0.750704 0.810288 0.434912 0.498721
C18   C     C_3   0.763935 0.298519 0.429536 0.458624
C19   C     C_3   0.269416 0.206374 0.430939 0.457083
C20   C     C_3   0.232744 0.704764 0.429414 0.449398
C21   C     C_R   0.047965 0.454672 0.769391 0.010402
C22   C     C_R   0.546041 0.047967 0.769636 0.000244
C23   C     C_R   0.950187 0.545230 0.769498 0.020187
C24   C     C_R   0.546489 0.048629 0.730482 0.359789
C25   C     C_R   0.454313 0.951632 0.769485 -0.024897
C26   C     C_R   0.549307 0.955636 0.269446 0.009288
C27   C     C_R   0.047739 0.546462 0.269661 -0.000781
C28   C     C_R   0.449646 0.044114 0.269451 0.019182
C29   C     C_R   0.952561 0.453518 0.269503 -0.014558
C30   C     C_R   0.999185 0.500030 0.788680 -0.068263
C31   C     C_R   0.500179 0.999764 0.788678 -0.013536
C32   C     C_R   0.499506 0.999957 0.288683 -0.069146
C33   C     C_R   0.000112 0.499986 0.288695 -0.014858
C34   C     C_R   0.499366 0.999638 0.211264 -0.243417
C35   C     C_R   0.000326 0.500112 0.211332 -0.214802
C36   C     C_R   0.998806 0.499733 0.711263 -0.243436
C37   C     C_R   0.500180 0.000093 0.711315 -0.213467
C38   C     C_1   0.999359 0.500157 0.828515 -0.007982
C39   C     C_1   0.500232 0.999869 0.828514 0.059273
C40   C     C_1   0.499502 0.000092 0.328520 -0.003070
C41   C     C_R   0.999749 0.500056 0.901173 0.912712
C42   C     C_1   0.000128 0.500089 0.328526 0.062329
C43   C     C_1   0.499600 0.999806 0.171422 0.206441
C44   C     C_1   0.000057 0.500046 0.171464 0.212520
C45   C     C_1   0.999078 0.499942 0.671422 0.209607
C46   C     C_1   0.499963 0.999998 0.671450 0.209477
C47   C     C_1   0.499808 0.999922 0.138208 0.007184
C48   C     C_1   0.999918 0.500002 0.138240 0.018063
C49   C     C_1   0.999477 0.499992 0.638208 0.023801
C50   C     C_1   0.499885 0.999963 0.638230 0.003344
C51   C     C_1   0.999478 0.500185 0.861733 -0.090713
C52   C     C_R   0.000037 0.500097 0.401167 0.907576
C53   C     C_1   0.500214 0.999984 0.861730 -0.084008
C54   C     C_1   0.499493 0.000141 0.361737 -0.110510
C55   C     C_1   0.000111 0.500124 0.361740 -0.054435
C56   C     C_R   0.500000 0.999983 0.098805 0.813822
C57   C     C_R   0.999960 0.499987 0.098823 0.817916
C58   C     C_R   0.999934 0.499993 0.598805 0.819046
C59   C     C_R   0.499956 0.999978 0.598820 0.812387
C60   C     C_R   0.640285 0.860259 0.999842 1.020028
C61   C     C_R   0.139875 0.640295 0.999783 1.029354
C62   C     C_R   0.359302 0.139321 0.000130 1.023491
C63   C     C_R   0.499680 0.000048 0.401175 0.875829
C64   C     C_R   0.859945 0.359874 0.999874 1.033268
C65   C     C_R   0.641161 0.139217 0.000741 0.983452
C66   C     C_R   0.139446 0.358967 0.000862 0.986009
C67   C     C_R   0.359133 0.860492 0.000770 0.986677
C68   C     C_R   0.860405 0.640892 0.000594 0.969193
C69   C     C_R   0.140101 0.359926 0.499806 1.030221
C70   C     C_R   0.639743 0.140290 0.499856 1.018555
C71   C     C_R   0.859651 0.639737 0.499920 1.031779
C72   C     C_R   0.360134 0.859769 0.499819 1.017514
C73   C     C_R   0.140921 0.639522 0.500610 0.971761
C74   C     C_R   0.449255 0.044122 0.230498 0.412308
C75   C     C_R   0.639628 0.859287 0.500659 0.989322
C76   C     C_R   0.859085 0.360435 0.500603 0.969216
C77   C     C_R   0.360787 0.141130 0.500787 0.987613
C78   C     C_R   0.271805 0.781360 0.969776 -0.115461
C79   C     C_R   0.215282 0.267609 0.970261 -0.115429
C80   C     C_R   0.733858 0.213399 0.969845 -0.120073
C81   C     C_R   0.794307 0.741797 0.971175 -0.112487
C82   C     C_R   0.264831 0.212324 0.969840 -0.115461
C83   C     C_R   0.217064 0.731423 0.969102 -0.111113
C84   C     C_R   0.738871 0.790424 0.970392 -0.118422
C85   C     C_R   0.952553 0.453182 0.230574 0.415513
C86   C     C_R   0.782322 0.269339 0.969696 -0.108754
C87   C     C_R   0.757667 0.294867 0.471343 -0.112440
C88   C     C_R   0.722830 0.775376 0.469901 -0.127830
C89   C     C_R   0.241383 0.705998 0.471128 -0.111798
C90   C     C_R   0.285720 0.232583 0.469726 -0.116969
C91   C     C_R   0.772698 0.720586 0.469235 -0.109008
C92   C     C_R   0.709145 0.239401 0.470505 -0.117737
C93   C     C_R   0.229875 0.281252 0.469588 -0.109500
C94   C     C_R   0.290159 0.761274 0.470361 -0.113842
C95   C     C_R   0.301071 0.806595 0.002859 -0.184901
C96   C     C_R   0.549414 0.955158 0.230492 0.414799
C97   C     C_R   0.193224 0.300539 0.003160 -0.189552
C98   C     C_R   0.700653 0.191542 0.002843 -0.190398
C99   C     C_R   0.808162 0.700471 0.002986 -0.181061
C100  C     C_R   0.298093 0.188855 0.002394 -0.192983
C101  C     C_R   0.189959 0.701148 0.001780 -0.193216
C102  C     C_R   0.700907 0.810316 0.002188 -0.176217
C103  C     C_R   0.809129 0.299760 0.002171 -0.183782
C104  C     C_R   0.799484 0.308211 0.503021 -0.180947
C105  C     C_R   0.693461 0.801193 0.502830 -0.186491
C106  C     C_R   0.200369 0.691806 0.502996 -0.184990
C107  C     C_R   0.048246 0.547067 0.230504 0.361858
C108  C     C_R   0.308276 0.200436 0.502824 -0.191771
C109  C     C_R   0.799134 0.690158 0.501895 -0.193973
C110  C     C_R   0.689713 0.200897 0.502211 -0.176427
C111  C     C_R   0.200257 0.309133 0.502065 -0.183187
C112  C     C_R   0.310093 0.799144 0.502166 -0.178841
C113  C     C_R   0.268783 0.783802 0.037108 0.313231
C114  C     C_R   0.218595 0.271170 0.037634 0.314959
C115  C     C_R   0.730031 0.217070 0.037293 0.315207
C116  C     C_R   0.773556 0.721990 0.037082 0.306744
C117  C     C_R   0.267347 0.210149 0.036801 0.287733
C118  C     C_R   0.949615 0.545175 0.730539 0.412419
C119  C     C_R   0.208095 0.734685 0.035965 0.288212
C120  C     C_R   0.726248 0.783847 0.036685 0.287269
C121  C     C_R   0.790530 0.266414 0.036350 0.283506
C122  C     C_R   0.778529 0.272922 0.537027 0.306919
C123  C     C_R   0.712353 0.765767 0.536820 0.316200
C124  C     C_R   0.221892 0.726193 0.537095 0.308792
C125  C     C_R   0.283574 0.230849 0.537217 0.313590
C126  C     C_R   0.762400 0.705618 0.535674 0.286501
C127  C     C_R   0.716653 0.225724 0.536690 0.287100
C128  C     C_R   0.234252 0.291412 0.536170 0.286199
H1    H     H_    0.419030 0.803312 0.101879 0.400008
H2    H     H_    0.684562 0.908928 0.604941 0.397898
H3    H     H_    0.053742 0.727739 0.590603 0.402475
H4    H     H_    0.300214 0.078816 0.601178 0.401087
H5    H     H_    0.823145 0.540605 0.585311 0.394368
H6    H     H_    0.554930 0.172836 0.590018 0.400223
H7    H     H_    0.176178 0.456852 0.585723 0.393883
H8    H     H_    0.444270 0.829608 0.589667 0.399773
H9    H     H_    0.170847 0.556220 0.892484 0.386315
H10   H     H_    0.425329 0.153856 0.886080 0.385235
H11   H     H_    0.795746 0.473607 0.916003 0.410450
H12   H     H_    0.204633 0.426740 0.099488 0.401257
H13   H     H_    0.552029 0.833134 0.899695 0.376576
H14   H     H_    0.353190 0.448929 0.903623 0.426742
H15   H     H_    0.470596 0.660829 0.905271 0.424546
H16   H     H_    0.732987 0.590099 0.866175 0.401079
H17   H     H_    0.544658 0.313944 0.892536 0.434014
H18   H     H_    0.668691 0.051881 0.399695 0.390177
H19   H     H_    0.952183 0.676983 0.397576 0.388687
H20   H     H_    0.344668 0.937149 0.396768 0.382404
H21   H     H_    0.024625 0.293217 0.416513 0.409760
H22   H     H_    0.857331 0.975875 0.415257 0.427638
H23   H     H_    0.576212 0.201990 0.100398 0.400205
H24   H     H_    0.907669 0.235344 0.365255 0.400914
H25   H     H_    0.200544 0.035551 0.390286 0.423097
H26   H     H_    0.085758 0.773111 0.368562 0.409060
H27   H     H_    0.101366 0.826834 0.884729 0.416393
H28   H     H_    0.153108 0.096950 0.890568 0.411562
H29   H     H_    0.945140 0.235722 0.899302 0.415714
H30   H     H_    0.805871 0.979758 0.931993 0.420514
H31   H     H_    0.122444 0.400243 0.872306 0.351104
H32   H     H_    0.419346 0.836382 0.878328 0.361981
H33   H     H_    0.872189 0.720796 0.854671 0.378660
H34   H     H_    0.771501 0.553985 0.090506 0.403990
H35   H     H_    0.664016 0.174972 0.852975 0.384187
H36   H     H_    0.518163 0.304958 0.433873 0.419949
H37   H     H_    0.687507 0.613729 0.379521 0.416056
H38   H     H_    0.476087 0.686259 0.431088 0.416370
H39   H     H_    0.273342 0.432906 0.393946 0.426289
H40   H     H_    0.633191 0.916811 0.375535 0.350582
H41   H     H_    0.776375 0.375577 0.355253 0.378427
H42   H     H_    0.317660 0.159438 0.353190 0.374164
H43   H     H_    0.216510 0.634156 0.353575 0.381924
H44   H     H_    0.697583 0.821809 0.215293 0.418819
H45   H     H_    0.329925 0.048948 0.088302 0.399605
H46   H     H_    0.190281 0.686842 0.212269 0.429290
H47   H     H_    0.299182 0.175266 0.215346 0.419465
H48   H     H_    0.811726 0.312418 0.215477 0.418733
H49   H     H_    0.193710 0.318249 0.715133 0.418382
H50   H     H_    0.683820 0.193028 0.712240 0.430177
H51   H     H_    0.801546 0.678598 0.715508 0.418260
H52   H     H_    0.316988 0.807129 0.715432 0.418961
H53   H     H_    0.130597 0.442167 0.805869 0.216666
H54   H     H_    0.067861 0.374439 0.806488 0.230212
H55   H     H_    0.645837 0.084758 0.784647 0.283889
H56   H     H_    0.042775 0.676050 0.085743 0.394071
H57   H     H_    0.577944 0.149251 0.784849 0.268236
H58   H     H_    0.868671 0.559073 0.806697 0.226925
H59   H     H_    0.931700 0.626390 0.806241 0.223880
H60   H     H_    0.440428 0.869666 0.806302 0.216387
H61   H     H_    0.373506 0.933257 0.806566 0.243846
H62   H     H_    0.632160 0.945059 0.305965 0.218660
H63   H     H_    0.570931 0.876051 0.306686 0.237402
H64   H     H_    0.148781 0.579685 0.284692 0.272612
H65   H     H_    0.083231 0.646553 0.284882 0.269990
H66   H     H_    0.367616 0.055945 0.306494 0.214664
H67   H     H_    0.673104 0.945824 0.089670 0.399402
H68   H     H_    0.429100 0.124705 0.306230 0.243192
H69   H     H_    0.934977 0.372611 0.306555 0.223210
H70   H     H_    0.870649 0.438823 0.306351 0.220973
H71   H     H_    0.953911 0.327072 0.086509 0.398032
H72   H     H_    0.947575 0.269633 0.589558 0.403657
N1    N     N_3   0.097690 0.409196 0.789345 -0.307095
N2    N     N_3   0.591396 0.095406 0.790942 -0.389479
N3    N     N_3   0.901197 0.591406 0.789590 -0.316617
N4    N     N_3   0.408015 0.902794 0.789554 -0.302099
N5    N     N_3   0.599989 0.911317 0.289468 -0.303626
N6    N     N_3   0.094749 0.592265 0.290979 -0.393756
N7    N     N_3   0.399508 0.089103 0.289490 -0.314180
N8    N     N_3   0.904141 0.406774 0.289573 -0.317985
O1    O     O_3   0.500000 0.000000 0.000000 -0.577727
O2    O     O_R   0.500000 0.939300 0.418540 -0.564663
O3    O     O_3   0.422973 0.809621 0.566662 -0.563088
O4    O     O_2   0.302488 0.591652 0.896621 -0.208554
O5    O     O_2   0.281354 0.578788 0.963254 -0.201724
O6    O     O_3   0.172016 0.564784 0.919538 -0.526137
O7    O     O_2   0.398003 0.287236 0.891162 -0.232825
O8    O     O_2   0.421659 0.266708 0.957006 -0.211450
O9    O     O_3   0.423360 0.156509 0.913442 -0.522624
O10   O     O_2   0.686368 0.403839 0.898006 -0.203964
O11   O     O_2   0.672690 0.394451 0.965307 -0.178648
O12   O     O_3   0.790645 0.448692 0.940118 -0.538568
O13   O     O_R   0.060700 0.500000 0.418540 -0.551660
O14   O     O_2   0.644386 0.749687 0.872852 -0.213445
O15   O     O_2   0.618717 0.695723 0.933595 -0.195400
O16   O     O_3   0.580909 0.828225 0.922668 -0.542039
O17   O     O_2   0.228706 0.438466 0.949770 -0.227029
O18   O     O_2   0.341437 0.379827 0.967047 -0.215695
O19   O     O_3   0.319176 0.409172 0.897281 -0.431424
O20   O     O_2   0.446764 0.774522 0.949851 -0.291940
O21   O     O_2   0.392059 0.662108 0.970472 -0.197969
O22   O     O_3   0.420366 0.677528 0.900209 -0.461774
O23   O     O_2   0.846740 0.599756 0.912801 -0.350467
O24   O     O_R   0.500000 0.060700 0.418540 -0.545848
O25   O     O_2   0.727064 0.605419 0.941378 -0.216776
O26   O     O_3   0.740532 0.642107 0.872053 -0.477904
O27   O     O_2   0.571786 0.175868 0.924843 -0.288930
O28   O     O_2   0.584596 0.286536 0.960746 -0.209571
O29   O     O_3   0.594253 0.294270 0.888810 -0.474062
O30   O     O_2   0.748405 0.147076 0.372196 -0.204686
O31   O     O_2   0.804090 0.120591 0.432415 -0.198324
O32   O     O_3   0.671521 0.082344 0.422220 -0.535922
O33   O     O_2   0.922505 0.810886 0.403421 -0.190675
O34   O     O_2   0.926899 0.784856 0.469833 -0.199040
O35   O     O_R   0.500000 0.939270 0.081460 -0.615259
O36   O     O_3   0.945418 0.678941 0.424762 -0.536895
O37   O     O_2   0.248744 0.856078 0.372801 -0.221902
O38   O     O_2   0.197861 0.884043 0.433929 -0.182245
O39   O     O_3   0.330701 0.918283 0.421448 -0.536571
O40   O     O_2   0.093698 0.181949 0.400172 -0.187891
O41   O     O_2   0.104205 0.172841 0.467607 -0.177160
O42   O     O_3   0.049338 0.289024 0.440716 -0.540283
O43   O     O_2   0.732761 0.952532 0.454296 -0.265857
O44   O     O_2   0.841644 0.894474 0.477482 -0.210856
O45   O     O_3   0.836101 0.928838 0.407542 -0.430161
O46   O     O_R   0.060730 0.500000 0.081460 -0.615172
O47   O     O_2   0.898657 0.348726 0.412289 -0.350558
O48   O     O_2   0.893852 0.228785 0.440427 -0.219962
O49   O     O_3   0.855731 0.243174 0.371384 -0.477532
O50   O     O_2   0.322234 0.069056 0.426856 -0.334686
O51   O     O_2   0.211174 0.083042 0.462492 -0.205802
O52   O     O_3   0.203623 0.089278 0.390574 -0.472240
O53   O     O_2   0.095294 0.658902 0.415029 -0.310051
O54   O     O_2   0.105597 0.778074 0.443393 -0.194918
O55   O     O_3   0.137917 0.763901 0.373541 -0.478873
O56   O     O_2   0.183760 0.713445 0.860201 -0.215535
O57   O     O_R   0.500000 0.060730 0.081460 -0.615719
O58   O     O_2   0.094928 0.687628 0.908165 -0.223152
O59   O     O_3   0.140442 0.818880 0.903132 -0.459184
O60   O     O_2   0.269114 0.166046 0.861953 -0.216863
O61   O     O_2   0.295026 0.081510 0.911885 -0.215757
O62   O     O_3   0.166242 0.134532 0.908987 -0.467083
O63   O     O_2   0.821763 0.273208 0.862650 -0.178779
O64   O     O_2   0.878071 0.366830 0.899689 -0.298131
O65   O     O_3   0.904974 0.234447 0.917578 -0.468746
O66   O     O_2   0.790567 0.880968 0.875002 -0.163637
O67   O     O_2   0.682422 0.924895 0.905375 -0.215940
O68   O     O_R   0.939270 0.500000 0.081460 -0.610147
O69   O     O_3   0.801918 0.930072 0.942326 -0.488882
O70   O     O_2   0.185190 0.281799 0.862391 -0.216827
O71   O     O_2   0.098505 0.260315 0.912932 -0.221247
O72   O     O_3   0.136407 0.391970 0.898404 -0.513502
O73   O     O_2   0.289328 0.809219 0.861996 -0.213595
O74   O     O_2   0.261570 0.894734 0.911930 -0.170824
O75   O     O_3   0.395430 0.864214 0.898408 -0.542018
O76   O     O_2   0.907689 0.835190 0.926061 -0.175643
O77   O     O_2   0.943016 0.709809 0.917657 -0.197375
O78   O     O_3   0.876990 0.771288 0.863797 -0.442692
O79   O     O_R   1.000000 0.439270 0.581460 -0.609597
O80   O     O_2   0.810275 0.130128 0.904947 -0.191210
O81   O     O_2   0.686209 0.087875 0.908760 -0.229298
O82   O     O_3   0.717529 0.175981 0.855965 -0.439011
O83   O     O_2   0.616739 0.292836 0.375892 -0.160352
O84   O     O_2   0.573857 0.183890 0.405768 -0.215746
O85   O     O_3   0.568502 0.302451 0.443503 -0.488015
O86   O     O_2   0.802623 0.698202 0.360386 -0.218781
O87   O     O_2   0.824375 0.604524 0.406463 -0.240670
O88   O     O_3   0.693539 0.650103 0.399472 -0.457966
O89   O     O_2   0.379216 0.710261 0.374393 -0.167905
O90   O     O_R   0.560730 0.000000 0.581460 -0.614638
O91   O     O_2   0.427011 0.814310 0.406725 -0.235236
O92   O     O_3   0.426759 0.692579 0.441659 -0.484963
O93   O     O_2   0.221179 0.315968 0.362133 -0.186924
O94   O     O_2   0.131240 0.375948 0.400280 -0.288387
O95   O     O_3   0.265196 0.400611 0.415483 -0.452794
O96   O     O_2   0.709129 0.807110 0.362335 -0.211116
O97   O     O_2   0.617542 0.769196 0.407911 -0.207904
O98   O     O_3   0.645937 0.905291 0.401487 -0.535155
O99   O     O_2   0.662778 0.408838 0.427427 -0.169931
O100  O     O_2   0.787866 0.445127 0.418600 -0.200871
O101  O     O_R   0.000000 0.560730 0.581460 -0.611319
O102  O     O_3   0.725953 0.379865 0.364673 -0.441031
O103  O     O_2   0.368377 0.305494 0.403944 -0.194484
O104  O     O_2   0.409081 0.181031 0.407709 -0.233816
O105  O     O_3   0.319612 0.212969 0.355689 -0.437561
O106  O     O_2   0.329674 0.590984 0.424372 -0.171243
O107  O     O_2   0.203179 0.560362 0.415397 -0.223947
O108  O     O_3   0.266911 0.627779 0.362652 -0.447922
O109  O     O_2   0.568867 0.848886 0.180878 -0.238724
O110  O     O_2   0.657828 0.947492 0.181098 -0.247090
O111  O     O_3   0.666376 0.849764 0.232543 -0.457075
O112  O     O_3   0.000000 0.500000 0.000000 -0.576520
O113  O     O_R   0.439270 0.000000 0.581460 -0.614739
O114  O     O_2   0.154824 0.558223 0.180321 -0.237028
O115  O     O_2   0.061644 0.652867 0.180098 -0.237701
O116  O     O_3   0.161422 0.658381 0.230329 -0.532088
O117  O     O_2   0.429515 0.151770 0.181720 -0.237527
O118  O     O_2   0.342421 0.051551 0.180313 -0.246972
O119  O     O_3   0.330141 0.147073 0.232578 -0.459810
O120  O     O_2   0.843884 0.440741 0.181786 -0.240110
O121  O     O_2   0.938114 0.346982 0.180454 -0.244686
O122  O     O_3   0.841696 0.341590 0.232701 -0.464156
O123  O     O_2   0.065333 0.347664 0.680804 -0.239692
O124  O     O_R   0.646180 0.914510 0.978640 -0.577803
O125  O     O_2   0.156155 0.444565 0.680991 -0.244458
O126  O     O_3   0.162967 0.346652 0.732408 -0.458451
O127  O     O_2   0.652786 0.063336 0.680389 -0.231765
O128  O     O_2   0.556359 0.154669 0.679981 -0.242723
O129  O     O_3   0.655676 0.163865 0.730301 -0.526897
O130  O     O_2   0.931713 0.653456 0.681951 -0.239610
O131  O     O_2   0.843095 0.554595 0.680271 -0.244851
O132  O     O_3   0.832082 0.649884 0.732712 -0.467076
O133  O     O_2   0.346464 0.935682 0.681397 -0.240518
O134  O     O_2   0.443067 0.844343 0.680772 -0.249363
O135  O     O_R   0.085490 0.646180 0.978640 -0.574897
O136  O     O_3   0.345990 0.837244 0.732664 -0.456675
O137  O     O_R   0.353820 0.085490 0.978640 -0.579670
O138  O     O_R   0.914510 0.353820 0.978640 -0.582495
O139  O     O_R   0.646180 0.085490 0.978640 -0.595689
O140  O     O_R   0.085490 0.353820 0.978640 -0.588059
O141  O     O_R   0.353820 0.914510 0.978640 -0.586500
O142  O     O_R   0.914510 0.646180 0.978640 -0.584978
O143  O     O_R   0.146180 0.414510 0.478640 -0.574697
O144  O     O_3   0.000000 0.500000 0.500000 -0.577531
O145  O     O_R   0.585490 0.146180 0.478640 -0.577864
O146  O     O_R   0.853820 0.585490 0.478640 -0.573537
O147  O     O_R   0.414510 0.853820 0.478640 -0.574907
O148  O     O_R   0.146180 0.585490 0.478640 -0.584141
O149  O     O_R   0.585490 0.853820 0.478640 -0.591029
O150  O     O_R   0.853820 0.414510 0.478640 -0.584259
O151  O     O_R   0.414510 0.146180 0.478640 -0.594241
O152  O     O_R   0.414550 0.146120 0.021350 -0.587214
O153  O     O_R   0.853880 0.414550 0.021350 -0.590621
O154  O     O_R   0.585450 0.853880 0.021350 -0.593414
O155  O     O_3   0.500000 0.000000 0.500000 -0.574980
O156  O     O_R   0.146120 0.585450 0.021350 -0.585837
O157  O     O_R   0.414550 0.853880 0.021350 -0.570947
O158  O     O_R   0.853880 0.585450 0.021350 -0.576477
O159  O     O_R   0.585450 0.146120 0.021350 -0.569863
O160  O     O_R   0.146120 0.414550 0.021350 -0.570205
O161  O     O_R   0.914550 0.646120 0.521350 -0.587903
O162  O     O_R   0.353880 0.914550 0.521350 -0.595699
O163  O     O_R   0.085450 0.353880 0.521350 -0.591042
O164  O     O_R   0.646120 0.085450 0.521350 -0.592019
O165  O     O_R   0.914550 0.353880 0.521350 -0.576273
O166  O     O_R   0.439300 0.000000 0.918540 -0.548932
O167  O     O_R   0.353880 0.085450 0.521350 -0.571770
O168  O     O_R   0.085450 0.646120 0.521350 -0.575645
O169  O     O_R   0.646120 0.914550 0.521350 -0.569624
O170  O     O_2   0.315161 0.893358 0.080301 -0.319654
O171  O     O_2   0.270984 0.787517 0.114143 -0.149322
O172  O     O_3   0.394310 0.776451 0.081757 -0.468343
O173  O     O_2   0.112822 0.321641 0.082334 -0.321320
O174  O     O_2   0.221477 0.279761 0.114578 -0.148657
O175  O     O_3   0.230081 0.400114 0.079466 -0.465451
O176  O     O_2   0.680495 0.110173 0.081462 -0.319403
O177  O     O_R   0.000000 0.439300 0.918540 -0.568686
O178  O     O_2   0.723850 0.217479 0.114266 -0.149172
O179  O     O_3   0.602289 0.227807 0.080319 -0.467590
O180  O     O_2   0.863869 0.663431 0.087567 -0.302685
O181  O     O_2   0.744235 0.697343 0.111390 -0.149969
O182  O     O_3   0.751447 0.584556 0.070379 -0.465204
O183  O     O_2   0.337451 0.189890 0.101246 -0.192785
O184  O     O_2   0.212323 0.143404 0.097164 -0.163373
O185  O     O_3   0.313338 0.071035 0.064777 -0.580501
O186  O     O_2   0.183612 0.669503 0.101417 -0.191120
O187  O     O_2   0.135967 0.793533 0.093723 -0.165346
O188  O     O_R   0.560700 0.000000 0.918540 -0.552790
O189  O     O_3   0.067221 0.689276 0.062244 -0.593862
O190  O     O_2   0.644518 0.805413 0.097532 -0.195320
O191  O     O_2   0.774440 0.835761 0.102229 -0.166814
O192  O     O_3   0.691302 0.923618 0.066466 -0.572775
O193  O     O_2   0.813477 0.334001 0.101221 -0.197877
O194  O     O_2   0.859869 0.209118 0.095332 -0.162402
O195  O     O_3   0.930896 0.311163 0.063111 -0.582901
O196  O     O_2   0.837639 0.361785 0.587930 -0.300746
O197  O     O_2   0.804499 0.241505 0.610940 -0.151176
O198  O     O_3   0.916718 0.250094 0.569442 -0.465057
O199  O     O_R   0.000000 0.560700 0.918540 -0.554872
O200  O     O_2   0.596612 0.809166 0.576728 -0.323654
O201  O     O_2   0.696305 0.760185 0.613483 -0.147479
O202  O     O_3   0.713509 0.886347 0.584859 -0.471048
O203  O     O_2   0.163420 0.635435 0.587444 -0.303328
O204  O     O_2   0.197129 0.754638 0.611521 -0.150728
O205  O     O_3   0.084330 0.748002 0.570514 -0.464157
O206  O     O_2   0.391587 0.182434 0.580967 -0.319572
O207  O     O_2   0.284803 0.226664 0.614193 -0.149522
O208  O     O_3   0.274003 0.104318 0.581058 -0.468694
O209  O     O_2   0.820324 0.680770 0.602772 -0.192188
O210  O     O_R   0.939300 0.500000 0.418540 -0.562855
O211  O     O_2   0.700352 0.627256 0.590225 -0.166337
O212  O     O_3   0.812315 0.565688 0.561689 -0.597755
O213  O     O_2   0.695335 0.143159 0.597212 -0.192701
O214  O     O_2   0.665837 0.273114 0.602710 -0.166900
O215  O     O_3   0.576963 0.191428 0.566850 -0.570694
O216  O     O_2   0.167799 0.316138 0.601282 -0.196345
O217  O     O_2   0.292641 0.362143 0.594364 -0.165021
O218  O     O_3   0.189792 0.432401 0.562296 -0.591840
O219  O     O_2   0.303945 0.855165 0.597567 -0.198054
O220  O     O_2   0.335737 0.725614 0.602239 -0.163826
S1    S     S_3+6 0.309999 0.811847 0.079854 0.126265
S2    S     S_3+6 0.677948 0.802863 0.579400 0.122654
S3    S     S_3+6 0.168315 0.715031 0.578377 0.134569
S4    S     S_3+6 0.310049 0.188278 0.579903 0.125856
S5    S     S_3+6 0.773529 0.644969 0.573996 0.128889
S6    S     S_3+6 0.664441 0.208167 0.577506 0.137306
S7    S     S_3+6 0.221316 0.350229 0.575031 0.130228
S8    S     S_3+6 0.335845 0.791163 0.577405 0.138208
S9    S     S_3+6 0.250870 0.608227 0.927751 0.123847
S10   S     S_3+6 0.384696 0.237017 0.923230 0.108616
S11   S     S_3+6 0.724908 0.386643 0.933593 0.127174
S12   S     S_3+6 0.194287 0.316018 0.080097 0.128783
S13   S     S_3+6 0.642954 0.763267 0.913858 0.114690
S14   S     S_3+6 0.283366 0.382663 0.937917 0.143833
S15   S     S_3+6 0.392570 0.716952 0.939729 0.105983
S16   S     S_3+6 0.777319 0.642576 0.914566 0.058042
S17   S     S_3+6 0.612232 0.246484 0.927355 0.099888
S18   S     S_3+6 0.735862 0.144841 0.413290 0.124273
S19   S     S_3+6 0.901387 0.757411 0.432946 0.125245
S20   S     S_3+6 0.264104 0.857754 0.413636 0.110484
S21   S     S_3+6 0.111403 0.222851 0.434987 0.133862
S22   S     S_3+6 0.791094 0.898406 0.444966 0.131696
S23   S     S_3+6 0.686344 0.191601 0.079898 0.126867
S24   S     S_3+6 0.855995 0.279333 0.414048 0.055770
S25   S     S_3+6 0.251320 0.109335 0.428848 0.085795
S26   S     S_3+6 0.140029 0.727008 0.416044 0.088966
S27   S     S_3+6 0.162042 0.730481 0.899354 0.128206
S28   S     S_3+6 0.255240 0.150121 0.902135 0.128573
S29   S     S_3+6 0.842832 0.293557 0.901382 0.127758
S30   S     S_3+6 0.751643 0.883663 0.911478 0.156510
S31   S     S_3+6 0.162701 0.304640 0.900625 0.135806
S32   S     S_3+6 0.309803 0.832797 0.900360 0.141537
S33   S     S_3+6 0.883890 0.763840 0.910053 0.155082
S34   S     S_3+6 0.784305 0.668424 0.078337 0.134967
S35   S     S_3+6 0.732432 0.152895 0.900356 0.148696
S36   S     S_3+6 0.614798 0.253097 0.412123 0.157417
S37   S     S_3+6 0.782060 0.672420 0.398442 0.120538
S38   S     S_3+6 0.382775 0.746615 0.411488 0.146138
S39   S     S_3+6 0.203900 0.339122 0.400982 0.132223
S40   S     S_3+6 0.679457 0.820406 0.400480 0.137309
S41   S     S_3+6 0.734127 0.385817 0.410928 0.156801
S42   S     S_3+6 0.344333 0.228063 0.399804 0.140875
S43   S     S_3+6 0.259095 0.618152 0.408775 0.145284
S44   S     S_3+6 0.611612 0.899464 0.205180 0.112074
S45   S     S_3+6 0.282512 0.154037 0.076497 0.134692
S46   S     S_3+6 0.107462 0.605050 0.204472 0.078288
S47   S     S_3+6 0.386862 0.099506 0.205203 0.112398
S48   S     S_3+6 0.893120 0.394718 0.205306 0.111170
S49   S     S_3+6 0.109084 0.397404 0.705091 0.112915
S50   S     S_3+6 0.603722 0.108573 0.704448 0.078512
S51   S     S_3+6 0.888177 0.601680 0.705293 0.110376
S52   S     S_3+6 0.396495 0.891254 0.705275 0.110623
S53   S     S_3+6 0.149002 0.721948 0.074819 0.131204
S54   S     S_3+6 0.708966 0.836444 0.077364 0.136029
S55   S     S_3+6 0.848355 0.280004 0.075504 0.132228
S56   S     S_3+6 0.832790 0.282565 0.578079 0.135320
Zn1   Zn    Zn3+2 0.500000 0.913220 0.030510 1.143814
Zn2   Zn    Zn3+2 0.000000 0.586770 0.969480 1.190074
Zn3   Zn    Zn3+2 0.413230 1.000000 0.969480 1.194358
Zn4   Zn    Zn3+2 1.000000 0.413230 0.969480 1.174278
Zn5   Zn    Zn3+2 0.086770 0.500000 0.469480 1.189832
Zn6   Zn    Zn3+2 0.500000 0.086770 0.469480 1.180080
Zn7   Zn    Zn3+2 0.913230 0.500000 0.469480 1.187900
Zn8   Zn    Zn3+2 0.500000 0.913230 0.469480 1.176935
Zn9   Zn    Zn3+2 0.086780 0.500000 0.030510 1.149221
Zn10  Zn    Zn3+2 0.500000 0.086780 0.030510 1.148540
Zn11  Zn    Zn3+2 0.913220 0.500000 0.030510 1.135427
Zn12  Zn    Zn3+2 0.000000 0.413220 0.530510 1.134815
Zn13  Zn    Zn3+2 0.586780 0.000000 0.530510 1.148232
Zn14  Zn    Zn3+2 0.000000 0.586780 0.530510 1.141693
Zn15  Zn    Zn3+2 0.413220 0.000000 0.530510 1.143888
Zn16  Zn    Zn3+2 0.586770 1.000000 0.969480 1.183426

loop_
_geom_bond_atom_site_label_1
_geom_bond_atom_site_label_2
_ccdc_geom_bond_type
O102  S41   S    
C72   C112  S    
O43   S22   D    
O175  S12   S    
C72   O162  A    
C64   C103  S    
O50   S25   D    
O176  S23   D    
C25   N4    S    
C122  S56   S    
C23   C118  A    
H14   O19   S    
O72   S31   S    
C128  S7    S    
O93   S39   D    
C29   N8    S    
O31   S18   D    
C50   C59   S    
C66   C97   S    
C34   C96   A    
O163  Zn12  S    
O33   S19   D    
H41   O102  S    
C54   C63   S    
H56   O189  S    
H5    O212  S    
C29   C33   A    
O20   S15   D    
C30   C38   S    
C89   C94   A    
O112  Zn11  S    
C80   C86   A    
H26   O55   S    
C14   S37   S    
O13   Zn5   S    
C118  S51   S    
O157  Zn1   S    
H11   O12   S    
C7    S13   S    
C8    S31   S    
O146  Zn7   S    
C13   S49   S    
C89   C106  A    
O211  S5    D    
O214  S6    D    
C24   S50   S    
C76   O165  A    
O200  S2    D    
O106  S43   D    
O220  S8    D    
O162  Zn15  S    
H23   O179  S    
O150  Zn7   S    
C26   C96   A    
O76   S33   D    
O208  S4    S    
O192  S54   S    
O148  Zn5   S    
C114  S12   S    
H36   O85   S    
C67   O157  A    
H37   O88   S    
O155  Zn6   S    
O115  S46   D    
C15   C20   S    
O159  Zn10  S    
C21   N1    S    
C28   C32   A    
H49   O126  S    
O15   S13   D    
C99   C116  A    
O54   S26   D    
H30   O69   S    
O172  S1    S    
C81   C99   A    
O23   S16   D    
O71   S31   D    
C72   O147  A    
C101  C119  A    
H57   N2    S    
O186  S53   D    
O74   S32   D    
C42   C55   T    
C64   O138  A    
C3    C112  A    
C117  S45   S    
C13   C21   A    
O66   S30   D    
O168  Zn14  S    
O47   S24   D    
O80   S35   D    
O144  Zn14  S    
H4    O208  S    
O45   S22   S    
O52   S25   S    
H18   O32   S    
C75   C105  S    
C15   S38   S    
O2    Zn8   S    
O219  S8    D    
H67   O192  S    
C63   O2    A    
O64   S29   D    
C103  C121  A    
C62   O137  A    
H48   O122  S    
H52   O136  S    
C126  S5    S    
O112  Zn4   S    
C57   O68   A    
O203  S3    D    
H21   O42   S    
C61   O156  A    
O117  S47   D    
O46   Zn9   S    
O110  S44   D    
C79   C97   A    
H53   N1    S    
C5    C8    S    
H46   O116  S    
O53   S26   D    
O184  S45   D    
O11   S11   D    
O170  S1    D    
O90   Zn13  S    
O187  S53   D    
O7    S10   D    
C73   O168  A    
C5    C82   S    
H47   O119  S    
O88   S37   S    
O4    S9    D    
O97   S40   D    
O92   S38   S    
O67   S30   D    
O86   S37   D    
O59   S27   S    
C35   C107  A    
C116  C120  A    
O105  S42   S    
H39   O95   S    
C106  C124  A    
H69   N8    S    
C100  C117  A    
C43   C47   T    
C41   C51   S    
C44   C48   T    
O29   S17   S    
C25   C31   A    
C26   C32   A    
C115  C121  A    
O61   S28   D    
H54   N1    S    
C84   C102  A    
O174  S12   D    
C15   C94   S    
H1    O172  S    
C48   C57   S    
O1    Zn1   S    
C27   C33   A    
O152  Zn10  S    
H66   N7    S    
C105  C123  A    
O70   S31   D    
C33   C42   S    
O3    S8    S    
O124  Zn16  S    
C18   S41   S    
C104  C122  A    
O194  S55   D    
O183  S45   D    
C57   O46   A    
C119  S53   S    
C122  C127  A    
O91   S38   D    
C115  S23   S    
C70   C110  S    
C75   O169  A    
H24   O49   S    
O96   S40   D    
O165  Zn12  S    
C9    S15   S    
C5    S28   S    
C29   C85   A    
C6    S11   S    
C19   S42   S    
O131  S51   D    
O27   S17   D    
H45   O185  S    
H15   O22   S    
C67   C95   S    
O213  S6    D    
C14   C17   S    
O155  Zn15  S    
O134  S52   D    
C60   C102  S    
O36   S19   S    
C1    O166  A    
O189  S53   S    
O75   S32   S    
O49   S24   S    
O101  Zn14  S    
O158  Zn11  S    
C38   C51   T    
O16   S13   S    
H60   N4    S    
H20   O39   S    
O48   S24   D    
O12   S11   S    
C61   C101  S    
C15   S20   S    
C35   C44   S    
C59   O90   A    
C88   C91   A    
C24   C37   A    
C64   O153  A    
O18   S14   D    
O137  Zn3   S    
O205  S3    S    
O210  Zn7   S    
C12   S36   S    
O206  S4    D    
O37   S20   D    
C10   S33   S    
C7    S30   S    
C40   C54   T    
H44   O111  S    
O85   S36   S    
O209  S5    D    
O8    S10   D    
C36   C118  A    
H33   O78   S    
O127  S50   D    
O1    Zn3   S    
O125  S49   D    
C65   O159  A    
C16   S21   S    
C83   C101  A    
C12   C92   S    
O19   S14   S    
C34   C43   S    
C74   S47   S    
C79   C82   A    
H71   O195  S    
H38   O92   S    
C20   C89   S    
C6    C86   S    
O14   S13   D    
H16   O26   S    
C90   C108  A    
C19   C90   S    
C88   C105  A    
C35   C85   A    
C92   C110  A    
C98   C115  A    
O1    Zn16  S    
C94   C112  A    
O100  S41   D    
O51   S25   D    
H58   N3    S    
C71   O146  A    
C14   C91   S    
C114  C117  A    
O126  S49   S    
C18   S24   S    
C109  C126  A    
O215  S6    S    
O156  Zn9   S    
O123  S49   D    
O122  S48   S    
C111  C128  A    
O155  Zn13  S    
O56   S27   D    
O143  Zn5   S    
C4    C9    S    
O167  Zn15  S    
C60   O124  A    
O68   Zn11  S    
O212  S5    S    
C47   C56   S    
C76   C104  S    
C7    C10   S    
O79   Zn12  S    
O95   S39   S    
H9    O6    S    
C107  S46   S    
C3    S8    S    
O73   S32   D    
C28   C74   A    
O24   Zn6   S    
C68   O158  A    
O180  S34   D    
O129  S50   S    
O193  S55   D    
C1    O188  A    
C14   S19   S    
O108  S43   S    
C65   C98   S    
H29   O65   S    
O107  S43   D    
C77   O151  A    
H28   O62   S    
O140  Zn4   S    
H32   O75   S    
H59   N3    S    
O77   S33   D    
C113  S1    S    
H63   N5    S    
C113  C119  A    
C127  S6    S    
C78   C83   A    
O30   S18   D    
O116  S46   S    
H10   O9    S    
C69   O143  A    
C8    C79   S    
O144  Zn5   S    
O136  S52   S    
O1    Zn10  S    
O109  S44   D    
O111  S44   S    
C12   S18   S    
O104  S42   D    
C52   C55   S    
O141  Zn3   S    
C52   O13   A    
H12   O175  S    
C87   C92   A    
C41   O177  A    
O138  Zn4   S    
O103  S42   D    
O63   S29   D    
H72   O198  S    
C77   C108  S    
H61   N4    S    
O120  S48   D    
O28   S17   D    
O198  S56   S    
O202  S2    S    
O178  S23   D    
C75   O149  A    
C22   N2    S    
H6    O215  S    
H22   O45   S    
O34   S19   D    
C66   O160  A    
O78   S33   S    
O188  Zn16  S    
H62   N5    S    
C27   C107  A    
C78   C95   A    
C17   S40   S    
C20   S26   S    
O153  Zn11  S    
C124  S3    S    
O65   S29   S    
O169  Zn13  S    
C34   C74   A    
C62   C100  S    
O89   S38   D    
H42   O105  S    
O151  Zn6   S    
O207  S4    D    
C22   C24   A    
O35   Zn1   S    
C26   N5    S    
O32   S18   S    
O216  S7    D    
C6    C11   S    
C102  C120  A    
C3    C124  A    
C71   O161  A    
C61   O135  A    
C80   C98   A    
C85   S48   S    
H55   N2    S    
H64   N6    S    
C4    S27   S    
O179  S23   S    
C18   C87   S    
C123  C126  A    
O132  S51   S    
C10   S16   S    
C70   O145  A    
O82   S35   S    
C21   C30   A    
C10   C81   S    
O218  S7    S    
C27   N6    S    
C90   C93   A    
O112  Zn2   S    
O147  Zn8   S    
C17   S22   S    
C39   C53   T    
C4    C83   S    
C11   S35   S    
H19   O36   S    
O55   S26   S    
C16   C19   S    
O145  Zn6   S    
O25   S16   D    
O144  Zn7   S    
C2    C25   A    
C9    C78   S    
C76   O150  A    
O133  S52   D    
C11   C80   S    
H34   O182  S    
O128  S50   D    
C87   C104  A    
O199  Zn2   S    
C20   S43   S    
O83   S36   D    
O139  Zn16  S    
O161  Zn14  S    
C28   N7    S    
C8    S14   S    
C37   C46   S    
H25   O52   S    
O217  S7    D    
C68   O142  A    
O22   S15   S    
O6    S9    S    
O155  Zn8   S    
O204  S3    D    
C9    S32   S    
C73   O148  A    
C17   C88   S    
O196  S56   D    
O58   S27   D    
C2    S52   S    
O119  S47   S    
H2    O202  S    
O113  Zn15  S    
O177  Zn4   S    
O87   S37   D    
C16   C93   S    
H40   O98   S    
O41   S21   D    
O17   S14   D    
O182  S34   S    
O94   S39   D    
C120  S54   S    
C5    S10   S    
C123  S2    S    
C60   O154  A    
O39   S20   S    
O84   S36   D    
C65   O139  A    
C69   O163  A    
C1    C53   S    
H51   O132  S    
C16   S39   S    
H17   O29   S    
C125  C128  A    
C41   O199  A    
C45   C49   T    
C108  C125  A    
C96   S44   S    
C110  C127  A    
C7    C84   S    
O98   S40   S    
C59   O113  A    
O173  S12   D    
H31   O72   S    
O144  Zn12  S    
C58   O101  A    
C86   C103  A    
O171  S1    D    
O190  S54   D    
C58   O79   A    
O60   S28   D    
C22   C31   A    
O42   S21   S    
H70   N8    S    
H35   O82   S    
C23   C30   A    
H50   O129  S    
C13   C36   A    
C67   O141  A    
O195  S55   S    
O5    S9    D    
O130  S51   D    
C77   O167  A    
O181  S34   D    
C125  S4    S    
O62   S28   S    
O201  S2    D    
C116  S34   S    
C49   C58   S    
O121  S48   D    
C52   O210  A    
H8    O3    S    
O40   S21   D    
O166  Zn3   S    
O9    S10   S    
O149  Zn8   S    
C36   C45   S    
C56   O57   A    
O112  Zn9   S    
C56   O35   A    
C93   C111  A    
O185  S45   S    
O57   Zn10  S    
C81   C84   A    
O10   S11   D    
O142  Zn2   S    
H7    O218  S    
O44   S22   D    
H3    O205  S    
O164  Zn13  S    
O81   S35   D    
H65   N6    S    
O21   S15   D    
C82   C100  A    
O69   S30   S    
C121  S55   S    
C4    S9    S    
O135  Zn2   S    
C46   C50   T    
O118  S47   D    
O154  Zn1   S    
C91   C109  A    
H68   N7    S    
C97   C114  A    
C68   C99   S    
O114  S46   D    
O26   S16   S    
C69   C111  S    
C2    C37   A    
O99   S41   D    
C73   C106  S    
H43   O108  S    
C95   C113  A    
C71   C109  S    
C31   C39   S    
C62   O152  A    
C32   C40   S    
C19   S25   S    
H13   O16   S    
C6    S29   S    
O160  Zn9   S    
C12   C18   S    
O197  S56   D    
C23   N3    S    
C66   O140  A    
O191  S54   D    
C70   O164  A    
O38   S20   D    
H27   O59   S    
C63   O24   A    
C11   S17   S    
