data_mof_unit_25986.cif
_audit_creation_date              2013-03-05T15:58:18-0500
_audit_creation_method            fapswitch 2.2
_symmetry_space_group_name_H-M    P1
_symmetry_Int_Tables_number       1
_space_group_crystal_system       triclinic
_cell_length_a                    12.52869
_cell_length_b                    13.186315
_cell_length_c                    15.673499
_cell_angle_alpha                 85.306179
_cell_angle_beta                  98.972872
_cell_angle_gamma                 95.292833
_cell_volume                      2540.78771541

loop_
_atom_site_label
_atom_site_type_symbol
_atom_site_description
_atom_site_fract_x
_atom_site_fract_y
_atom_site_fract_z
_atom_type_partial_charge
O1    O     O_R   0.374950 0.371210 0.521360 -0.561736
O2    O     O_R   0.542050 0.338030 0.492790 -0.647127
C1    C     C_R   0.448610 0.308225 0.518849 0.903646
O3    O     O_R   0.368720 0.526070 0.390200 -0.576698
O4    O     O_R   0.535820 0.492890 0.361630 -0.596797
C2    C     C_R   0.435419 0.515149 0.336121 0.958205
Zn1   Zn    Zn3+2 0.388420 0.522150 0.519080 1.033959
Zn2   Zn    Zn3+2 0.611580 0.477850 0.480920 0.980912
O5    O     O_R   0.457950 0.661970 0.507210 -0.596450
O6    O     O_R   0.625050 0.628790 0.478640 -0.592929
O7    O     O_R   0.464180 0.507110 0.638370 -0.590764
O8    O     O_R   0.631280 0.473930 0.609800 -0.626820
C3    C     C_R   0.553975 0.692877 0.486280 0.941371
C4    C     C_R   0.564712 0.483599 0.664075 0.908605
C5    C     C_R   0.397152 0.527880 0.242672 -0.209560
C6    C     C_R   0.605624 0.469418 0.757661 -0.283707
C7    C     C_R   0.271158 0.583615 0.116438 0.369379
C8    C     C_R   0.307107 0.582333 0.206448 0.306684
C9    C     C_R   0.459361 0.491026 0.187929 -0.194510
C10   C     C_R   0.438462 0.512729 0.098979 0.037644
C11   C     C_R   0.334127 0.540883 0.062340 -0.106326
C12   C     C_R   0.517737 0.501339 0.045968 -0.007935
C13   C     C_R   0.483253 0.483827 0.957958 0.023563
C14   C     C_R   0.372512 0.491786 0.925330 -0.204290
C15   C     C_R   0.299783 0.524058 0.974285 0.420688
C16   C     C_R   0.630149 0.513135 0.077684 0.286866
C17   C     C_R   0.706514 0.492395 0.026387 0.150709
C18   C     C_R   0.674154 0.487732 0.936004 -0.115034
C19   C     C_R   0.561513 0.470800 0.903443 -0.048754
C20   C     C_R   0.750311 0.498883 0.877017 0.352978
C21   C     C_R   0.716933 0.481613 0.790140 0.243617
C22   C     C_R   0.531568 0.447463 0.815917 0.274664
H1    H     H_    0.527208 0.447155 0.214813 0.199498
H2    H     H_    0.340468 0.479432 0.859806 0.227075
C23   C     C_R   0.736143 0.938919 0.496971 0.058077
C24   C     C_R   0.587704 0.803792 0.481475 -0.237425
C25   C     C_R   0.330143 0.162832 0.582226 0.347851
C26   C     C_R   0.314706 0.058837 0.606937 0.428490
C27   C     C_R   0.386021 0.991930 0.587252 -0.199417
C28   C     C_R   0.481970 0.029536 0.555104 0.039740
C29   C     C_R   0.512481 0.133136 0.559987 -0.059661
C30   C     C_R   0.554204 0.966498 0.528547 -0.060861
C31   C     C_R   0.666769 0.000957 0.532295 -0.076078
C32   C     C_R   0.701725 0.095620 0.571246 0.338239
C33   C     C_R   0.623544 0.160043 0.587484 0.076217
C34   C     C_R   0.515047 0.872227 0.495119 0.290686
C35   C     C_R   0.693109 0.841835 0.468697 0.292743
C36   C     C_R   0.429354 0.200924 0.553409 -0.261134
H3    H     H_    0.370519 0.911605 0.602698 0.201923
C37   C     C_R   0.134795 0.686270 0.567878 0.275531
N1    N     N_R   0.239390 0.551900 0.544730 -0.124946
C38   C     C_R   0.756935 0.376317 0.398827 0.020090
C39   C     C_R   0.848401 0.362364 0.360953 0.115125
C40   C     C_R   0.946237 0.423445 0.387165 0.118289
C41   C     C_R   0.951093 0.484839 0.459060 0.017560
C42   C     C_R   0.853052 0.502280 0.486809 0.167134
C43   C     C_R   0.047035 0.536228 0.500366 -0.054783
C44   C     C_R   0.039568 0.625261 0.543585 -0.010002
C45   C     C_R   0.939849 0.644689 0.568719 0.137845
C46   C     C_R   0.850079 0.577264 0.544030 -0.018461
C47   C     C_R   0.149846 0.499287 0.505116 -0.001297
C48   C     C_R   0.233322 0.642725 0.579418 0.314875
N2    N     N_R   0.759950 0.448600 0.455730 -0.146489
H4    H     H_    0.159269 0.426450 0.481589 0.170549
H5    H     H_    0.679551 0.335677 0.378834 0.160726
H6    H     H_    0.776996 0.583839 0.568867 0.219410
Cl1   Cl    Cl    0.164423 0.526569 0.922645 -0.432167
Cl2   Cl    Cl    0.883334 0.557356 0.902733 -0.452282
Cl3   Cl    Cl    0.763650 0.773240 0.405050 -0.547651
Cl4   Cl    Cl    0.839298 0.134537 0.609206 -0.586788
C49   C     C_3   0.853673 0.972436 0.486287 -0.261588
C50   C     C_3   0.862028 0.060999 0.418444 -0.724784
H7    H     H_    0.821797 0.037087 0.354122 0.267148
H8    H     H_    0.823649 0.127741 0.434723 0.270508
H9    H     H_    0.948797 0.084017 0.414716 0.267487
H10   H     H_    0.904059 0.987478 0.548855 0.269996
H11   H     H_    0.896477 0.911487 0.465350 0.254119
Cl5   Cl    Cl    0.377666 0.850482 0.445999 -0.474289
Cl6   Cl    Cl    0.227067 0.241280 0.594827 -0.450587
Cl7   Cl    Cl    0.209370 0.012373 0.665610 -0.415124
C51   C     C_3   0.655221 0.239615 0.653847 -0.279740
C52   C     C_3   0.676774 0.189948 0.746016 -0.702494
H12   H     H_    0.602603 0.143944 0.761920 0.253754
H13   H     H_    0.744421 0.139693 0.754182 0.295914
H14   H     H_    0.698104 0.250196 0.792711 0.263802
H15   H     H_    0.726393 0.289946 0.638078 0.284871
H16   H     H_    0.588974 0.288497 0.654928 0.206453
C53   C     C_3   0.320971 0.682922 0.648797 -0.392831
C54   C     C_3   0.309177 0.624002 0.734279 -0.812526
H17   H     H_    0.306740 0.541171 0.725680 0.303578
H18   H     H_    0.379006 0.646593 0.783774 0.251228
H19   H     H_    0.232930 0.640385 0.756517 0.298985
H20   H     H_    0.403427 0.678108 0.635399 0.246262
H21   H     H_    0.313859 0.763878 0.658312 0.238866
Cl8   Cl    Cl    0.423206 0.354897 0.784997 -0.557806
C55   C     C_3   0.932858 0.730257 0.627879 -0.284373
C56   C     C_3   0.830243 0.730330 0.669613 -0.823563
H22   H     H_    0.756620 0.732699 0.620550 0.223749
H23   H     H_    0.822574 0.663500 0.715946 0.314137
H24   H     H_    0.835818 0.799572 0.706436 0.275694
H25   H     H_    0.002257 0.728802 0.681537 0.261070
H26   H     H_    0.939242 0.804015 0.589660 0.245718
Cl9   Cl    Cl    0.136422 0.820065 0.555813 -0.568781
C57   C     C_3   0.024674 0.450367 0.321486 -0.489847
C58   C     C_3   0.993832 0.547948 0.267466 -0.632102
H27   H     H_    0.904903 0.547740 0.248905 0.270244
H28   H     H_    0.021408 0.615393 0.305606 0.303563
H29   H     H_    0.032141 0.555216 0.207849 0.282400
H30   H     H_    0.110410 0.462521 0.349480 0.233144
H31   H     H_    0.025762 0.388353 0.278315 0.203958
C59   C     C_3   0.841337 0.287587 0.290390 -0.440660
C60   C     C_3   0.729614 0.232970 0.261874 -0.862400
H32   H     H_    0.698603 0.187308 0.316766 0.259911
H33   H     H_    0.671103 0.289381 0.233272 0.262380
H34   H     H_    0.736007 0.180187 0.211537 0.274929
H35   H     H_    0.865307 0.328003 0.231405 0.227223
H36   H     H_    0.900619 0.229980 0.312010 0.226249
Cl10  Cl    Cl    0.818449 0.460460 0.728169 -0.560306
C61   C     C_3   0.816803 0.462977 0.072519 -0.329200
C62   C     C_3   0.844108 0.358536 0.049642 -0.778355
H37   H     H_    0.779852 0.298953 0.064796 0.248810
H38   H     H_    0.852456 0.357623 0.980442 0.302850
H39   H     H_    0.922405 0.339013 0.088430 0.255197
H40   H     H_    0.882476 0.523114 0.063886 0.287901
H41   H     H_    0.815935 0.455447 0.142793 0.210861
Cl11  Cl    Cl    0.158348 0.653315 0.073988 -0.418490
Cl12  Cl    Cl    0.245689 0.657066 0.270957 -0.481371
Cl13  Cl    Cl    0.680275 0.581457 0.171109 -0.584032

loop_
_geom_bond_atom_site_label_1
_geom_bond_atom_site_label_2
_geom_bond_distance
_ccdc_geom_bond_type
C5    C8    1.411940 A    
C57   H31   1.105535 S    
C41   C42   1.409241 A    
C55   H26   1.102914 S    
C59   C60   1.532735 S    
N1    C47   1.354637 A    
C23   C35   1.420180 A    
C60   H33   1.111397 S    
C56   H22   1.106016 S    
C57   H30   1.097619 S    
C61   H40   1.104947 S    
C62   H37   1.110950 S    
C6    C21   1.407257 A    
C5    C9    1.387989 A    
C58   H28   1.110665 S    
C16   C17   1.400292 A    
C13   C19   1.427370 A    
C40   C57   1.530634 S    
C18   C19   1.427502 A    
C19   C22   1.415850 A    
C50   H9    1.110571 S    
C20   C21   1.391545 A    
O7    C4    1.318395 A    
C7    Cl11  1.769531 S    
C1    C36   1.485237 S    
C24   C35   1.406956 A    
C30   C34   1.405113 A    
O5    C3    1.316002 A    
C57   C58   1.527488 S    
C2    C5    1.469314 S    
C53   H20   1.094215 S    
C35   Cl3   1.778935 S    
C9    C10   1.388818 A    
C15   Cl1   1.763529 S    
C13   C14   1.412198 A    
C32   Cl4   1.776249 S    
C59   H35   1.097883 S    
C54   H18   1.110832 S    
C23   C31   1.444504 A    
C51   H15   1.108786 S    
C62   H39   1.110452 S    
C39   C59   1.528101 S    
C28   C30   1.412856 A    
C23   C49   1.528516 S    
C45   C46   1.393289 A    
C55   H25   1.111754 S    
N1    C48   1.368210 A    
O3    Zn1   1.993423 S    
C60   H32   1.109066 S    
C56   H23   1.102082 S    
C62   H38   1.106902 S    
C51   C52   1.531279 S    
C26   C27   1.395648 A    
C58   H29   1.108780 S    
C53   H21   1.103412 S    
C37   C44   1.395326 A    
C14   C15   1.393970 A    
C3    C24   1.483647 S    
C50   H8    1.106312 S    
C9    H1    1.083456 S    
C27   C28   1.408173 A    
C34   Cl5   1.780229 S    
C44   C45   1.418023 A    
C39   C40   1.426499 A    
C48   C53   1.511214 S    
O6    C3    1.307700 A    
C14   H2    1.062611 S    
C42   C46   1.394898 A    
O1    C1    1.304274 A    
C47   H4    1.079282 S    
Zn1   O7    1.963792 S    
C31   C32   1.436358 A    
C21   Cl10  1.770316 S    
C25   C26   1.398362 A    
C8    Cl12  1.769497 S    
C25   Cl6   1.770954 S    
Zn2   O8    1.993423 S    
C55   C56   1.530807 S    
C7    C8    1.411640 A    
C42   N2    1.351217 A    
C16   Cl13  1.781831 S    
C10   C11   1.413087 A    
C54   H19   1.111285 S    
C24   C34   1.390171 A    
C51   H16   1.099785 S    
C61   H41   1.099449 S    
O3    C2    1.304064 A    
C28   C29   1.389195 A    
C27   H3    1.073757 S    
C10   C12   1.415884 A    
C52   H13   1.108933 S    
C41   C43   1.414903 A    
C12   C16   1.417270 A    
C37   C48   1.389354 A    
C4    C6    1.479041 S    
C30   C31   1.434973 A    
C49   H10   1.102351 S    
C49   H11   1.103976 S    
C56   H24   1.110646 S    
C38   C39   1.403001 A    
Zn1   O5    1.972519 S    
C11   C15   1.409395 A    
C40   C41   1.430978 A    
O1    Zn1   1.979770 S    
O2    Zn2   1.972520 S    
C32   C33   1.418629 A    
O8    C4    1.301595 A    
C50   H7    1.110879 S    
C38   N2    1.351781 A    
O4    Zn2   1.963792 S    
C61   C62   1.532402 S    
C43   C47   1.407802 A    
C17   C61   1.524440 S    
C6    C22   1.396359 A    
C52   H14   1.110479 S    
C58   H27   1.106555 S    
C59   H36   1.107677 S    
C18   C20   1.419101 A    
O2    C1    1.315204 A    
Zn1   N1    2.048626 S    
C49   C50   1.521296 S    
C25   C36   1.422712 A    
C43   C44   1.419899 A    
O4    C2    1.311617 A    
C26   Cl7   1.760666 S    
C29   C36   1.420376 A    
C33   C51   1.520971 S    
C7    C11   1.423975 A    
Zn2   N2    2.036226 S    
C46   H6    1.062434 S    
C37   Cl9   1.757485 S    
C22   Cl8   1.775882 S    
C53   C54   1.513531 S    
Zn2   O6    1.979769 S    
C52   H12   1.112280 S    
C45   C55   1.534715 S    
C17   C18   1.416136 A    
C29   C33   1.412337 A    
C12   C13   1.410884 A    
C54   H17   1.108478 S    
C60   H34   1.110477 S    
C20   Cl2   1.771656 S    
C38   H5    1.078059 S    
