data_mof_unit_53646.cif
_audit_creation_date              2012-12-10T20:41:50-0500
_audit_creation_method            fapswitch 2.2
_symmetry_space_group_name_H-M    P1
_symmetry_Int_Tables_number       1
_space_group_crystal_system       triclinic
_cell_length_a                    15.1366
_cell_length_b                    15.185918
_cell_length_c                    9.894933
_cell_angle_alpha                 91.065133
_cell_angle_beta                  90.761592
_cell_angle_gamma                 89.977684
_cell_volume                      2273.88670339

loop_
_atom_site_label
_atom_site_type_symbol
_atom_type_description
_atom_site_fract_x
_atom_site_fract_y
_atom_site_fract_z
_atom_type_partial_charge
C1    C     C_R   0.381162 0.878990 0.497993 0.899772
C2    C     C_R   0.382513 0.122409 0.500172 0.943290
C3    C     C_R   0.882656 0.377324 0.498473 0.933736
C4    C     C_R   0.884537 0.624717 0.499912 0.892876
C5    C     C_3   0.206565 0.127755 0.660601 -0.576430
C6    C     C_3   0.312662 0.772575 0.753839 -0.552567
C7    C     C_3   0.773751 0.702545 0.747546 -0.565442
C8    C     C_3   0.745711 0.335287 0.722974 -0.553612
C9    C     C_R   0.425999 0.976376 0.069065 0.224748
C10   C     C_R   0.926829 0.473857 0.069520 0.222545
C11   C     C_R   0.575479 0.012971 0.075418 -0.118347
C12   C     C_R   0.075803 0.510611 0.075639 -0.112039
C13   C     C_R   0.576644 0.011857 0.931486 0.025020
C14   C     C_R   0.077311 0.507106 0.931664 0.046899
C15   C     C_R   0.425743 0.977511 0.926814 0.200575
C16   C     C_R   0.926076 0.476172 0.927367 0.178031
C17   C     C_3   0.339775 0.024606 0.923460 -0.544284
C18   C     C_3   0.838904 0.521347 0.928648 -0.537729
C19   C     C_3   0.338817 0.020714 0.076345 -0.472696
C20   C     C_3   0.837175 0.511952 0.080373 -0.471973
C21   C     C_R   0.621187 0.118624 0.500840 0.946874
C22   C     C_R   0.621342 0.881511 0.499609 0.904469
C23   C     C_R   0.120843 0.618981 0.500849 0.890425
C24   C     C_R   0.119027 0.379494 0.499798 0.922870
C25   C     C_R   0.263007 0.199470 0.608061 -0.002885
C26   C     C_R   0.312232 0.754771 0.605131 -0.030714
C27   C     C_R   0.804476 0.742809 0.619918 -0.017293
C28   C     C_R   0.787957 0.278432 0.618204 -0.022151
C29   C     C_R   0.322391 0.194789 0.502160 -0.155273
C30   C     C_R   0.323469 0.805260 0.491235 -0.192615
C31   C     C_R   0.833049 0.704818 0.498545 -0.203337
C32   C     C_R   0.825957 0.301976 0.496609 -0.151495
C33   C     C_R   0.322380 0.259291 0.400601 0.498906
C34   C     C_R   0.281805 0.778405 0.368485 0.476726
C35   C     C_R   0.809184 0.746043 0.375770 0.477257
C36   C     C_R   0.810929 0.250420 0.377805 0.458261
C37   C     C_R   0.737578 0.803677 0.376753 -0.331563
C38   C     C_R   0.743747 0.186534 0.382402 -0.380718
C39   C     C_R   0.256835 0.324855 0.407431 -0.373760
C40   C     C_R   0.213449 0.717731 0.374692 -0.335056
C41   C     C_R   0.697860 0.827358 0.498648 -0.154375
C42   C     C_R   0.695281 0.175946 0.501265 -0.098413
C43   C     C_R   0.188762 0.317715 0.500514 -0.097301
C44   C     C_R   0.193317 0.678030 0.497864 -0.155324
C45   C     C_R   0.736611 0.802505 0.619281 0.007790
C46   C     C_R   0.722204 0.217458 0.620450 0.043505
C47   C     C_R   0.194159 0.257287 0.603159 0.054113
C48   C     C_R   0.250464 0.690069 0.607572 -0.010622
C49   C     C_3   0.696671 0.766893 0.744498 0.371480
C50   C     C_3   0.670723 0.268184 0.724425 0.367928
C51   C     C_3   0.128714 0.190780 0.650623 0.332224
C52   C     C_3   0.244753 0.697710 0.758779 0.341555
H1    H     H_    0.343883 0.085862 0.127813 0.233762
H2    H     H_    0.286611 0.976773 0.115029 0.232218
H3    H     H_    0.835941 0.575747 0.135887 0.271339
H4    H     H_    0.788306 0.462645 0.114214 0.206467
H5    H     H_    0.708601 0.823871 0.282041 0.182253
H6    H     H_    0.725867 0.147745 0.293611 0.166548
H7    H     H_    0.255646 0.379749 0.339661 0.155456
H8    H     H_    0.173897 0.705520 0.284169 0.184782
H9    H     H_    0.699724 0.816219 0.828809 0.099347
H10   H     H_    0.665024 0.230803 0.819562 0.100055
H11   H     H_    0.099197 0.210592 0.749033 0.072169
H12   H     H_    0.274716 0.639409 0.806784 0.141831
H13   H     H_    0.222264 0.112810 0.766992 0.181298
H14   H     H_    0.377222 0.755522 0.800844 0.185197
H15   H     H_    0.820712 0.719096 0.830978 0.186210
H16   H     H_    0.785017 0.336210 0.818571 0.180617
H17   H     H_    0.204646 0.069599 0.590804 0.196032
H18   H     H_    0.289504 0.839768 0.779319 0.207182
H19   H     H_    0.757194 0.631865 0.734599 0.195633
H20   H     H_    0.729610 0.400991 0.682209 0.193276
H21   H     H_    0.635616 0.023927 0.133728 0.179607
H22   H     H_    0.135983 0.520334 0.134328 0.187326
H23   H     H_    0.347515 0.092439 0.885953 0.227873
H24   H     H_    0.287027 0.984782 0.873467 0.203966
H25   H     H_    0.847856 0.590257 0.901737 0.226004
H26   H     H_    0.785191 0.485244 0.874848 0.199863
N1    N     N_R   0.499140 0.000000 0.142800 -0.135228
N2    N     N_R   0.999140 0.500000 0.142800 -0.129668
N3    N     N_R   0.499160 0.000000 0.857150 -0.150749
N4    N     N_R   0.999160 0.500000 0.857150 -0.153064
O1    O     O_R   0.408400 0.908380 0.614690 -0.612153
O2    O     O_R   0.408400 0.091620 0.614690 -0.617188
O3    O     O_R   0.908400 0.408380 0.614690 -0.620282
O4    O     O_R   0.908400 0.591620 0.614690 -0.616448
O5    O     O_R   0.408370 0.908370 0.385350 -0.583983
O6    O     O_R   0.408370 0.091630 0.385350 -0.580040
O7    O     O_R   0.908370 0.408370 0.385350 -0.564593
O8    O     O_R   0.908370 0.591630 0.385350 -0.579177
O9    O     O_R   0.591610 0.091610 0.614650 -0.647188
O10   O     O_R   0.591610 0.908390 0.614650 -0.629224
O11   O     O_R   0.091610 0.591610 0.614650 -0.622040
O12   O     O_R   0.091610 0.408390 0.614650 -0.671347
O13   O     O_R   0.591590 0.091600 0.385310 -0.625147
O14   O     O_R   0.591590 0.908400 0.385310 -0.651603
O15   O     O_R   0.091590 0.591600 0.385310 -0.639122
O16   O     O_R   0.091590 0.408400 0.385310 -0.617460
Zn1   Zn    Zn3+2 0.500010 0.000000 0.653130 0.947410
Zn2   Zn    Zn3+2 0.000010 0.500000 0.653130 0.938367
Zn3   Zn    Zn3+2 0.499980 0.000000 0.346870 0.958837
Zn4   Zn    Zn3+2 0.999980 0.500000 0.346870 0.973047
O17   O     O_3   0.386341 0.253313 0.300064 -0.635923
C53   C     C_3   0.371907 0.306060 0.185042 0.103247
H27   H     H_    0.430537 0.295743 0.120773 0.185957
H28   H     H_    0.372694 0.377461 0.211766 0.126134
C54   C     C_3   0.288217 0.279669 0.102300 -0.378174
H29   H     H_    0.269099 0.210888 0.122651 0.230142
H30   H     H_    0.231697 0.322109 0.131624 0.221379
C55   C     C_3   0.301091 0.289265 0.950604 -0.904257
H31   H     H_    0.318644 0.358031 0.927113 0.300241
H32   H     H_    0.238765 0.271914 0.896194 0.254490
H33   H     H_    0.354364 0.244964 0.914434 0.253995
O18   O     O_3   0.298343 0.820141 0.247819 -0.644696
C56   C     C_3   0.335813 0.760127 0.153110 0.076516
H34   H     H_    0.330287 0.790204 0.051955 0.161789
H35   H     H_    0.299140 0.696608 0.145500 0.153789
C57   C     C_3   0.434156 0.743780 0.184302 -0.353401
H36   H     H_    0.470774 0.807100 0.183956 0.247597
H37   H     H_    0.441719 0.714949 0.286005 0.218239
C58   C     C_3   0.475045 0.680796 0.080805 -0.954265
H38   H     H_    0.438344 0.617465 0.077051 0.280161
H39   H     H_    0.544829 0.667420 0.109827 0.272382
H40   H     H_    0.473941 0.710361 0.979101 0.275572
O19   O     O_3   0.844158 0.719008 0.253320 -0.649843
C59   C     C_3   0.891904 0.788300 0.193886 0.093542
H41   H     H_    0.948019 0.757250 0.139532 0.176622
H42   H     H_    0.922123 0.835169 0.269535 0.110328
C60   C     C_3   0.833725 0.838258 0.092111 -0.376721
H43   H     H_    0.784721 0.792549 0.044438 0.232020
H44   H     H_    0.797746 0.892149 0.144993 0.217818
C61   C     C_3   0.887937 0.880212 0.982044 -0.962134
H45   H     H_    0.935941 0.927525 0.028241 0.278957
H46   H     H_    0.843659 0.916161 0.911823 0.287800
H47   H     H_    0.923341 0.828790 0.922889 0.260788
O20   O     O_3   0.860045 0.268687 0.262676 -0.628797
C62   C     C_3   0.849030 0.208060 0.153776 0.104200
H48   H     H_    0.781075 0.213612 0.110274 0.160191
H49   H     H_    0.862653 0.139568 0.186700 0.145304
C63   C     C_3   0.914716 0.231004 0.043974 -0.339078
H50   H     H_    0.903324 0.299796 0.012800 0.216390
H51   H     H_    0.983272 0.225688 0.084753 0.227562
C64   C     C_3   0.904581 0.171097 0.919520 -0.918568
H52   H     H_    0.918622 0.101573 0.945430 0.280653
H53   H     H_    0.951603 0.192376 0.841725 0.247922
H54   H     H_    0.836858 0.176421 0.876346 0.294642
O21   O     O_3   0.609256 0.732186 0.727676 -0.619935
C65   C     C_3   0.601369 0.656954 0.641072 0.102275
H55   H     H_    0.613726 0.596680 0.700453 0.128907
H56   H     H_    0.647285 0.658248 0.554497 0.149041
C66   C     C_3   0.507306 0.652509 0.584274 -0.327816
H57   H     H_    0.460668 0.643450 0.668613 0.224910
H58   H     H_    0.491825 0.715436 0.533735 0.220626
C67   C     C_3   0.495472 0.576803 0.482049 -0.994655
H59   H     H_    0.539792 0.585652 0.394734 0.272953
H60   H     H_    0.426020 0.575556 0.444369 0.269887
H61   H     H_    0.510348 0.512908 0.529928 0.264170
O22   O     O_3   0.588451 0.296874 0.670441 -0.621085
C68   C     C_3   0.554397 0.372551 0.738471 0.122361
H62   H     H_    0.486472 0.383173 0.698004 0.168876
H63   H     H_    0.591937 0.432397 0.712476 0.121678
C69   C     C_3   0.548177 0.364369 0.892810 -0.415929
H64   H     H_    0.507600 0.305944 0.916281 0.225237
H65   H     H_    0.614838 0.356246 0.939128 0.214777
C70   C     C_3   0.507344 0.447255 0.955580 -0.953447
H66   H     H_    0.549082 0.505522 0.934825 0.272472
H67   H     H_    0.503115 0.440276 0.066749 0.263291
H68   H     H_    0.440009 0.458515 0.913620 0.280379
O23   O     O_3   0.066226 0.166238 0.548742 -0.615825
C71   C     C_3   0.022779 0.087511 0.585116 0.077285
H69   H     H_    0.011201 0.084427 0.695771 0.141397
H70   H     H_    0.062962 0.029701 0.553181 0.152866
C72   C     C_3   0.933305 0.081064 0.513393 -0.311869
H71   H     H_    0.891196 0.134929 0.552368 0.228421
H72   H     H_    0.941692 0.088475 0.402791 0.231555
C73   C     C_3   0.887538 0.993554 0.539993 -0.989084
H73   H     H_    0.927971 0.937611 0.501653 0.259411
H74   H     H_    0.822334 0.991938 0.487185 0.263745
H75   H     H_    0.876730 0.985918 0.650017 0.271935
O24   O     O_3   0.159209 0.715357 0.811582 -0.619937
C74   C     C_3   0.121020 0.796590 0.774439 0.139425
H76   H     H_    0.051294 0.783679 0.743603 0.151853
H77   H     H_    0.152066 0.827639 0.685932 0.131093
C75   C     C_3   0.121173 0.859187 0.897604 -0.344874
H78   H     H_    0.077739 0.832331 0.976425 0.226416
H79   H     H_    0.188470 0.864432 0.942742 0.224281
C76   C     C_3   0.089526 0.950628 0.859069 -1.046690
H80   H     H_    0.134510 0.978569 0.783669 0.260789
H81   H     H_    0.089019 0.994664 0.949896 0.280535
H82   H     H_    0.021924 0.947097 0.814590 0.277193
C77   C     C_2   0.663047 0.022123 0.865723 0.336422
H83   H     H_    0.673237 0.001507 0.762718 0.137396
O25   O     O_2   0.726276 0.052227 0.928870 -0.660763
C78   C     C_2   0.164873 0.505774 0.867190 0.396830
H84   H     H_    0.172084 0.502378 0.759735 0.135933
O26   O     O_2   0.232506 0.506564 0.935970 -0.667353

loop_
_geom_bond_atom_site_label_1
_geom_bond_atom_site_label_2
_ccdc_geom_bond_type
C1    O5    A    
C64   H54   S    
C78   O26   D    
C59   H41   S    
C40   H8    S    
C12   H22   S    
O7    Zn4   S    
C3    O3    A    
O23   C71   S    
C2    O2    A    
O21   C65   S    
C65   C66   S    
C20   H4    S    
C57   H37   S    
C53   H28   S    
O18   C56   S    
C15   N3    A    
C72   H71   S    
C50   O22   S    
C62   H49   S    
C28   C46   A    
C70   H66   S    
C6    H14   S    
C2    C29   S    
C34   C40   A    
C32   C36   A    
C35   C37   A    
C65   H56   S    
C38   C42   A    
C48   C52   S    
C18   H25   S    
C7    H19   S    
C72   C73   S    
C22   C41   S    
C4    O4    A    
C71   H69   S    
C38   H6    S    
C64   H52   S    
C13   N3    A    
C7    C27   S    
C75   H78   S    
C49   O21   S    
C18   C20   S    
C6    H18   S    
C9    N1    A    
C66   C67   S    
C35   O19   S    
C57   H36   S    
O8    Zn4   S    
C58   H40   S    
C5    H17   S    
C55   H31   S    
N1    Zn3   S    
C9    C19   S    
C73   H75   S    
C29   C33   A    
C10   C20   S    
C61   H45   S    
C56   H35   S    
C17   H24   S    
C66   H57   S    
C68   H63   S    
C2    O6    A    
O12   Zn2   S    
O4    Zn2   S    
C25   C47   A    
C67   H60   S    
O15   Zn4   S    
C26   C48   A    
C60   C61   S    
C27   C45   A    
C73   H74   S    
C78   H84   S    
C14   C78   S    
C70   H67   S    
O1    Zn1   S    
O14   Zn3   S    
C37   C41   A    
C54   H30   S    
C42   C46   A    
C20   H3    S    
C36   O20   S    
C53   H27   S    
O6    Zn3   S    
C69   H65   S    
C72   H72   S    
C25   C29   A    
C62   C63   S    
C8    H20   S    
C49   H9    S    
C30   C34   A    
C27   C31   A    
C77   H83   S    
C76   H82   S    
C28   C32   A    
C51   H11   S    
C65   H55   S    
C7    C49   S    
C67   H61   S    
C5    H13   S    
C11   H21   S    
C74   H77   S    
C10   N2    A    
C39   C43   A    
N3    Zn1   S    
C59   C60   S    
O16   Zn4   S    
C23   C44   S    
C23   O11   A    
N2    Zn4   S    
C57   C58   S    
O22   C68   S    
C74   H76   S    
C77   O25   D    
C24   O12   A    
C69   C70   S    
C68   H62   S    
O11   Zn2   S    
C45   C49   S    
C54   H29   S    
C56   C57   S    
C39   H7    S    
C16   N4    A    
C58   H38   S    
C68   C69   S    
C33   C39   A    
C63   H50   S    
C63   C64   S    
C44   C48   A    
C55   H33   S    
C67   H59   S    
C11   N1    A    
C5    C25   S    
C19   H2    S    
C16   C18   S    
C18   H26   S    
C23   O15   A    
C12   C14   A    
C8    H16   S    
C70   H68   S    
C22   O14   A    
C52   H12   S    
O19   C59   S    
C50   H10   S    
C54   C55   S    
C24   O16   A    
C34   O18   S    
C14   N4    A    
O5    Zn3   S    
C8    C50   S    
C58   H39   S    
O24   C74   S    
C69   H64   S    
C21   O9    A    
C74   C75   S    
C64   H53   S    
C73   H73   S    
C59   H42   S    
C33   O17   S    
O2    Zn1   S    
N4    Zn2   S    
C22   O10   A    
C63   H51   S    
O20   C62   S    
C47   C51   S    
C4    O8    A    
C26   C30   A    
C1    O1    A    
C21   O13   A    
C62   H48   S    
C46   C50   S    
C13   C77   S    
C75   C76   S    
C3    O7    A    
C6    C52   S    
C36   C38   A    
C52   O24   S    
C60   H43   S    
C76   H80   S    
O3    Zn2   S    
C10   C16   A    
C11   C13   A    
C19   H1    S    
C6    C26   S    
C71   H70   S    
C61   H47   S    
C8    C28   S    
C12   N2    A    
C1    C30   S    
C17   C19   S    
C75   H79   S    
C31   C35   A    
C66   H58   S    
C9    C15   A    
C3    C32   S    
C55   H32   S    
C76   H81   S    
C4    C31   S    
C7    H15   S    
C21   C42   S    
O13   Zn3   S    
C40   C44   A    
O10   Zn1   S    
C61   H46   S    
O17   C53   S    
C17   H23   S    
C24   C43   S    
C41   C45   A    
C5    C51   S    
O9    Zn1   S    
C15   C17   S    
C43   C47   A    
C53   C54   S    
C37   H5    S    
C56   H34   S    
C51   O23   S    
C60   H44   S    
C71   C72   S    
