data_mof_unit_21479.cif
_audit_creation_date              2012-12-10T19:36:17-0500
_audit_creation_method            fapswitch 2.2
_symmetry_space_group_name_H-M    P1
_symmetry_Int_Tables_number       1
_space_group_crystal_system       triclinic
_cell_length_a                    16.330453
_cell_length_b                    16.66087
_cell_length_c                    23.152565
_cell_angle_alpha                 90.087279
_cell_angle_beta                  92.436827
_cell_angle_gamma                 87.066638
_cell_volume                      6285.39540453

loop_
_atom_site_label
_atom_site_type_symbol
_atom_type_description
_atom_site_fract_x
_atom_site_fract_y
_atom_site_fract_z
_atom_type_partial_charge
C1    C     C_R   0.488007 0.653223 0.495682 0.972114
C2    C     C_R   0.442123 0.490080 0.283242 0.258045
C3    C     C_R   0.458603 0.507715 0.771727 0.268085
C4    C     C_R   0.455460 0.504829 0.223975 0.321476
C5    C     C_R   0.530929 0.464122 0.792465 -0.017033
C6    C     C_R   0.536725 0.511601 0.206131 -0.001546
C7    C     C_R   0.480900 0.741883 0.492376 -0.331802
C8    C     C_R   0.523284 0.260689 0.515985 -0.356279
C9    C     C_R   0.551444 0.784568 0.481644 0.340492
C10   C     C_R   0.477553 0.226540 0.559811 0.335884
C11   C     C_R   0.554987 0.863339 0.500133 -0.279178
C12   C     C_R   0.512021 0.346983 0.502974 1.004835
C13   C     C_R   0.501763 0.150987 0.580912 -0.253845
C14   C     C_R   0.489973 0.900915 0.528723 -0.066478
C15   C     C_R   0.567073 0.106338 0.558128 -0.052081
C16   C     C_R   0.500042 0.500179 0.610954 0.975381
C17   C     C_R   0.500734 0.499660 0.388508 1.038605
C18   C     C_R   0.415834 0.862316 0.533758 0.340984
C19   C     C_R   0.617173 0.140696 0.517935 0.360101
C20   C     C_R   0.408537 0.785409 0.508831 0.289344
C21   C     C_R   0.590916 0.215767 0.492759 0.203994
C22   C     C_2   0.494610 0.986111 0.542634 -0.073181
C23   C     C_R   0.586701 0.429922 0.753715 0.450462
C24   C     C_2   0.563983 0.018717 0.561857 -0.071676
C25   C     C_R   0.759866 0.476466 0.464345 0.111058
C26   C     C_R   0.239902 0.533814 0.530812 0.107130
C27   C     C_R   0.845018 0.473625 0.468278 -0.227593
C28   C     C_R   0.154704 0.536984 0.526709 -0.223441
C29   C     C_R   0.885764 0.507448 0.516497 0.022183
C30   C     C_R   0.114385 0.493231 0.483174 -0.004989
C31   C     C_R   0.838735 0.543954 0.560221 0.376503
C32   C     C_R   0.161284 0.444956 0.445377 0.264571
C33   C     C_R   0.753137 0.543952 0.554404 -0.010837
C34   C     C_R   0.601768 0.517034 0.247207 0.417764
C35   C     C_R   0.246804 0.443739 0.451908 0.050591
C36   C     C_2   0.976467 0.501314 0.522250 -0.089073
C37   C     C_2   0.024132 0.500301 0.476434 -0.092856
C38   C     C_R   0.552768 0.425714 0.123812 0.669657
C39   C     C_R   0.580297 0.534566 0.876208 0.687799
C40   C     C_R   0.576150 0.565373 0.115062 0.720786
C41   C     C_R   0.548762 0.396912 0.884954 0.686452
C42   C     C_R   0.597930 0.555135 0.057196 -0.131180
C43   C     C_R   0.570668 0.397196 0.944415 -0.112272
C44   C     C_R   0.585992 0.479422 0.031119 -0.030027
C45   C     C_R   0.569839 0.438698 0.695089 -0.284456
C46   C     C_R   0.586292 0.472040 0.970621 -0.020112
C47   C     C_R   0.569215 0.412136 0.065186 -0.103009
C48   C     C_R   0.597536 0.540510 0.936245 -0.101469
C49   C     C_R   0.628538 0.617889 0.024099 0.260997
C50   C     C_R   0.574189 0.326616 0.978855 0.257169
C51   C     C_R   0.623886 0.612196 0.963119 -0.166609
C52   C     C_R   0.568798 0.334504 0.039395 -0.165690
C53   C     C_2   0.646931 0.681337 0.928218 1.113163
C54   C     C_2   0.563771 0.261282 0.075040 1.113924
C55   C     C_R   0.584940 0.518940 0.305065 -0.240193
C56   C     C_R   0.504275 0.488849 0.673676 -0.241480
C57   C     C_R   0.506981 0.503016 0.324621 -0.261890
C58   C     C_R   0.449198 0.526923 0.711899 0.261927
H1    H     H_    0.465346 0.122705 0.612370 0.233072
H2    H     H_    0.878209 0.442934 0.434583 0.218907
H3    H     H_    0.611140 0.408838 0.665483 0.217419
H4    H     H_    0.635843 0.529033 0.335230 0.239412
H5    H     H_    0.618784 0.981106 0.571827 0.225836
H6    H     H_    0.440491 0.024603 0.531433 0.194864
H7    H     H_    0.579562 0.782831 0.041343 0.380810
H8    H     H_    0.470529 0.198147 0.954987 0.377186
H9    H     H_    0.330042 0.996906 0.642898 0.400007
H10   H     H_    0.795511 0.001708 0.543877 0.411998
H11   H     H_    0.986954 0.665191 0.637314 0.412993
H12   H     H_    0.608625 0.896117 0.491247 0.236857
H13   H     H_    0.062434 0.306861 0.451261 0.372408
H14   H     H_    0.725206 0.724683 0.872367 0.384975
H15   H     H_    0.617229 0.188620 0.136836 0.385356
H16   H     H_    0.760477 0.369974 0.852522 0.415234
H17   H     H_    0.779255 0.493513 0.155388 0.416088
H18   H     H_    0.457364 0.675933 0.638708 0.342722
H19   H     H_    0.397309 0.322118 0.326893 0.378494
H20   H     H_    0.363019 0.422337 0.860376 0.388117
H21   H     H_    0.354026 0.577578 0.088648 0.405924
H22   H     H_    0.628877 0.842781 0.377950 0.379350
H23   H     H_    0.728298 0.449999 0.427601 0.194145
H24   H     H_    0.316083 0.169746 0.607979 0.370371
H25   H     H_    0.523552 0.276297 0.376564 0.359306
H26   H     H_    0.264689 0.665072 0.425312 0.390290
H27   H     H_    0.271576 0.567595 0.563702 0.235784
H28   H     H_    0.284296 0.406605 0.424494 0.235200
H29   H     H_    0.715389 0.570169 0.587484 0.181926
H30   H     H_    0.996893 0.504043 0.432930 0.215150
H31   H     H_    0.005187 0.497222 0.565338 0.210687
H32   H     H_    0.120828 0.575140 0.556244 0.217882
N1    N     N_R   0.554624 0.501232 0.146476 -0.318131
N2    N     N_R   0.553490 0.464899 0.852900 -0.316017
N3    N     N_R   0.716290 0.510230 0.507380 -0.134996
N4    N     N_R   0.283710 0.489770 0.492620 -0.148527
O1    O     O_R   0.422340 0.612130 0.497340 -0.555530
O2    O     O_2   0.586996 0.598104 0.840982 -0.501231
O3    O     O_2   0.571647 0.638949 0.139300 -0.404766
O4    O     O_2   0.517900 0.331481 0.859623 -0.440867
O5    O     O_2   0.727692 0.666502 0.112156 -0.148187
O6    O     O_2   0.743957 0.731311 0.019934 -0.221140
O7    O     O_3   0.614842 0.772265 0.076619 -0.400871
O8    O     O_2   0.651282 0.238431 0.897671 -0.150031
O9    O     O_2   0.640037 0.172661 0.990228 -0.219960
O10   O     O_3   0.508944 0.189869 0.923323 -0.405224
O11   O     O_2   0.284278 0.965567 0.534912 -0.246924
O12   O     O_R   0.577660 0.387870 0.502660 -0.583364
O13   O     O_2   0.282175 0.848008 0.598425 -0.139437
O14   O     O_3   0.376151 0.961940 0.629238 -0.535726
O15   O     O_2   0.693054 0.028907 0.452815 -0.247102
O16   O     O_2   0.773320 0.144168 0.481285 -0.151408
O17   O     O_3   0.751082 0.037751 0.558725 -0.534049
O18   O     O_2   0.821109 0.639852 0.653197 -0.230629
O19   O     O_2   0.921673 0.525633 0.661511 -0.239830
O20   O     O_3   0.958081 0.649192 0.600939 -0.519632
O21   O     O_2   0.082107 0.439755 0.342466 -0.166901
O22   O     O_2   0.177427 0.325659 0.367062 -0.192737
O23   O     O_R   0.561240 0.618700 0.502080 -0.576410
O24   O     O_3   0.037855 0.336567 0.417220 -0.492106
O25   O     O_2   0.606345 0.744989 0.929659 -0.553138
O26   O     O_R   0.715512 0.673492 0.894106 -0.686815
O27   O     O_2   0.504379 0.219793 0.068998 -0.559125
O28   O     O_R   0.627474 0.239730 0.115172 -0.684081
O29   O     O_2   0.662779 0.289399 0.781477 -0.182895
O30   O     O_2   0.742489 0.385874 0.731376 -0.229933
O31   O     O_3   0.717297 0.410801 0.839776 -0.536545
O32   O     O_2   0.725777 0.608476 0.225683 -0.172194
O33   O     O_2   0.760289 0.481478 0.275690 -0.231145
O34   O     O_R   0.438760 0.381300 0.497920 -0.556437
O35   O     O_3   0.724699 0.476071 0.165767 -0.541243
O36   O     O_2   0.296115 0.566674 0.672361 -0.210340
O37   O     O_2   0.363816 0.668123 0.730789 -0.151267
O38   O     O_3   0.407301 0.648396 0.626140 -0.546391
O39   O     O_2   0.296447 0.503783 0.332474 -0.226776
O40   O     O_2   0.306527 0.405761 0.254253 -0.142073
O41   O     O_3   0.380877 0.368630 0.351241 -0.570896
O42   O     O_2   0.400107 0.619036 0.845467 -0.162275
O43   O     O_2   0.298027 0.540879 0.793203 -0.162090
O44   O     O_3   0.383001 0.472647 0.877443 -0.533058
O45   O     O_R   0.430530 0.496740 0.581480 -0.539447
O46   O     O_2   0.355817 0.438773 0.143984 -0.211556
O47   O     O_2   0.296925 0.551999 0.199321 -0.154823
O48   O     O_3   0.396856 0.582756 0.119833 -0.533611
O49   O     O_2   0.698927 0.706757 0.479493 -0.223238
O50   O     O_2   0.603421 0.684659 0.397076 -0.288711
O51   O     O_3   0.674089 0.820546 0.404016 -0.440389
O52   O     O_2   0.407429 0.345916 0.621351 -0.256136
O53   O     O_2   0.325092 0.294179 0.540009 -0.275256
O54   O     O_3   0.343617 0.208983 0.633382 -0.475800
O55   O     O_2   0.710035 0.293646 0.443532 -0.216879
O56   O     O_R   0.569470 0.503260 0.418520 -0.615172
O57   O     O_2   0.657563 0.179233 0.389869 -0.166905
O58   O     O_3   0.567973 0.311003 0.389916 -0.553184
O59   O     O_2   0.273507 0.709955 0.534174 -0.246365
O60   O     O_2   0.254144 0.824947 0.468771 -0.167376
O61   O     O_3   0.316907 0.692900 0.427621 -0.511002
O62   O     O_R   0.569440 0.503310 0.586210 -0.659266
O63   O     O_R   0.430560 0.496690 0.413790 -0.559437
O64   O     O_2   0.532582 0.365081 0.158148 -0.500072
S1    S     S_3+6 0.682211 0.697704 0.058406 0.162068
S2    S     S_3+6 0.352637 0.442765 0.304218 0.130692
S3    S     S_3+6 0.382472 0.537392 0.821811 0.145012
S4    S     S_3+6 0.372802 0.518318 0.171529 0.138124
S5    S     S_3+6 0.633221 0.745653 0.439929 0.105750
S6    S     S_3+6 0.386749 0.271865 0.588120 0.084903
S7    S     S_3+6 0.634487 0.249189 0.427980 0.122992
S8    S     S_3+6 0.309958 0.753567 0.485616 0.132899
S9    S     S_3+6 0.596533 0.229734 0.947550 0.160706
S10   S     S_3+6 0.335604 0.909192 0.573964 0.116157
S11   S     S_3+6 0.710740 0.087893 0.500357 0.116512
S12   S     S_3+6 0.884282 0.589981 0.621714 0.078525
S13   S     S_3+6 0.115514 0.385610 0.390657 0.120099
S14   S     S_3+6 0.679504 0.376841 0.776119 0.115967
S15   S     S_3+6 0.705916 0.521615 0.229066 0.122258
S16   S     S_3+6 0.376545 0.603797 0.686039 0.135741
Zn1   Zn    Zn3+2 0.407250 0.495610 0.496840 1.115742
Zn2   Zn    Zn3+2 0.592750 0.504390 0.503160 1.050954

loop_
_geom_bond_atom_site_label_1
_geom_bond_atom_site_label_2
_ccdc_geom_bond_type
C36   H31   S    
O33   S15   D    
O56   Zn2   S    
O9    S9    D    
O8    S9    D    
C23   C45   A    
O5    S1    D    
O59   S8    D    
C27   C29   A    
C14   C18   A    
C37   H30   S    
O40   S2    D    
C17   O56   A    
H7    O7    S    
O58   S7    S    
C11   H12   S    
O36   S16   D    
C15   C19   A    
C29   C36   S    
C36   C37   D    
C19   C21   A    
O53   S6    D    
C11   C14   A    
H9    O14   S    
H16   O31   S    
C4    S4    S    
O61   S8    S    
O46   S4    D    
C6    N1    S    
C55   H4    S    
C21   S7    S    
O20   S12   S    
C45   H3    S    
C9    S5    S    
O31   S14   S    
O1    Zn1   S    
O45   Zn1   S    
C48   C51   A    
O18   S12   D    
C23   S14   S    
C45   C56   A    
O15   S11   D    
C49   C51   A    
O30   S14   D    
C16   O62   A    
C50   C52   A    
C31   C33   A    
C17   O63   A    
O29   S14   D    
C44   C47   A    
C8    C12   S    
N4    Zn1   S    
C52   C54   S    
C40   C42   A    
C54   O28   S    
O47   S4    D    
C25   H23   S    
C41   C43   A    
O35   S15   S    
C58   S16   S    
C42   C44   A    
H20   O44   S    
O49   S5    D    
C44   C46   A    
O42   S3    D    
C46   C48   A    
H11   O20   S    
C2    C57   A    
O54   S6    S    
C32   C35   A    
H8    O10   S    
O55   S7    D    
C38   O64   S    
C4    C6    A    
C40   O3    S    
C18   S10   S    
C1    O23   A    
O51   S5    S    
O57   S7    D    
O52   S6    D    
C38   N1    A    
C12   O12   A    
C6    C34   A    
C30   C37   S    
C33   N3    A    
O17   S11   S    
H10   O17   S    
C2    C4    A    
C16   C56   S    
C3    C58   A    
C5    C23   A    
C25   N3    A    
C1    O1    A    
H14   O26   S    
C8    C21   A    
O38   S16   S    
C9    C11   A    
O7    S1    S    
C38   C47   A    
O19   S12   D    
O32   S15   D    
O63   Zn1   S    
C13   H1    S    
O23   Zn2   S    
O21   S13   D    
C15   C24   S    
C54   O27   D    
H15   O28   S    
C24   H5    S    
C26   N4    A    
C55   C57   A    
O50   S5    D    
C22   C24   D    
C16   O45   A    
C39   N2    A    
H25   O58   S    
C35   N4    A    
C7    C9    A    
O13   S10   D    
H22   O51   S    
O34   Zn1   S    
C10   S6    S    
O41   S2    S    
O37   S16   D    
H13   O24   S    
C1    C7    S    
C32   S13   S    
C8    C10   A    
C49   S1    S    
C19   S11   S    
C3    C5    A    
C10   C13   A    
O62   Zn2   S    
O48   S4    S    
H24   O54   S    
C53   O25   D    
C43   C50   A    
C47   C52   A    
C12   O34   A    
C31   S12   S    
C25   C27   A    
C20   S8    S    
N3    Zn2   S    
C26   C28   A    
O11   S10   D    
C27   H2    S    
O39   S2    D    
C14   C22   S    
C13   C15   A    
C33   H29   S    
C29   C31   A    
C34   S15   S    
O10   S9    S    
C30   C32   A    
H18   O38   S    
O6    S1    D    
O24   S13   S    
C26   H27   S    
C28   C30   A    
H26   O61   S    
C56   C58   A    
O44   S3    S    
C18   C20   A    
C40   N1    A    
O14   S10   S    
C43   C46   A    
C39   O2    S    
C5    N2    S    
C3    S3    S    
C42   C49   A    
C22   H6    S    
H21   O48   S    
O16   S11   D    
C34   C55   A    
C41   N2    A    
O22   S13   D    
C2    S2    S    
C7    C20   A    
C53   O26   S    
C50   S9    S    
O12   Zn2   S    
C41   O4    S    
O60   S8    D    
C28   H32   S    
H19   O41   S    
C51   C53   S    
C35   H28   S    
H17   O35   S    
O43   S3    D    
C17   C57   S    
C39   C48   A    
