data_mof_unit_8861.cif
_audit_creation_date              2012-12-11T17:45:33-0500
_audit_creation_method            fapswitch 2.2
_symmetry_space_group_name_H-M    P1
_symmetry_Int_Tables_number       1
_space_group_crystal_system       triclinic
_cell_length_a                    15.121768
_cell_length_b                    15.185039
_cell_length_c                    14.916603
_cell_angle_alpha                 110.380605
_cell_angle_beta                  109.106198
_cell_angle_gamma                 109.413134
_cell_volume                      2620.52703243

loop_
_atom_site_label
_atom_site_type_symbol
_atom_type_description
_atom_site_fract_x
_atom_site_fract_y
_atom_site_fract_z
_atom_type_partial_charge
C1    C     C_R   0.952558 0.229632 0.043030 -0.114198
C2    C     C_R   0.323316 0.779957 0.328767 0.057933
C3    C     C_R   0.325318 0.506617 0.003496 0.005788
C4    C     C_R   0.921301 0.499262 0.294617 0.067440
C5    C     C_R   0.685592 0.407103 0.939152 -0.094450
C6    C     C_R   0.029561 0.590669 0.777968 -0.108761
C7    C     C_R   0.791024 0.197805 0.697898 -0.131907
C8    C     C_R   0.000014 0.799653 0.098071 -0.142878
C9    C     C_R   0.092600 0.805112 0.009264 -0.144611
C10   C     C_R   0.704875 0.195173 0.792849 -0.093639
C11   C     C_R   0.776771 0.590017 0.027061 -0.137128
C12   C     C_R   0.314232 0.756272 0.226083 -0.094223
C13   C     C_R   0.945589 0.408630 0.682805 -0.154532
C14   C     C_R   0.673556 0.497967 0.959681 0.040064
C15   C     C_R   0.964882 0.500595 0.672176 0.083324
C16   C     C_R   0.702882 0.130248 0.698434 0.068908
C17   C     C_R   0.060756 0.865752 0.073294 0.068804
C18   C     C_R   0.601955 0.187167 0.073467 -0.115538
C19   C     C_R   0.663149 0.284653 0.175378 -0.101592
C20   C     C_R   0.745496 0.296763 0.265733 0.141576
C21   C     C_R   0.764421 0.209789 0.252607 -0.195104
C22   C     C_R   0.701784 0.112039 0.151171 -0.133832
C23   C     C_R   0.231261 0.417202 0.974632 0.101911
C24   C     C_R   0.620814 0.100857 0.061564 -0.097689
C25   C     C_R   0.842698 0.408121 0.469915 -0.207417
C26   C     C_R   0.925963 0.504172 0.569611 0.033226
C27   C     C_R   0.971924 0.601956 0.568619 -0.028185
C28   C     C_R   0.929383 0.599013 0.469011 0.141366
C29   C     C_R   0.878040 0.500034 0.370989 -0.002775
C30   C     C_R   0.820989 0.403568 0.369246 0.014165
C31   C     C_R   0.103545 0.792247 0.732013 -0.198161
C32   C     C_R   0.208441 0.869567 0.821503 -0.125643
C33   C     C_R   0.294167 0.850173 0.831498 -0.091880
C34   C     C_R   0.988790 0.589714 0.296689 -0.121137
C35   C     C_R   0.275323 0.752448 0.752892 -0.144714
C36   C     C_R   0.170446 0.673636 0.664918 -0.143963
C37   C     C_R   0.083483 0.692252 0.654693 0.132032
C38   C     C_R   0.244458 0.015107 0.503263 -0.068719
C39   C     C_R   0.325825 0.992366 0.501109 -0.082613
C40   C     C_R   0.344919 0.924541 0.539364 0.089308
C41   C     C_R   0.284229 0.882170 0.582522 -0.173931
C42   C     C_R   0.201164 0.903277 0.581893 -0.107175
C43   C     C_R   0.181006 0.969383 0.542145 -0.122404
C44   C     C_R   0.530843 0.972146 0.629869 -0.215096
C45   C     C_R   0.310714 0.594251 0.026431 -0.143304
C46   C     C_R   0.622562 0.012466 0.619639 0.041287
C47   C     C_R   0.619855 0.946562 0.522437 0.071955
C48   C     C_R   0.520782 0.855079 0.434363 -0.211056
C49   C     C_R   0.424729 0.841276 0.434873 0.057467
C50   C     C_R   0.430765 0.901282 0.535331 0.016646
C51   C     C_R   0.690795 0.006836 0.414371 -0.168106
C52   C     C_R   0.776939 0.059226 0.402294 -0.189908
C53   C     C_R   0.881644 0.089922 0.475334 -0.295006
C54   C     C_R   0.899864 0.061634 0.557356 0.683315
C55   C     C_R   0.811704 0.002272 0.564912 -0.276741
C56   C     C_R   0.901926 0.409647 0.205983 -0.141040
C57   C     C_R   0.708165 0.981708 0.498383 0.043789
C58   C     C_3   0.473718 0.437552 0.849041 0.077445
C59   C     C_3   0.376504 0.429395 0.866157 -0.472087
C60   C     C_3   0.557420 0.450292 0.036397 -0.414322
C61   C     C_3   0.602334 0.618192 0.024038 -0.464574
C62   C     C_3   0.577856 0.499305 0.964452 0.302790
C63   C     C_3   0.416905 0.504594 0.989803 0.342029
C64   C     C_3   0.469495 0.462177 0.058706 -0.334886
C65   C     C_3   0.504379 0.620391 0.028943 -0.419541
C66   C     C_R   0.136317 0.040635 0.775888 -0.020180
C67   C     C_R   0.219654 0.744522 0.313798 -0.111526
C68   C     C_R   0.098601 0.042778 0.849777 -0.249572
C69   C     C_R   0.170894 0.110389 0.964294 0.014991
C70   C     C_R   0.283066 0.168370 0.003517 0.247111
C71   C     C_R   0.319112 0.166402 0.928281 -0.224219
C72   C     C_R   0.246207 0.105034 0.815303 -0.148784
C73   C     C_R   0.152405 0.030994 0.075232 -0.182805
C74   C     C_R   0.086801 0.978156 0.107997 0.044512
C75   C     C_R   0.027671 0.022635 0.144301 0.024010
C76   C     C_R   0.022028 0.104378 0.126772 -0.224017
C77   C     C_R   0.058060 0.130373 0.059267 0.082689
C78   C     C_R   0.038136 0.223569 0.944856 -0.096110
C79   C     C_R   0.130687 0.097756 0.038903 0.097286
C80   C     C_R   0.843762 0.926704 0.118551 -0.168137
C81   C     C_R   0.776287 0.883144 0.155226 -0.183260
C82   C     C_R   0.820747 0.886367 0.255152 -0.061616
C83   C     C_R   0.933089 0.940306 0.322293 -0.101243
C84   C     C_R   0.001118 0.990619 0.289361 -0.192841
C85   C     C_R   0.956819 0.978482 0.184512 0.126447
C86   C     C_R   0.015794 0.188787 0.013896 0.078235
H1    H     H_    0.914184 0.216317 0.090161 0.091353
H2    H     H_    0.051804 0.673451 0.804441 0.124820
H3    H     H_    0.819447 0.179412 0.641162 0.110966
H4    H     H_    0.976929 0.819657 0.159297 0.127372
H5    H     H_    0.150872 0.834275 0.985004 0.098567
H6    H     H_    0.658946 0.169722 0.830049 0.083547
H7    H     H_    0.798855 0.674469 0.062343 0.117576
H8    H     H_    0.897865 0.324417 0.617289 0.104871
H9    H     H_    0.574163 0.026081 0.982330 0.095068
H10   H     H_    0.541744 0.179018 0.002758 0.107475
H11   H     H_    0.649321 0.351764 0.182787 0.132461
H12   H     H_    0.379334 0.775919 0.208254 0.085218
H13   H     H_    0.831934 0.220470 0.319281 0.114824
H14   H     H_    0.717988 0.046068 0.141169 0.119806
H15   H     H_    0.801076 0.334365 0.469386 0.137658
H16   H     H_    0.037312 0.807084 0.726891 0.152414
H17   H     H_    0.223356 0.943615 0.884858 0.140034
H18   H     H_    0.374909 0.910428 0.900876 0.108791
H19   H     H_    0.341701 0.737172 0.760862 0.113522
H20   H     H_    0.156358 0.596917 0.606059 0.117334
H21   H     H_    0.119170 0.988561 0.545596 0.148991
H22   H     H_    0.233563 0.071084 0.478316 0.131818
H23   H     H_    0.374565 0.028032 0.470430 0.127207
H24   H     H_    0.299448 0.830938 0.613347 0.138192
H25   H     H_    0.153560 0.870050 0.613859 0.164467
H26   H     H_    0.530520 0.014057 0.704713 0.127917
H27   H     H_    0.517672 0.806170 0.359147 0.133082
H28   H     H_    0.611118 0.989748 0.360889 0.130952
H29   H     H_    0.762127 0.076279 0.336440 0.154212
H30   H     H_    0.948005 0.133337 0.466294 0.147189
H31   H     H_    0.013766 0.673267 0.348696 0.141377
H32   H     H_    0.825813 0.982809 0.629736 0.148167
H33   H     H_    0.485782 0.486113 0.808393 0.125900
H34   H     H_    0.328604 0.451928 0.813444 0.156149
H35   H     H_    0.322356 0.344342 0.840394 0.188411
H36   H     H_    0.532473 0.363050 0.993715 0.163601
H37   H     H_    0.408488 0.381843 0.036542 0.195048
H38   H     H_    0.670148 0.663415 0.110550 0.191230
H39   H     H_    0.625175 0.659848 0.980143 0.160722
H40   H     H_    0.471477 0.649760 0.974524 0.158105
H41   H     H_    0.362985 0.675129 0.046544 0.090064
H42   H     H_    0.530543 0.679040 0.115302 0.163980
H43   H     H_    0.633070 0.491470 0.116797 0.181077
H44   H     H_    0.505111 0.519208 0.148342 0.201889
H45   H     H_    0.276203 0.104979 0.758991 0.178143
H46   H     H_    0.080443 0.986811 0.688266 0.179400
H47   H     H_    0.013292 0.990839 0.818031 0.144379
H48   H     H_    0.404173 0.210253 0.957228 0.139264
H49   H     H_    0.207015 0.005760 0.058496 0.126449
H50   H     H_    0.977234 0.136925 0.156118 0.126252
H51   H     H_    0.847337 0.325289 0.170966 0.120111
H52   H     H_    0.808155 0.920200 0.038972 0.116397
H53   H     H_    0.689515 0.846066 0.105690 0.121790
H54   H     H_    0.768280 0.849810 0.282149 0.132839
H55   H     H_    0.966827 0.944923 0.400746 0.147182
H56   H     H_    0.087667 0.034135 0.341987 0.120998
H57   H     H_    0.194308 0.742065 0.372651 0.122043
H58   H     H_    0.082418 0.208682 0.903903 0.141879
H59   H     H_    0.624082 0.323200 0.898856 0.128934
N1    N     N_R   0.947080 0.293830 0.002870 -0.038488
N2    N     N_R   0.054040 0.556820 0.847890 -0.047831
N3    N     N_R   0.848290 0.293830 0.791110 -0.044501
N4    N     N_R   0.995680 0.706170 0.053910 -0.041406
N5    N     N_R   0.052920 0.706170 0.997130 -0.041458
N6    N     N_R   0.791050 0.293830 0.847890 -0.041070
N7    N     N_R   0.846330 0.556820 0.053910 -0.039767
N8    N     N_R   0.997640 0.443180 0.791110 -0.049631
N9    N     N_R   0.208950 0.706170 0.152110 -0.038944
N10   N     N_R   0.153670 0.443180 0.946090 -0.058642
N11   N     N_R   0.002360 0.556820 0.208890 -0.042414
N12   N     N_R   0.210070 0.556820 0.002870 -0.033786
N13   N     N_R   0.945960 0.443180 0.152110 -0.036265
N14   N     N_R   0.151710 0.706170 0.208890 -0.045650
N15   N     N_R   0.004320 0.293830 0.946090 -0.038709
N16   N     N_R   0.789930 0.443180 0.997130 -0.048201
Ni1   Ni    Ni4+2 0.869690 0.369690 0.000000 0.220888
Ni2   Ni    Ni4+2 0.130310 0.630310 0.000000 0.223333
Ni3   Ni    Ni4+2 0.000970 0.369690 0.869780 0.213323
Ni4   Ni    Ni4+2 0.999030 0.630310 0.130220 0.230786
I1    I     I_    0.910512 0.731030 0.466056 -0.548099
I2    I     I_    0.272562 0.416724 0.126467 -0.421322
O1    O     O_3   0.002705 0.091181 0.631184 -0.645646
C87   C     C_3   0.069756 0.205364 0.691149 -0.315279
H60   H     H_    0.028368 0.248457 0.718681 0.135085
H61   H     H_    0.100990 0.233230 0.642526 0.162817
H62   H     H_    0.140346 0.228271 0.766609 0.186668
I3    I     I_    0.431521 0.279508 0.728567 -0.545197
I4    I     I_    0.402862 0.250119 0.172809 -0.419152

loop_
_geom_bond_atom_site_label_1
_geom_bond_atom_site_label_2
_ccdc_geom_bond_type
C59   H35   S    
C66   C68   A    
C63   C65   S    
C41   C42   A    
C58   C62   S    
C59   H34   S    
C56   H51   S    
C23   N10   A    
N10   N12   A    
C33   H18   S    
C18   H10   S    
C73   C74   A    
C3    C23   A    
C35   C36   A    
N3    N6    A    
C42   H25   S    
C2    C12   A    
C9    H5    S    
C71   H48   S    
N16   Ni1   S    
C19   H11   S    
C20   C30   S    
C53   C54   A    
N5    Ni2   S    
N1    Ni1   S    
C26   C27   A    
C80   C85   A    
C61   H38   S    
C18   C24   A    
N15   Ni3   S    
C12   N9    A    
C28   C29   A    
C45   H41   S    
C38   C39   A    
C21   H13   S    
C11   C14   A    
C80   H52   S    
N1    N15   A    
C7    H3    S    
C1    C86   A    
C6    H2    S    
C60   C62   S    
C18   C19   A    
C87   H60   S    
C1    H1    S    
C82   H54   S    
C6    C15   A    
C54   C55   A    
C75   C85   S    
C66   C72   A    
C73   H49   S    
C68   C69   A    
C48   C49   A    
C56   N13   A    
C70   C71   A    
C51   C57   A    
N12   Ni2   S    
C12   H12   S    
N7    N16   A    
C53   H30   S    
C28   I1    S    
C78   C86   A    
C34   H31   S    
C10   H6    S    
C21   C22   A    
C4    C56   A    
C87   H61   S    
C1    N1    A    
C61   C62   S    
C25   H15   S    
C44   C46   A    
C81   C82   A    
C39   H23   S    
C66   H46   S    
C77   C79   A    
C76   H50   S    
C4    C34   A    
C9    N5    A    
C51   H28   S    
C22   H14   S    
C74   C75   A    
N8    Ni3   S    
C36   H20   S    
C51   C52   A    
N3    Ni3   S    
C65   H42   S    
N9    Ni2   S    
N4    Ni4   S    
C76   C77   A    
C2    C67   A    
C24   H9    S    
C16   C46   S    
C39   C40   A    
C83   H55   S    
C15   C26   S    
C58   C59   S    
C3    C45   A    
C31   C37   A    
C5    N16   A    
C75   C76   A    
C31   H16   S    
C29   C30   A    
C35   H19   S    
C2    C49   S    
C78   H58   S    
C10   N6    A    
C47   C57   S    
C47   C48   A    
C84   H56   S    
C5    H59   S    
N6    Ni1   S    
C73   C79   A    
C32   H17   S    
C45   N12   A    
C43   H21   S    
C84   C85   A    
C60   H36   S    
C70   I4    S    
C13   N8    A    
C5    C14   A    
N2    Ni2   S    
C23   I2    S    
C44   H26   S    
C9    C17   A    
O1    C87   S    
C64   H44   S    
C77   C86   S    
C49   C50   A    
C34   N11   A    
C41   H24   S    
C55   C57   A    
C17   C74   S    
C87   H62   S    
C22   C24   A    
C83   C84   A    
C58   I3    S    
C8    H4    S    
C42   C43   A    
C52   C53   A    
C72   H45   S    
C67   N14   A    
C7    N3    A    
C52   H29   S    
C44   C50   A    
C25   C30   A    
C81   H53   S    
C46   C47   A    
C68   H47   S    
N7    Ni4   S    
C31   C32   A    
C7    C16   A    
C4    C29   S    
C54   O1    S    
C80   C81   A    
C60   H43   S    
C61   H39   S    
C3    C63   S    
N10   Ni3   S    
C64   H37   S    
C59   C63   S    
C8    C17   A    
C13   H8    S    
C60   C64   S    
C32   C33   A    
C19   C20   A    
C13   C15   A    
C8    N4    A    
C25   C26   A    
N9    N14   A    
C10   C16   A    
N4    N5    A    
C65   H40   S    
C6    N2    A    
C67   H57   S    
C11   H7    S    
N11   Ni4   S    
C27   C37   S    
C40   C50   S    
C78   N15   A    
N11   N13   A    
C58   H33   S    
C33   C35   A    
C61   C65   S    
C38   H22   S    
C69   C70   A    
N2    N8    A    
C69   C79   S    
N13   Ni1   S    
C63   C64   S    
N14   Ni4   S    
C11   N7    A    
C38   C43   A    
C71   C72   A    
C20   C21   A    
C36   C37   A    
C82   C83   A    
C27   C28   A    
C40   C41   A    
C48   H27   S    
C55   H32   S    
C14   C62   S    
