data_mof_unit_15750.cif
_audit_creation_date              2013-03-05T16:07:56-0500
_audit_creation_method            fapswitch 2.2
_symmetry_space_group_name_H-M    P1
_symmetry_Int_Tables_number       1
_space_group_crystal_system       triclinic
_cell_length_a                    6.965919
_cell_length_b                    14.610844
_cell_length_c                    15.957509
_cell_angle_alpha                 90.325815
_cell_angle_beta                  89.853138
_cell_angle_gamma                 90.075652
_cell_volume                      1624.08966676

loop_
_atom_site_label
_atom_site_type_symbol
_atom_site_description
_atom_site_fract_x
_atom_site_fract_y
_atom_site_fract_z
_atom_type_partial_charge
O1    O     O_R   0.494380 0.415640 0.412830 -0.592341
O2    O     O_R   0.823960 0.405540 0.586560 -0.558211
O3    O     O_R   0.994270 0.584360 0.587170 -0.581346
C1    C     C_R   0.654935 0.383867 0.615613 0.957468
O4    O     O_R   0.824090 0.404620 0.413450 -0.605215
O5    O     O_R   0.994400 0.583430 0.412820 -0.582404
C2    C     C_R   0.655395 0.382702 0.384343 0.958656
O6    O     O_R   0.494250 0.416570 0.587180 -0.604007
O7    O     O_3   0.660800 0.558670 0.500000 -0.278197
V1    V     V_3+5 0.935650 0.489120 0.500000 1.192417
O8    O     O_R   0.324110 0.594460 0.413440 -0.586540
C3    C     C_R   0.155306 0.616061 0.384471 0.928454
O9    O     O_R   0.323980 0.595380 0.586550 -0.603955
C4    C     C_R   0.154776 0.617868 0.615364 0.928820
V2    V     V_3+5 0.435660 0.510880 0.500000 1.180027
O10   O     O_3   0.160640 0.441330 0.500000 -0.275805
C5    C     C_3   0.934643 0.694784 0.721668 -0.322863
H1    H     H_    0.833582 0.714917 0.671055 0.148974
H2    H     H_    0.887277 0.626771 0.745212 0.185913
C6    C     C_3   0.922022 0.765749 0.793560 -0.361520
H3    H     H_    0.867608 0.731676 0.851186 0.154015
H4    H     H_    0.816275 0.819561 0.776428 0.152877
H5    H     H_    0.107759 0.806266 0.603680 0.143309
H6    H     H_    0.091910 0.911706 0.711045 0.131059
C7    C     C_3   0.203176 0.784478 0.655723 -0.375850
C8    C     C_3   0.277463 0.661341 0.759718 -0.311779
C9    C     C_3   0.142954 0.687931 0.686283 0.076359
H7    H     H_    0.428847 0.657312 0.737417 0.150301
H8    H     H_    0.237523 0.592834 0.783374 0.222398
C10   C     C_3   0.121449 0.809855 0.810920 0.127502
C11   C     C_3   0.191645 0.855554 0.728577 -0.338701
C12   C     C_3   0.263657 0.731756 0.832648 -0.375995
H9    H     H_    0.215726 0.696621 0.890796 0.148535
H10   H     H_    0.409010 0.760474 0.845089 0.161584
H11   H     H_    0.352358 0.782456 0.630591 0.154937
H12   H     H_    0.335713 0.886853 0.738361 0.145708
C13   C     C_R   0.281544 0.756338 0.191588 -0.067827
C14   C     C_R   0.119630 0.811541 0.180521 -0.137984
C15   C     C_R   0.968228 0.800014 0.237660 -0.140475
H13   H     H_    0.847004 0.844639 0.234793 0.167155
C16   C     C_R   0.979701 0.736707 0.303643 -0.025253
H14   H     H_    0.864438 0.734045 0.349078 0.130583
C17   C     C_R   0.143066 0.681493 0.314051 -0.220765
C18   C     C_R   0.290401 0.689864 0.254773 0.015595
C19   C     C_3   0.497508 0.709553 0.271145 0.359681
C20   C     C_3   0.484176 0.786218 0.206136 0.015564
H15   H     H_    0.520187 0.734857 0.336211 0.097659
H16   H     H_    0.575299 0.780065 0.149268 0.095691
C21   C     C_R   0.497624 0.317620 0.744928 0.085842
C22   C     C_R   0.647231 0.317528 0.685721 -0.249541
C23   C     C_R   0.797099 0.254045 0.697861 -0.072410
H17   H     H_    0.917642 0.252136 0.655096 0.119729
C24   C     C_R   0.787248 0.188337 0.762148 -0.178940
H18   H     H_    0.901294 0.138553 0.767473 0.126820
C25   C     C_R   0.625474 0.183018 0.815136 -0.205780
C26   C     C_R   0.485072 0.250112 0.806017 0.165729
C27   C     C_3   0.273468 0.240214 0.797438 -0.588974
C28   C     C_3   0.284510 0.317322 0.733735 0.211583
H19   H     H_    0.195640 0.257332 0.856370 0.238929
H20   H     H_    0.233870 0.173310 0.768836 0.161102
H21   H     H_    0.238518 0.298175 0.669309 0.065358
C29   C     C_R   0.494133 0.316830 0.256311 0.183888
C30   C     C_R   0.647652 0.317230 0.312952 -0.229828
C31   C     C_R   0.798839 0.255486 0.297186 -0.165475
H22   H     H_    0.920983 0.253453 0.338711 0.139681
C32   C     C_R   0.787669 0.191176 0.231170 -0.105401
H23   H     H_    0.902136 0.141847 0.223778 0.141136
C33   C     C_R   0.624695 0.186411 0.179012 -0.231944
C34   C     C_R   0.482628 0.252935 0.191235 0.143178
C35   C     C_3   0.271693 0.241466 0.202744 -0.465027
C36   C     C_3   0.284080 0.311518 0.273284 -0.456002
H24   H     H_    0.234032 0.171652 0.224707 0.207177
H25   H     H_    0.189036 0.266035 0.147811 0.194781
H26   H     H_    0.252660 0.282591 0.336123 0.193794
H27   H     H_    0.209481 0.376779 0.258939 0.191166
O11   O     O_R   0.771490 0.080820 0.910070 -0.599639
O12   O     O_R   0.441590 0.092730 0.083780 -0.583074
O13   O     O_R   0.271350 0.913900 0.084390 -0.556829
C37   C     C_R   0.610776 0.115905 0.111913 1.046901
O14   O     O_R   0.441780 0.091820 0.910670 -0.598624
O15   O     O_R   0.271540 0.912980 0.910040 -0.602121
C38   C     C_R   0.611128 0.112888 0.881369 0.925842
O16   O     O_R   0.771300 0.081740 0.084420 -0.592634
O17   O     O_3   0.604960 0.938700 0.997240 -0.269899
V3    V     V_3+5 0.330090 0.008230 0.997220 1.179958
O18   O     O_R   0.941820 0.901930 0.910640 -0.604929
C39   C     C_R   0.110723 0.879748 0.881738 0.839560
O19   O     O_R   0.941630 0.902840 0.083750 -0.589569
C40   C     C_R   0.110353 0.881325 0.113072 0.953582
V4    V     V_3+5 0.830090 0.986410 0.997190 1.169762
O20   O     O_3   0.105080 0.055990 0.997200 -0.278225
O21   O     O_3   0.621866 0.634036 0.253977 -0.607817
C41   C     C_3   0.617715 0.600807 0.170535 -0.211124
H28   H     H_    0.711438 0.643033 0.129774 0.135438
H29   H     H_    0.470646 0.595445 0.144303 0.128782
H30   H     H_    0.678351 0.530633 0.170036 0.164753
N1    N     N_R   0.490868 0.877875 0.244506 0.230601
O22   O     O_R   0.398742 0.895914 0.313788 -0.431659
O23   O     O_R   0.576327 0.944244 0.205439 -0.419774
N2    N     N_R   0.196942 0.401589 0.765521 0.242023
O24   O     O_R   0.065526 0.442322 0.721905 -0.434538
O25   O     O_R   0.238503 0.432659 0.839977 -0.441532

loop_
_geom_bond_atom_site_label_1
_geom_bond_atom_site_label_2
_geom_bond_distance
_ccdc_geom_bond_type
C7    C11   1.556428 S    
C32   C33   1.410813 A    
C25   C26   1.394123 A    
C8    C12   1.551827 S    
C41   H28   1.109626 S    
C16   H14   1.081258 S    
C24   C25   1.409441 A    
C1    O6    1.301355 A    
O14   V3    2.003899 S    
N1    O22   1.302726 A    
V3    O20   1.716561 S    
C15   C16   1.407936 A    
C6    C10   1.555464 S    
C19   C20   1.534100 S    
C14   C40   1.488366 S    
C8    C9    1.553656 S    
C13   C14   1.399601 A    
C3    C17   1.482208 S    
O5    C3    1.298736 A    
C10   C11   1.554764 S    
C27   H19   1.111707 S    
V2    O10   2.167407 S    
C5    C6    1.544380 S    
C26   C27   1.487489 S    
C19   O21   1.428551 S    
N2    O24   1.298483 A    
O8    V2    2.007539 S    
C33   C34   1.400546 A    
C35   C36   1.519634 S    
O1    V2    2.003794 S    
C4    C9    1.523808 S    
C10   C12   1.553335 S    
O7    V1    2.168732 S    
C13   C20   1.495245 S    
C28   H21   1.111774 S    
O12   C37   1.305786 A    
C32   H23   1.081316 S    
O12   V3    2.004757 S    
C41   H29   1.110191 S    
O9    C4    1.305811 A    
C16   C17   1.406532 A    
O17   V4    1.715345 S    
N1    O23   1.298760 A    
C22   C23   1.411871 A    
C19   H15   1.111775 S    
O13   C40   1.300844 A    
C20   H16   1.109411 S    
C36   H27   1.111765 S    
C23   H17   1.080958 S    
C5    C9    1.558855 S    
C28   N2    1.462372 S    
O17   V3    2.168719 S    
O14   C38   1.304924 A    
O18   V4    2.003611 S    
O11   C38   1.297529 A    
C15   H13   1.068772 S    
O4    C2    1.303569 A    
O18   C39   1.303298 A    
C27   H20   1.111228 S    
C24   H18   1.081667 S    
C21   C28   1.495693 S    
C29   C34   1.394833 A    
C1    C22   1.485216 S    
C23   C24   1.410483 A    
C31   C32   1.409845 A    
O2    C1    1.303608 A    
C17   C18   1.399680 A    
C29   C30   1.401950 A    
C35   H25   1.111544 S    
N2    O25   1.302623 A    
C5    H1    1.113824 S    
C6    H3    1.113558 S    
C25   C38   1.479360 S    
C2    C30   1.484464 S    
O15   C39   1.301274 A    
O3    C4    1.300313 A    
C7    H11   1.113300 S    
O13   V3    2.004818 S    
C20   N1    1.470088 S    
O19   V4    2.007420 S    
C41   H30   1.109398 S    
O9    V2    2.003652 S    
C7    C9    1.552072 S    
V4    O20   2.167426 S    
O2    V1    2.003919 S    
C18   C19   1.494101 S    
O16   V4    2.005460 S    
O1    C2    1.300994 A    
C6    H4    1.113794 S    
O5    V1    2.004744 S    
C36   H26   1.111524 S    
O8    C3    1.304377 A    
O6    V2    2.006709 S    
C21   C26   1.393227 A    
C8    H7    1.113623 S    
C31   H22   1.080316 S    
C13   C18   1.405464 A    
O7    V2    1.715881 S    
H6    C11   1.113184 S    
O4    V1    2.004810 S    
O3    V1    2.004356 S    
V1    O10   1.716611 S    
C12   H9    1.113276 S    
C37   O16   1.299423 A    
C27   C28   1.523457 S    
C14   C15   1.402990 A    
C33   C37   1.484851 S    
O21   C41   1.415028 S    
C5    H2    1.113660 S    
C29   C36   1.489391 S    
H5    C7    1.113187 S    
C34   C35   1.489673 S    
C30   C31   1.408841 A    
O19   C40   1.305599 A    
C8    H8    1.106709 S    
C21   C22   1.404872 A    
O11   V4    2.007066 S    
C11   H12   1.113295 S    
C35   H24   1.111317 S    
C10   C39   1.520573 S    
O15   V3    2.004468 S    
C12   H10   1.113379 S    
