data_mof_unit_68270.cif
_audit_creation_date              2012-12-10T16:55:42-0500
_audit_creation_method            fapswitch 2.2
_symmetry_space_group_name_H-M    P1
_symmetry_Int_Tables_number       1
_space_group_crystal_system       triclinic
_cell_length_a                    7.780138
_cell_length_b                    8.587237
_cell_length_c                    10.508744
_cell_angle_alpha                 90.874133
_cell_angle_beta                  85.429282
_cell_angle_gamma                 93.480004
_cell_volume                      698.526391614

loop_
_atom_site_label
_atom_site_type_symbol
_atom_type_description
_atom_site_fract_x
_atom_site_fract_y
_atom_site_fract_z
_atom_type_partial_charge
C1    C     C_R   0.545625 0.794688 0.498491 0.950462
C2    C     C_3   0.502019 0.500658 0.877267 -0.006130
C3    C     C_3   0.335482 0.474668 0.050274 -0.220624
C4    C     C_3   0.664518 0.525333 0.949726 -0.220622
C5    C     C_2   0.569451 0.958137 0.500629 -0.397534
C6    C     C_2   0.430548 0.041863 0.499375 -0.397527
C7    C     C_R   0.300633 0.741068 0.921098 0.130871
C8    C     C_R   0.120092 0.735301 0.945054 -0.156745
C9    C     C_R   0.024144 0.849827 0.896074 -0.143377
C10   C     C_R   0.107888 0.972371 0.825285 -0.116728
C11   C     C_R   0.287541 0.980294 0.803435 -0.141732
C12   C     C_R   0.454375 0.205312 0.501510 0.950455
C13   C     C_R   0.383878 0.864883 0.850352 -0.149311
C14   C     C_R   0.699373 0.258931 0.078895 0.130865
C15   C     C_R   0.879907 0.264680 0.054908 -0.156771
C16   C     C_R   0.975861 0.150151 0.103878 -0.143375
C17   C     C_R   0.892128 0.027619 0.174686 -0.116729
C18   C     C_R   0.712479 0.019712 0.196566 -0.141734
C19   C     C_R   0.616138 0.135128 0.149661 -0.149284
C20   C     C_R   0.501234 0.500104 0.742426 0.862206
C21   C     C_R   0.498766 0.499896 0.257574 0.862202
C22   C     C_3   0.404563 0.613393 0.966022 0.071137
C23   C     C_3   0.595437 0.386607 0.033977 0.071142
C24   C     C_3   0.566184 0.639124 0.040592 -0.257191
C25   C     C_3   0.433816 0.360876 0.959408 -0.257194
C26   C     C_3   0.497982 0.499342 0.122733 -0.006129
H1    H     H_    0.619712 0.752224 0.075834 0.140678
H2    H     H_    0.884992 0.844496 0.913890 0.137098
H3    H     H_    0.033826 0.062013 0.788574 0.136807
H4    H     H_    0.352385 0.076695 0.750807 0.131868
H5    H     H_    0.523005 0.871609 0.831159 0.112758
H6    H     H_    0.946975 0.357926 0.999571 0.114772
H7    H     H_    0.115008 0.155468 0.086038 0.137112
H8    H     H_    0.966193 0.937972 0.211388 0.136809
H9    H     H_    0.647643 0.923319 0.249208 0.131871
H10   H     H_    0.477016 0.128415 0.168878 0.112752
H11   H     H_    0.380289 0.247776 0.924166 0.140670
H12   H     H_    0.204283 0.453763 0.098370 0.142309
H13   H     H_    0.795715 0.546237 0.901627 0.142298
H14   H     H_    0.013985 0.382775 0.403835 0.195282
H15   H     H_    0.986015 0.617225 0.596165 0.195282
H16   H     H_    0.700775 0.009100 0.501890 0.184983
H17   H     H_    0.299224 0.990900 0.498114 0.184985
H18   H     H_    0.053015 0.642041 0.000372 0.114762
N1    N     N_2   0.950320 0.457950 0.465730 -0.176373
N2    N     N_2   0.049680 0.542050 0.534270 -0.176374
O1    O     O_R   0.389250 0.738570 0.508410 -0.601894
O2    O     O_R   0.610750 0.261430 0.491590 -0.601897
O3    O     O_R   0.678390 0.711620 0.486450 -0.636235
O4    O     O_R   0.321610 0.288380 0.513550 -0.636234
O5    O     O_R   0.355460 0.513510 0.697030 -0.612782
O6    O     O_R   0.644540 0.486490 0.302970 -0.612782
O7    O     O_R   0.644600 0.486560 0.675070 -0.634545
O8    O     O_R   0.355400 0.513440 0.324930 -0.634543
Zn1   Zn    Zn3+2 0.306940 0.517990 0.514670 0.939981
Zn2   Zn    Zn3+2 0.693060 0.482010 0.485330 0.939979

loop_
_geom_bond_atom_site_label_1
_geom_bond_atom_site_label_2
_ccdc_geom_bond_type
N2    Zn1   S    
C14   C23   S    
C2    C4    S    
H15   N2    S    
C4    H13   S    
C2    C22   S    
C16   H7    S    
C2    C25   S    
C7    C22   S    
C18   H9    S    
C12   O4    A    
O4    Zn1   S    
C24   H1    S    
C3    C25   S    
C12   O2    A    
C17   C18   A    
C9    H2    S    
C7    C8    A    
N1    N2    D    
C11   C13   A    
C10   H3    S    
C21   O8    A    
C1    C5    S    
C20   O7    A    
C9    C10   A    
C21   C26   S    
C24   C26   S    
C20   O5    A    
O5    Zn1   S    
C6    H17   S    
C23   C25   S    
C6    C12   S    
C5    C6    D    
C4    C24   S    
C22   C24   S    
C23   C26   S    
C17   H8    S    
C2    C20   S    
C15   C16   A    
O3    Zn2   S    
O6    Zn2   S    
C7    C13   A    
H14   N1    S    
C11   H4    S    
C5    H16   S    
O1    Zn1   S    
C18   C19   A    
C10   C11   A    
O7    Zn2   S    
O2    Zn2   S    
C4    C23   S    
C14   C15   A    
C8    C9    A    
C3    C22   S    
C25   H11   S    
C19   H10   S    
O8    Zn1   S    
C1    O3    A    
C14   C19   A    
C13   H5    S    
C21   O6    A    
C1    O1    A    
C8    H18   S    
N1    Zn2   S    
C3    H12   S    
C16   C17   A    
C3    C26   S    
C15   H6    S    
