data_mof_unit_51136.cif
_audit_creation_date              2012-12-10T18:43:48-0500
_audit_creation_method            fapswitch 2.2
_symmetry_space_group_name_H-M    P1
_symmetry_Int_Tables_number       1
_space_group_crystal_system       triclinic
_cell_length_a                    10.48529
_cell_length_b                    10.723573
_cell_length_c                    9.824189
_cell_angle_alpha                 89.988833
_cell_angle_beta                  101.803524
_cell_angle_gamma                 90.063578
_cell_volume                      1081.27130916

loop_
_atom_site_label
_atom_site_type_symbol
_atom_type_description
_atom_site_fract_x
_atom_site_fract_y
_atom_site_fract_z
_atom_type_partial_charge
C1    C     C_R   0.499891 0.259771 0.499938 0.875834
C2    C     C_R   0.500028 0.740196 0.500046 0.832039
C3    C     C_R   0.257873 0.509294 0.445025 0.932440
C4    C     C_R   0.742170 0.509313 0.555132 0.934429
C5    C     C_R   0.550658 0.598332 0.082965 -0.100337
C6    C     C_R   0.448008 0.402266 0.916717 -0.084714
C7    C     C_R   0.551114 0.598118 0.939150 -0.076054
C8    C     C_R   0.448242 0.402199 0.060709 -0.069712
C9    C     C_2   0.120259 0.540138 0.421362 -0.431708
C10   C     C_2   0.879976 0.540012 0.579862 -0.432972
C11   C     C_2   0.071408 0.614332 0.510186 0.109260
C12   C     C_2   0.929918 0.615185 0.492783 0.115947
C13   C     C_R   0.512013 0.063772 0.379083 -0.197898
C14   C     C_R   0.487791 0.936023 0.620871 -0.208977
C15   C     C_R   0.511921 0.936078 0.379088 -0.203561
C16   C     C_R   0.487505 0.063722 0.620778 -0.196595
C17   C     C_R   0.499938 0.872551 0.500011 -0.004038
C18   C     C_R   0.499778 0.127304 0.499927 -0.012903
H1    H     H_    0.590479 0.677181 0.146104 0.130708
H2    H     H_    0.406172 0.324257 0.853141 0.124596
H3    H     H_    0.943477 0.497950 0.669518 0.145882
H4    H     H_    0.056073 0.498739 0.331695 0.147147
H5    H     H_    0.592226 0.676489 0.893659 0.127393
H6    H     H_    0.406653 0.324085 0.106137 0.125407
H7    H     H_    0.521949 0.112251 0.285016 0.152152
H8    H     H_    0.478218 0.887468 0.715004 0.151433
H9    H     H_    0.521500 0.887577 0.284970 0.148488
H10   H     H_    0.477473 0.112159 0.714799 0.149763
N1    N     N_R   0.499970 0.499970 0.857200 -0.076464
N2    N     N_R   0.500030 0.500030 0.142800 -0.073708
O1    O     O_R   0.499990 0.316750 0.614620 -0.625177
O2    O     O_R   0.500010 0.683250 0.385380 -0.636146
O3    O     O_R   0.499990 0.316780 0.385290 -0.626936
O4    O     O_R   0.500010 0.683220 0.614710 -0.638036
O5    O     O_R   0.317810 0.500000 0.571850 -0.615129
O6    O     O_R   0.682190 0.500000 0.428150 -0.610048
O7    O     O_R   0.317810 0.500030 0.342520 -0.600726
O8    O     O_R   0.682190 0.499970 0.657480 -0.599983
Zn1   Zn    Zn3+2 0.500000 0.499980 0.653120 0.929191
Zn2   Zn    Zn3+2 0.500000 0.500020 0.346880 0.931764
C19   C     C_3   0.847303 0.683506 0.368959 -0.363772
C20   C     C_3   0.920413 0.786435 0.306745 -0.363745
C21   C     C_3   0.830947 0.851745 0.185692 -0.910328
H11   H     H_    0.794790 0.784266 0.100751 0.253917
H12   H     H_    0.746822 0.894593 0.220799 0.258899
H13   H     H_    0.885840 0.926478 0.144322 0.258381
H14   H     H_    0.958588 0.857056 0.387314 0.223109
H15   H     H_    0.003583 0.745993 0.267632 0.234788
H16   H     H_    0.810834 0.614427 0.285817 0.217396
H17   H     H_    0.763146 0.727633 0.402952 0.204035
C22   C     C_3   0.155570 0.683429 0.632788 -0.350070
C23   C     C_3   0.082275 0.781208 0.701866 -0.374680
C24   C     C_3   0.175022 0.850023 0.817716 -0.891765
H18   H     H_    0.224161 0.783155 0.897889 0.264813
H19   H     H_    0.249732 0.901577 0.774601 0.258288
H20   H     H_    0.119345 0.917994 0.867813 0.253077
H21   H     H_    0.035066 0.850507 0.623887 0.223601
H22   H     H_    0.005855 0.735205 0.747657 0.232342
H23   H     H_    0.198181 0.614704 0.714030 0.223706
H24   H     H_    0.235518 0.731893 0.595085 0.205960

loop_
_geom_bond_atom_site_label_1
_geom_bond_atom_site_label_2
_ccdc_geom_bond_type
C16   H10   S    
O5    Zn1   S    
C11   C12   S    
C4    O6    A    
C15   C17   A    
C12   C19   S    
C7    N1    A    
C6    H2    S    
C19   C20   S    
C15   H9    S    
C13   C15   A    
C3    O5    A    
C21   H11   S    
C8    N2    A    
N1    Zn1   S    
C24   H19   S    
C1    O3    A    
C21   H12   S    
C16   C18   A    
C20   H15   S    
C24   H18   S    
C14   H8    S    
C2    C17   S    
C3    C9    S    
C9    C11   D    
C14   C17   A    
C13   H7    S    
C1    C18   S    
C10   C12   D    
C13   C18   A    
C7    H5    S    
C19   H16   S    
C8    H6    S    
O1    Zn1   S    
C5    H1    S    
O7    Zn2   S    
C20   H14   S    
O2    Zn2   S    
C10   H3    S    
O8    Zn1   S    
C23   H22   S    
C21   H13   S    
C14   C16   A    
C9    H4    S    
O3    Zn2   S    
C11   C22   S    
C23   H21   S    
C4    C10   S    
C22   C23   S    
C19   H17   S    
C1    O1    A    
C6    N1    A    
C22   H23   S    
C23   C24   S    
C3    O7    A    
C2    O2    A    
C5    N2    A    
C20   C21   S    
C24   H20   S    
C5    C7    A    
N2    Zn2   S    
O6    Zn2   S    
C6    C8    A    
C22   H24   S    
C2    O4    A    
O4    Zn1   S    
C4    O8    A    
