data_mof_unit_10128.cif
_audit_creation_date              2012-12-10T16:57:18-0500
_audit_creation_method            fapswitch 2.2
_symmetry_space_group_name_H-M    P1
_symmetry_Int_Tables_number       1
_space_group_crystal_system       triclinic
_cell_length_a                    15.874333
_cell_length_b                    10.911225
_cell_length_c                    9.729512
_cell_angle_alpha                 89.958462
_cell_angle_beta                  89.72733
_cell_angle_gamma                 90.202601
_cell_volume                      1685.20330913

loop_
_atom_site_label
_atom_site_type_symbol
_atom_type_description
_atom_site_fract_x
_atom_site_fract_y
_atom_site_fract_z
_atom_type_partial_charge
C1    C     C_R   0.501247 0.265458 0.500062 0.838445
C2    C     C_2   0.494993 0.866638 0.502069 -0.311746
C3    C     C_2   0.499700 0.067103 0.386918 -0.163769
C4    C     C_R   0.340293 0.499169 0.500200 0.826426
C5    C     C_2   0.506133 0.133427 0.502230 -0.320733
C6    C     C_2   0.455402 0.423916 0.922235 -0.091224
C7    C     C_2   0.446624 0.438122 0.076143 -0.093477
C8    C     C_R   0.499168 0.734559 0.500035 0.849345
C9    C     C_R   0.659598 0.500139 0.499612 0.829405
C10   C     C_3   0.047358 0.479872 0.642765 -0.425024
C11   C     C_3   0.046584 0.370727 0.404816 0.065095
C12   C     C_3   0.950186 0.483518 0.644436 -0.391813
C13   C     C_3   0.946765 0.377516 0.418262 -0.455203
C14   C     C_1   0.749070 0.498795 0.498719 -0.159848
C15   C     C_3   0.082731 0.483092 0.492903 0.257673
C16   C     C_R   0.583192 0.518089 0.104935 0.333878
C17   C     C_R   0.617682 0.636721 0.107096 -0.161748
C18   C     C_R   0.702075 0.656068 0.070890 -0.176871
C19   C     C_R   0.752956 0.556959 0.034070 -0.112230
C20   C     C_R   0.719585 0.438254 0.033777 -0.161070
C21   C     C_R   0.635258 0.418465 0.070081 -0.126825
C22   C     C_R   0.079270 0.382606 0.253776 0.099135
C23   C     C_3   0.916680 0.494104 0.496207 0.263097
C24   C     C_R   0.162219 0.343894 0.221489 -0.122526
C25   C     C_R   0.194610 0.353396 0.088201 -0.127985
C26   C     C_R   0.146184 0.404204 0.984049 -0.111250
C27   C     C_R   0.064763 0.444195 0.012750 -0.153144
C28   C     C_R   0.031300 0.433175 0.145136 -0.172311
C29   C     C_R   0.071684 0.239491 0.452904 0.092786
C30   C     C_R   0.131808 0.213374 0.555938 -0.174520
C31   C     C_R   0.152149 0.092475 0.589707 -0.137968
C32   C     C_R   0.114643 0.994982 0.520461 -0.106717
C33   C     C_R   0.056919 0.017972 0.416390 -0.108879
C34   C     C_3   0.953963 0.610182 0.423991 -0.113350
C35   C     C_R   0.035781 0.138394 0.382746 -0.153643
C36   C     C_R   0.917159 0.731753 0.474541 0.134624
C37   C     C_R   0.856839 0.792384 0.393420 -0.174017
C38   C     C_R   0.822163 0.903694 0.436149 -0.138791
C39   C     C_R   0.847137 0.956327 0.560186 -0.103037
C40   C     C_R   0.906676 0.897548 0.641925 -0.128767
C41   C     C_R   0.941567 0.786158 0.599776 -0.155456
C42   C     C_3   0.051827 0.606347 0.429221 -0.421419
C43   C     C_1   0.824503 0.496968 0.497730 -0.088307
C44   C     C_1   0.175155 0.488740 0.496774 -0.120764
C45   C     C_1   0.250655 0.494292 0.499645 -0.189979
C46   C     C_2   0.503717 0.933064 0.387014 -0.162768
Cu1   Cu    Cu3+1 0.500020 0.500020 0.638630 0.941356
Cu2   Cu    Cu3+1 0.499980 0.499980 0.361370 0.938569
H1    H     H_    0.925573 0.398222 0.693417 0.165726
H2    H     H_    0.517127 0.580245 0.890466 0.210527
H3    H     H_    0.392948 0.394600 0.125197 0.142917
H4    H     H_    0.067527 0.397238 0.699134 0.168108
H5    H     H_    0.922186 0.297638 0.477956 0.168089
H6    H     H_    0.913620 0.366872 0.319266 0.143504
H7    H     H_    0.077700 0.684331 0.489289 0.160574
H8    H     H_    0.077968 0.619278 0.323963 0.168145
H9    H     H_    0.579059 0.713957 0.136607 0.125849
H10   H     H_    0.728166 0.747843 0.072192 0.126339
H11   H     H_    0.818357 0.572029 0.006631 0.114512
H12   H     H_    0.072176 0.559562 0.701509 0.163892
H13   H     H_    0.759284 0.361441 0.006647 0.124613
H14   H     H_    0.610599 0.325829 0.072547 0.115100
H15   H     H_    0.202389 0.304903 0.299534 0.134252
H16   H     H_    0.257486 0.321164 0.065624 0.108218
H17   H     H_    0.171993 0.412790 0.881334 0.118700
H18   H     H_    0.027018 0.484582 0.932572 0.124323
H19   H     H_    0.968462 0.467268 0.158883 0.111817
H20   H     H_    0.165328 0.283540 0.610613 0.127287
H21   H     H_    0.197963 0.074427 0.669184 0.126019
H22   H     H_    0.130875 0.901637 0.546737 0.114599
H23   H     H_    0.927197 0.559762 0.709792 0.165663
H24   H     H_    0.028501 0.942356 0.361360 0.137378
H25   H     H_    0.991234 0.153151 0.300469 0.125856
H26   H     H_    0.836164 0.753274 0.296977 0.118070
H27   H     H_    0.775868 0.949185 0.372874 0.127155
H28   H     H_    0.820509 0.042801 0.592817 0.117988
H29   H     H_    0.926373 0.938812 0.737708 0.124739
H30   H     H_    0.988571 0.744454 0.664450 0.116054
H31   H     H_    0.936508 0.602894 0.314094 0.113079
H32   H     H_    0.512603 0.888385 0.288301 0.157089
H33   H     H_    0.482677 0.907679 0.601289 0.143644
H34   H     H_    0.492401 0.111871 0.287921 0.162074
H35   H     H_    0.517121 0.092353 0.601742 0.144655
H36   H     H_    0.421515 0.349656 0.872924 0.149320
N1    N     N_2   0.499090 0.498660 0.846910 -0.274537
N2    N     N_2   0.499070 0.498630 0.153040 -0.221751
O1    O     O_R   0.500010 0.321960 0.617040 -0.582782
O2    O     O_R   0.499990 0.321920 0.382900 -0.585009
O3    O     O_R   0.379450 0.500030 0.617120 -0.573933
O4    O     O_R   0.379420 0.499980 0.382980 -0.574327
O5    O     O_R   0.500010 0.678080 0.617100 -0.584836
O6    O     O_R   0.499990 0.678040 0.382960 -0.583129
O7    O     O_R   0.620580 0.500020 0.617020 -0.562516
O8    O     O_R   0.620550 0.499970 0.382880 -0.575707

loop_
_geom_bond_atom_site_label_1
_geom_bond_atom_site_label_2
_ccdc_geom_bond_type
C1    O1    A    
C37   H26   S    
C16   C21   A    
C19   C20   A    
C34   C42   S    
C10   H4    S    
C12   H1    S    
C2    C46   D    
C12   C23   S    
C26   C27   A    
C37   C38   A    
C6    N1    D    
Cu2   O8    S    
C1    C5    S    
Cu1   N1    S    
C36   C37   A    
C15   C44   S    
C4    O3    A    
C10   C15   S    
C30   C31   A    
C34   H31   S    
C7    N2    D    
C23   C43   S    
C13   C23   S    
C18   C19   A    
C20   H13   S    
H2    N1    S    
C42   H8    S    
C11   C15   S    
C18   H10   S    
C31   C32   A    
C16   C17   A    
Cu2   O2    S    
C8    O6    A    
C4    O4    A    
C33   H24   S    
C38   H27   S    
C1    O2    A    
C22   C28   A    
C16   N2    S    
Cu1   O3    S    
C36   C41   A    
C13   H5    S    
C4    C45   S    
C6    H36   S    
C28   H19   S    
C24   C25   A    
C41   H30   S    
C32   H22   S    
C19   H11   S    
C25   C26   A    
C25   H16   S    
Cu1   O1    S    
C10   H12   S    
C9    C14   S    
C29   C30   A    
C42   H7    S    
Cu1   Cu2   S    
C23   C34   S    
C3    H34   S    
C17   C18   A    
Cu1   O7    S    
C8    O5    A    
C39   H28   S    
C21   H14   S    
C10   C12   S    
C40   C41   A    
C12   H23   S    
C24   H15   S    
C22   C24   A    
C9    O7    A    
C39   C40   A    
C44   C45   T    
C13   H6    S    
C35   H25   S    
C3    C46   S    
C26   H17   S    
Cu1   O5    S    
C2    C8    S    
C15   C42   S    
C3    C5    D    
C6    C7    S    
C29   C35   A    
C11   C22   S    
C32   C33   A    
C7    H3    S    
C27   H18   S    
C46   H32   S    
C11   C13   S    
C38   C39   A    
C5    H35   S    
C33   C35   A    
C34   C36   S    
Cu2   N2    S    
C31   H21   S    
C20   C21   A    
C11   C29   S    
Cu2   O6    S    
C27   C28   A    
C40   H29   S    
C2    H33   S    
Cu2   O4    S    
C9    O8    A    
C30   H20   S    
C17   H9    S    
C14   C43   T    
