data_mof_unit_11431.cif
_audit_creation_date              2012-12-10T17:18:52-0500
_audit_creation_method            fapswitch 2.2
_symmetry_space_group_name_H-M    P1
_symmetry_Int_Tables_number       1
_space_group_crystal_system       triclinic
_cell_length_a                    9.607768
_cell_length_b                    10.91108
_cell_length_c                    13.488568
_cell_angle_alpha                 93.32116
_cell_angle_beta                  72.14188
_cell_angle_gamma                 88.303081
_cell_volume                      1341.96086744

loop_
_atom_site_label
_atom_site_type_symbol
_atom_type_description
_atom_site_fract_x
_atom_site_fract_y
_atom_site_fract_z
_atom_type_partial_charge
C1    C     C_R   0.498440 0.737801 0.496846 0.831245
C2    C     C_R   0.447523 0.514622 0.974983 0.028892
C3    C     C_R   0.476783 0.467540 0.869466 0.065156
C4    C     C_R   0.551844 0.486321 0.027416 0.066762
C5    C     C_R   0.688132 0.425189 0.971565 0.176170
C6    C     C_R   0.712420 0.378079 0.869242 -0.204452
C7    C     C_R   0.606326 0.394771 0.820470 -0.183315
C8    C     C_R   0.519222 0.504968 0.135839 -0.237117
C9    C     C_R   0.764798 0.437346 0.127238 -0.213172
C10   C     C_R   0.373504 0.491316 0.815980 -0.170300
C11   C     C_R   0.225958 0.899730 0.512116 -0.141222
C12   C     C_R   0.421245 0.493009 0.699995 0.787725
C13   C     C_R   0.093891 0.966473 0.559802 -0.105430
C14   C     C_R   0.093574 0.081379 0.609961 -0.100797
C15   C     C_R   0.225530 0.135535 0.601347 -0.148641
C16   C     C_R   0.360348 0.072038 0.546690 0.084770
C17   C     C_R   0.360016 0.945847 0.517172 0.098943
C18   C     C_R   0.492727 0.872793 0.496271 -0.132578
C19   C     C_R   0.622949 0.930404 0.489939 -0.248836
C20   C     C_R   0.626101 0.056969 0.500815 -0.030789
C21   C     C_R   0.495248 0.130225 0.522603 -0.167060
C22   C     C_R   0.922823 0.343501 0.353858 -0.123436
C23   C     C_R   0.498138 0.263480 0.508961 0.760399
C24   C     C_R   0.028104 0.267264 0.280950 -0.195027
C25   C     C_R   0.171069 0.263991 0.282479 -0.185881
C26   C     C_R   0.209982 0.337891 0.356114 -0.122573
C27   C     C_R   0.107492 0.420811 0.429179 0.195422
C28   C     C_R   0.958284 0.422349 0.428435 0.215605
C29   C     C_R   0.894299 0.576313 0.566437 -0.082465
C30   C     C_R   0.042314 0.577684 0.565697 0.036845
C31   C     C_R   0.578887 0.496729 0.300056 0.784569
C32   C     C_R   0.794802 0.404240 0.021198 -0.177333
C33   C     C_R   0.624499 0.483551 0.185753 -0.048478
C34   C     C_R   0.229507 0.530656 0.875914 -0.027413
C35   C     C_R   0.203173 0.583618 0.976477 -0.219970
C36   C     C_R   0.315019 0.587655 0.021937 -0.026539
Cu1   Cu    Cu3+1 0.359340 0.500010 0.500010 0.947412
Cu2   Cu    Cu3+1 0.640660 0.499990 0.499990 0.942106
H1    H     H_    0.847344 0.418375 0.164514 0.153188
H2    H     H_    0.219574 0.814021 0.470425 0.167161
H3    H     H_    0.991546 0.927528 0.559776 0.132602
H4    H     H_    0.991174 0.130675 0.652263 0.143801
H5    H     H_    0.221046 0.225787 0.640250 0.155045
H6    H     H_    0.812566 0.638643 0.620686 0.148042
H7    H     H_    0.814103 0.333190 0.351781 0.192164
H8    H     H_    0.997415 0.207717 0.224862 0.149649
H9    H     H_    0.252404 0.202501 0.227005 0.155740
H10   H     H_    0.811465 0.323296 0.828042 0.151504
H11   H     H_    0.408506 0.526870 0.184049 0.172852
H12   H     H_    0.096364 0.627205 0.017799 0.156865
H13   H     H_    0.625663 0.346648 0.744748 0.169290
H14   H     H_    0.724614 0.876380 0.476213 0.168300
N1    N     N_R   0.852480 0.498790 0.499000 -0.207710
N2    N     N_R   0.148360 0.498710 0.498970 -0.226946
O1    O     O_R   0.381190 0.680360 0.500010 -0.587169
O2    O     O_R   0.618760 0.680340 0.500000 -0.579854
O3    O     O_R   0.323240 0.499990 0.650990 -0.566276
O4    O     O_R   0.560820 0.499960 0.650980 -0.575291
O5    O     O_R   0.381240 0.319660 0.500000 -0.602800
O6    O     O_R   0.618810 0.319640 0.499990 -0.592691
O7    O     O_R   0.439180 0.500040 0.349020 -0.603869
O8    O     O_R   0.676760 0.500010 0.349010 -0.599898
C37   C     C_1   0.764979 0.106243 0.496482 0.247866
N3    N     N_1   0.876709 0.144448 0.494006 -0.297338
H15   H     H_    0.321783 0.325779 0.351978 0.196183
C38   C     C_1   0.079556 0.664946 0.636251 0.308751
N4    N     N_1   0.108445 0.735129 0.693733 -0.287784
H16   H     H_    0.899737 0.358760 0.978786 0.141095
C39   C     C_1   0.106139 0.516373 0.837806 0.276716
N5    N     N_1   0.006347 0.503398 0.808191 -0.314053
C40   C     C_1   0.293157 0.677446 0.109197 0.217627
N6    N     N_1   0.275175 0.749722 0.178824 -0.291955

loop_
_geom_bond_atom_site_label_1
_geom_bond_atom_site_label_2
_ccdc_geom_bond_type
C2    C4    A    
C28   N1    A    
C31   C33   S    
C16   C21   A    
Cu1   O3    S    
Cu1   Cu2   S    
C2    C3    A    
C11   C13   A    
C31   O7    A    
Cu1   O7    S    
C19   C20   A    
C31   O8    A    
C36   C40   S    
C4    C8    A    
C14   H4    S    
C5    C32   A    
C12   O4    A    
C20   C37   S    
C13   H3    S    
C17   C18   A    
C1    C18   S    
C27   N2    A    
C15   H5    S    
C40   N6    T    
C10   C34   A    
C3    C10   A    
Cu1   O5    S    
C13   C14   A    
C20   C21   A    
C32   H16   S    
C23   O5    A    
C5    C6    A    
C30   N2    A    
C34   C39   S    
C26   C27   A    
C29   C30   A    
Cu2   N1    S    
C6    H10   S    
C9    C33   A    
Cu2   O6    S    
Cu1   N2    S    
C10   C12   S    
C39   N5    T    
C30   C38   S    
C1    O2    A    
C38   N4    T    
C6    C7    A    
C3    C7    A    
C8    C33   A    
C21   C23   S    
C29   H6    S    
C1    O1    A    
C23   O6    A    
C22   C24   A    
C8    H11   S    
C35   H12   S    
C12   O3    A    
C7    H13   S    
C11   H2    S    
Cu1   O1    S    
C9    H1    S    
C22   H7    S    
Cu2   O2    S    
C24   C25   A    
C34   C35   A    
C2    C36   A    
C27   C28   A    
C18   C19   A    
C25   H9    S    
C14   C15   A    
C4    C5    A    
C22   C28   A    
C9    C32   A    
C24   H8    S    
C25   C26   A    
Cu2   O4    S    
C26   H15   S    
C19   H14   S    
C11   C17   A    
C15   C16   A    
C16   C17   A    
Cu2   O8    S    
C37   N3    T    
C29   N1    A    
C35   C36   A    
