data_mof_unit_16563.cif
_audit_creation_date              2012-12-11T14:04:09-0500
_audit_creation_method            fapswitch 2.2
_symmetry_space_group_name_H-M    P1
_symmetry_Int_Tables_number       1
_space_group_crystal_system       triclinic
_cell_length_a                    18.85755
_cell_length_b                    10.990828
_cell_length_c                    19.113583
_cell_angle_alpha                 89.973062
_cell_angle_beta                  90.808491
_cell_angle_gamma                 89.915201
_cell_volume                      3961.08369934

loop_
_atom_site_label
_atom_site_type_symbol
_atom_type_description
_atom_site_fract_x
_atom_site_fract_y
_atom_site_fract_z
_atom_type_partial_charge
C1    C     C_R   0.223466 0.521848 0.639564 0.600558
C2    C     C_R   0.777114 0.524527 0.359961 0.577822
C3    C     C_R   0.724040 0.019134 0.639416 0.599186
C4    C     C_R   0.277190 0.023975 0.360005 0.583885
C5    C     C_2   0.295556 0.877856 0.540119 -0.144461
C6    C     C_2   0.709517 0.861659 0.461696 -0.113439
C7    C     C_2   0.786932 0.366133 0.535920 -0.147550
C8    C     C_2   0.204752 0.374487 0.459007 -0.120453
C9    C     C_R   0.979241 0.635374 0.430223 -0.003135
C10   C     C_R   0.999635 0.646630 0.573904 -0.006989
C11   C     C_R   0.507224 0.137211 0.422239 0.002896
C12   C     C_R   0.509749 0.147601 0.568690 -0.013649
C13   C     C_R   0.041181 0.838554 0.425844 0.280025
C14   C     C_R   0.994384 0.873923 0.562539 0.278824
C15   C     C_R   0.556873 0.345619 0.420659 0.272033
C16   C     C_R   0.505879 0.374944 0.556643 0.273722
C17   C     C_R   0.048522 0.952087 0.458020 -0.112300
C18   C     C_R   0.022418 0.970788 0.524816 -0.067394
C19   C     C_R   0.561303 0.458226 0.453924 -0.093956
C20   C     C_R   0.534165 0.473436 0.520575 -0.058324
C21   C     C_R   0.997109 0.754221 0.533917 -0.055794
C22   C     C_R   0.006790 0.741775 0.462233 -0.037425
C23   C     C_R   0.512219 0.255523 0.528234 -0.054843
C24   C     C_R   0.526849 0.244923 0.456612 -0.033804
C25   C     C_R   0.990858 0.528129 0.540198 0.001606
C26   C     C_R   0.971595 0.520917 0.469193 -0.022284
C27   C     C_R   0.505226 0.029623 0.534106 -0.006694
C28   C     C_R   0.500411 0.022348 0.460736 -0.008212
C29   C     C_R   0.002844 0.414173 0.574813 0.209727
C30   C     C_R   0.951389 0.396822 0.443762 0.211369
C31   C     C_R   0.509067 0.915381 0.570125 0.204596
C32   C     C_R   0.490932 0.898408 0.431250 0.240515
C33   C     C_R   0.958606 0.317238 0.560437 0.217936
C34   C     C_R   0.942250 0.299797 0.491594 0.262034
C35   C     C_R   0.467680 0.819266 0.546194 0.209901
C36   C     C_R   0.465995 0.802316 0.474969 0.267736
C37   C     C_2   0.258649 0.939322 0.913581 0.236254
C38   C     C_2   0.745727 0.923105 0.080429 0.239513
C39   C     C_2   0.757773 0.433813 0.915232 0.240480
C40   C     C_2   0.245366 0.425059 0.080886 0.242426
C41   C     C_2   0.273627 0.990659 0.067938 -0.069761
C42   C     C_2   0.723675 0.012447 0.932013 -0.059326
C43   C     C_2   0.777653 0.507084 0.068302 -0.082336
C44   C     C_2   0.223576 0.513588 0.932149 -0.062180
C45   C     C_R   0.225682 0.873185 0.647077 0.533073
C46   C     C_R   0.773115 0.875194 0.351627 0.528304
C47   C     C_R   0.726248 0.374359 0.647666 0.534583
C48   C     C_R   0.272549 0.376852 0.350984 0.527467
C49   C     C_2   0.226777 0.045217 0.025120 -0.125461
C50   C     C_2   0.784369 0.017419 0.969196 -0.124913
C51   C     C_2   0.721847 0.536969 0.027646 -0.125349
C52   C     C_2   0.284510 0.520706 0.969578 -0.130115
C53   C     C_2   0.213403 0.004397 0.953084 -0.069682
C54   C     C_2   0.789335 0.996509 0.044480 -0.084752
C55   C     C_2   0.713151 0.502485 0.953637 -0.069406
C56   C     C_2   0.289555 0.498439 0.044854 -0.087753
C57   C     C_2   0.003720 0.654006 0.922316 -0.061133
C58   C     C_2   0.997174 0.654122 0.078036 -0.067861
C59   C     C_2   0.502486 0.154779 0.921673 -0.053994
C60   C     C_2   0.496181 0.154607 0.077815 -0.064920
C61   C     C_2   0.987630 0.556912 0.035624 0.208463
C62   C     C_2   0.014911 0.557360 0.964894 0.202357
C63   C     C_2   0.483780 0.059495 0.034631 0.218883
C64   C     C_2   0.512926 0.058756 0.964725 0.202441
C65   C     C_R   0.029300 0.652216 0.645339 0.544002
C66   C     C_R   0.947301 0.647985 0.361515 0.527338
C67   C     C_R   0.531530 0.152328 0.643520 0.544675
C68   C     C_R   0.472450 0.150395 0.353310 0.542394
C69   C     C_R   0.223459 0.524326 0.856447 0.564784
C70   C     C_R   0.776658 0.523599 0.143363 0.560831
C71   C     C_R   0.723481 0.024117 0.856470 0.563100
C72   C     C_R   0.275707 0.019555 0.142171 0.561845
C73   C     C_R   0.228862 0.876608 0.851624 0.534972
C74   C     C_R   0.771370 0.874495 0.147484 0.546327
C75   C     C_R   0.728885 0.375786 0.851849 0.536945
C76   C     C_R   0.271427 0.374653 0.147557 0.545460
C77   C     C_R   0.031852 0.651265 0.852004 0.565338
C78   C     C_R   0.968289 0.651241 0.148062 0.577328
C79   C     C_R   0.531683 0.151374 0.851871 0.567147
C80   C     C_R   0.468062 0.151342 0.148018 0.577932
C81   C     C_2   0.241240 0.918174 0.577533 -0.084503
C82   C     C_2   0.755138 0.919927 0.420210 -0.083308
C83   C     C_2   0.741354 0.419862 0.578238 -0.090237
C84   C     C_2   0.253133 0.427075 0.418143 -0.084190
C85   C     C_2   0.279614 0.005271 0.435936 0.252754
C86   C     C_2   0.722672 0.994165 0.563984 0.307993
C87   C     C_2   0.778459 0.502538 0.435180 0.251136
C88   C     C_2   0.222077 0.502012 0.563603 0.302567
C89   C     C_2   0.293833 0.894318 0.463388 0.271088
C90   C     C_2   0.713741 0.880579 0.538224 0.315495
C91   C     C_2   0.781061 0.387783 0.459732 0.297269
C92   C     C_2   0.209816 0.390775 0.535766 0.314945
Cr1   Cr    Cr6+3 0.113970 0.508630 0.747920 1.088638
Cr2   Cr    Cr6+3 0.886030 0.508630 0.252080 1.108954
Cr3   Cr    Cr6+3 0.613970 0.008630 0.747920 1.090838
Cr4   Cr    Cr6+3 0.386030 0.008630 0.252080 1.123668
Cr5   Cr    Cr6+3 0.269200 0.666740 0.749850 1.040238
Cr6   Cr    Cr6+3 0.730800 0.666740 0.250150 1.034509
Cr7   Cr    Cr6+3 0.769200 0.166740 0.749850 1.049706
Cr8   Cr    Cr6+3 0.230800 0.166740 0.250150 1.030426
Cr9   Cr    Cr6+3 0.112300 0.820070 0.749800 1.063039
Cr10  Cr    Cr6+3 0.887700 0.820070 0.250200 1.053805
Cr11  Cr    Cr6+3 0.612300 0.320070 0.749800 1.061973
Cr12  Cr    Cr6+3 0.387700 0.320070 0.250200 1.059844
H1    H     H_    0.309830 0.921372 0.049752 0.202891
H2    H     H_    0.672925 0.006634 0.956843 0.199655
H3    H     H_    0.826214 0.470191 0.048375 0.219656
H4    H     H_    0.172425 0.506500 0.956648 0.200459
O1    O     O_R   0.043230 0.549300 0.667990 -0.486640
O2    O     O_R   0.956770 0.549300 0.332010 -0.471139
O3    O     O_R   0.543230 0.049300 0.667990 -0.483602
O4    O     O_R   0.456770 0.049300 0.332010 -0.459196
O5    O     O_R   0.262920 0.788600 0.824420 -0.528539
O6    O     O_R   0.737080 0.788600 0.175580 -0.523519
O7    O     O_R   0.762920 0.288600 0.824420 -0.528000
O8    O     O_R   0.237080 0.288600 0.175580 -0.526001
O9    O     O_R   0.167530 0.905110 0.830340 -0.525870
O10   O     O_R   0.832470 0.905110 0.169660 -0.526834
O11   O     O_R   0.667530 0.405110 0.830340 -0.528180
O12   O     O_R   0.332470 0.405110 0.169660 -0.527636
O13   O     O_R   0.054010 0.748440 0.822860 -0.510554
O14   O     O_R   0.945990 0.748440 0.177140 -0.502250
O15   O     O_R   0.554010 0.248440 0.822860 -0.510922
O16   O     O_R   0.445990 0.248440 0.177140 -0.506733
O17   O     O_3   0.165160 0.665150 0.749190 -0.331483
O18   O     O_3   0.834840 0.665150 0.250810 -0.345732
O19   O     O_3   0.665160 0.165150 0.749190 -0.331910
O20   O     O_3   0.334840 0.165150 0.250810 -0.330639
O21   O     O_R   0.178620 0.457600 0.674100 -0.422208
O22   O     O_R   0.821380 0.457600 0.325900 -0.398924
O23   O     O_R   0.678620 0.957600 0.674100 -0.421822
O24   O     O_R   0.321380 0.957600 0.325900 -0.434672
O25   O     O_R   0.284680 0.542100 0.669460 -0.484346
O26   O     O_R   0.715320 0.542100 0.330540 -0.484379
O27   O     O_R   0.784680 0.042100 0.669460 -0.477861
O28   O     O_R   0.215320 0.042100 0.330540 -0.485425
O29   O     O_R   0.262860 0.790390 0.676650 -0.523862
O30   O     O_R   0.737140 0.790390 0.323350 -0.527413
O31   O     O_R   0.762860 0.290390 0.676650 -0.515567
O32   O     O_R   0.237140 0.290390 0.323350 -0.531244
O33   O     O_R   0.167460 0.907030 0.670940 -0.489845
O34   O     O_R   0.832540 0.907030 0.329060 -0.501208
O35   O     O_R   0.667460 0.407030 0.670940 -0.493236
O36   O     O_R   0.332540 0.407030 0.329060 -0.490766
O37   O     O_R   0.053950 0.750220 0.675100 -0.468334
O38   O     O_R   0.946050 0.750220 0.324900 -0.466817
O39   O     O_R   0.553950 0.250220 0.675100 -0.465512
O40   O     O_R   0.446050 0.250220 0.324900 -0.475178
O41   O     O_R   0.043300 0.547370 0.827390 -0.449263
O42   O     O_R   0.956700 0.547370 0.172610 -0.442911
O43   O     O_R   0.543300 0.047370 0.827390 -0.448550
O44   O     O_R   0.456700 0.047370 0.172610 -0.440173
O45   O     O_R   0.178690 0.455820 0.821860 -0.457794
O46   O     O_R   0.821310 0.455820 0.178140 -0.463534
O47   O     O_R   0.678690 0.955820 0.821860 -0.458804
O48   O     O_R   0.321310 0.955820 0.178140 -0.466489
O49   O     O_R   0.284750 0.540170 0.828860 -0.506374
O50   O     O_R   0.715250 0.540170 0.171140 -0.497317
O51   O     O_R   0.784750 0.040170 0.828860 -0.507191
O52   O     O_R   0.215250 0.040170 0.171140 -0.501298
O53   O     O_3   0.303755 0.795062 0.420010 -0.651460
H5    H     H_    0.312673 0.722186 0.449410 0.370308
O54   O     O_3   0.710071 0.782288 0.583310 -0.666039
H6    H     H_    0.696608 0.709483 0.555512 0.337098
O55   O     O_3   0.779010 0.291225 0.413542 -0.633847
H7    H     H_    0.786792 0.214719 0.439979 0.370885
O56   O     O_3   0.204682 0.290634 0.579502 -0.663456
H8    H     H_    0.187598 0.220647 0.551315 0.341670
H9    H     H_    0.159486 0.021417 0.934551 0.123248
H10   H     H_    0.838615 0.028013 0.068399 0.124510
H11   H     H_    0.660570 0.524061 0.932812 0.123201
H12   H     H_    0.339544 0.528578 0.068448 0.121647
O57   O     O_3   0.329603 0.930564 0.931039 -0.732866
H13   H     H_    0.354429 0.883846 0.894426 0.342316
O58   O     O_3   0.684424 0.877386 0.049659 -0.738827
H14   H     H_    0.655591 0.836435 0.085571 0.338741
O59   O     O_3   0.827173 0.410487 0.936841 -0.742644
H15   H     H_    0.852384 0.365570 0.899716 0.345332
O60   O     O_3   0.182954 0.382003 0.051039 -0.742993
H16   H     H_    0.154225 0.340505 0.087088 0.337620
O61   O     O_3   0.955411 0.451504 0.059286 -0.680256
H17   H     H_    0.946080 0.396041 0.019296 0.352486
O62   O     O_3   0.048477 0.452963 0.941270 -0.676917
H18   H     H_    0.059268 0.398554 0.981446 0.352859
O63   O     O_3   0.446650 0.957803 0.056732 -0.672617
H19   H     H_    0.440417 0.900478 0.017078 0.351980
O64   O     O_3   0.547615 0.954613 0.942495 -0.678806
H20   H     H_    0.556652 0.900329 0.983132 0.348644
H21   H     H_    0.021975 0.737045 0.059459 0.044407
H22   H     H_    0.977964 0.736232 0.940840 0.049096
H23   H     H_    0.523572 0.235742 0.060050 0.042728
H24   H     H_    0.476253 0.237032 0.939529 0.052296
H25   H     H_    0.332176 0.812651 0.563102 0.170928
H26   H     H_    0.677967 0.786468 0.441365 0.119727
H27   H     H_    0.819102 0.291910 0.555752 0.181601
H28   H     H_    0.171565 0.301452 0.438474 0.121625
O65   O     O_3   0.277019 0.105188 0.479766 -0.770551
H29   H     H_    0.281768 0.178775 0.450492 0.306568
O66   O     O_3   0.715374 0.091275 0.519025 -0.767326
H30   H     H_    0.725213 0.166055 0.547110 0.298045
O67   O     O_3   0.789236 0.598970 0.480671 -0.779422
H31   H     H_    0.798727 0.672287 0.452234 0.296483
O68   O     O_3   0.221557 0.602450 0.519863 -0.758429
H32   H     H_    0.234184 0.675512 0.549460 0.302962
H33   H     H_    0.198716 0.969285 0.551506 0.152625
H34   H     H_    0.791861 0.985951 0.442365 0.176258
H35   H     H_    0.702175 0.482338 0.555834 0.142619
H36   H     H_    0.290968 0.491532 0.440299 0.183074
H37   H     H_    0.073799 0.026577 0.430888 0.145617
H38   H     H_    0.024952 0.060660 0.547629 0.203443
H39   H     H_    0.584357 0.535167 0.427243 0.149656
H40   H     H_    0.534408 0.562804 0.544034 0.208383
O69   O     O_3   0.073798 0.823145 0.362277 -0.640928
H41   H     H_    0.082490 0.735186 0.355108 0.343981
O70   O     O_3   0.960985 0.900688 0.624498 -0.627740
H42   H     H_    0.929512 0.831768 0.636371 0.333031
O71   O     O_3   0.586352 0.335875 0.355154 -0.645474
H43   H     H_    0.598881 0.249596 0.346635 0.337628
O72   O     O_3   0.467818 0.400486 0.616068 -0.631911
H44   H     H_    0.434984 0.331922 0.624776 0.333564
O73   O     O_3   0.937706 0.363649 0.375935 -0.620437
H45   H     H_    0.977371 0.310104 0.361253 0.298906
O74   O     O_3   0.071322 0.385020 0.594788 -0.652651
H46   H     H_    0.072723 0.303647 0.617396 0.348004
O75   O     O_3   0.512367 0.867613 0.363726 -0.650021
H47   H     H_    0.544545 0.793446 0.368480 0.299861
O76   O     O_3   0.574357 0.882329 0.598185 -0.644284
H48   H     H_    0.571357 0.801580 0.621099 0.346257
O77   O     O_3   0.949171 0.223441 0.607406 -0.657830
H49   H     H_    0.960254 0.254635 0.655098 0.318561
O78   O     O_3   0.918116 0.185593 0.472520 -0.670918
H50   H     H_    0.932448 0.166638 0.423491 0.334054
O79   O     O_3   0.450257 0.723908 0.590163 -0.667017
H51   H     H_    0.453946 0.753287 0.639540 0.317432
O80   O     O_3   0.447264 0.687492 0.450979 -0.676452
H52   H     H_    0.450616 0.681729 0.398990 0.345796
H53   H     H_    0.188823 0.109897 0.046367 0.154974
H54   H     H_    0.834658 0.033109 0.943588 0.151470
H55   H     H_    0.675287 0.578548 0.051123 0.152741
H56   H     H_    0.335219 0.537973 0.944129 0.150176

loop_
_geom_bond_atom_site_label_1
_geom_bond_atom_site_label_2
_ccdc_geom_bond_type
C43   H3    S    
C7    C83   D    
O68   H32   S    
O55   H7    S    
C72   O48   A    
C31   O76   S    
O67   H31   S    
C14   C18   A    
Cr1   O41   S    
O54   H6    S    
Cr8   O8    S    
Cr5   O25   S    
O62   H18   S    
Cr3   O47   S    
Cr11  O15   S    
O53   H5    S    
C38   O58   S    
Cr11  O39   S    
C57   C62   D    
C46   O34   A    
Cr3   O19   S    
O69   H41   S    
C36   O80   S    
C15   C19   A    
Cr4   O4    S    
C12   C23   A    
Cr9   O37   S    
C59   C64   D    
Cr2   O22   S    
C41   H1    S    
Cr6   O30   S    
C60   C63   D    
C6    C82   D    
C32   C36   A    
C14   C21   A    
C81   H33   S    
C18   H38   S    
C87   C91   D    
Cr7   O7    S    
Cr1   O21   S    
C9    C22   A    
Cr6   O6    S    
C75   O7    A    
Cr2   O18   S    
C13   O69   S    
C74   O6    A    
C29   C33   A    
C11   C24   A    
C19   H39   S    
C73   O5    A    
C45   O33   A    
Cr4   O20   S    
C16   O72   S    
C17   C18   A    
C68   O4    A    
Cr5   O29   S    
C54   H10   S    
C9    C66   S    
C83   H35   S    
Cr8   O32   S    
C76   O8    A    
C62   O62   S    
C46   C82   S    
Cr9   O33   S    
C41   C49   D    
C39   C55   D    
C88   C92   D    
Cr5   O5    S    
C63   O63   S    
O72   H44   S    
C14   O70   S    
C69   O49   A    
O80   H52   S    
Cr12  O36   S    
C8    C92   S    
C39   C75   S    
C15   O71   S    
Cr11  O19   S    
O79   H51   S    
C5    H25   S    
C51   C55   S    
C68   O40   A    
C53   H9    S    
C86   O66   S    
C4    O28   A    
C37   C53   D    
C44   C52   D    
C1    C88   S    
C89   O53   S    
C1    O21   A    
C7    C91   S    
O66   H30   S    
C8    C84   D    
C21   C22   A    
C56   H12   S    
C3    C86   S    
Cr3   O23   S    
Cr7   O31   S    
C59   H24   S    
C61   C62   S    
C58   C78   S    
C33   O77   S    
C55   H11   S    
C39   O59   S    
C6    H26   S    
C9    C26   A    
O75   H47   S    
C30   O73   S    
C44   H4    S    
C10   C21   A    
C25   C29   A    
C74   O10   A    
C12   C67   S    
C45   C81   S    
C1    O25   A    
C73   O9    A    
C30   C34   A    
C12   C27   A    
C27   C31   A    
O57   H13   S    
Cr6   O50   S    
C50   H54   S    
C75   O11   A    
O74   H46   S    
Cr5   O17   S    
C70   O46   A    
C86   C90   D    
C59   C79   S    
O56   H8    S    
C77   O13   A    
C48   O32   A    
Cr7   O19   S    
C4    C85   S    
C48   O36   A    
C40   C56   D    
C25   C26   A    
O61   H17   S    
C79   O15   A    
Cr2   O2    S    
Cr9   O13   S    
C40   C76   S    
Cr11  O35   S    
C70   O50   A    
C35   C36   A    
Cr5   O49   S    
O70   H42   S    
O73   H45   S    
C57   C77   S    
C40   O60   S    
C5    C81   D    
C84   H36   S    
Cr9   O17   S    
O76   H48   S    
C38   C54   D    
C69   O45   A    
C28   C32   A    
C16   C20   A    
C71   O47   A    
C58   H21   S    
C45   O29   A    
Cr7   O51   S    
Cr7   O27   S    
C44   C69   S    
C76   O12   A    
C66   O2    A    
C42   H2    S    
C34   O78   S    
C65   O1    A    
C42   C50   D    
C41   C72   S    
C35   O79   S    
C10   C25   A    
C67   O3    A    
C15   C24   A    
O78   H50   S    
C26   C30   A    
C43   C70   S    
C47   C83   S    
C67   O39   A    
C3    O23   A    
Cr3   O43   S    
C49   H53   S    
C7    H27   S    
C82   H34   S    
C2    C87   S    
C11   C68   S    
C78   O42   A    
C79   O43   A    
C38   C74   S    
C10   C65   S    
C85   O65   S    
C29   O74   S    
C37   C73   S    
C60   C80   S    
C85   C89   D    
Cr8   O20   S    
C61   O61   S    
C91   O55   S    
Cr11  O11   S    
C47   O35   A    
Cr8   O52   S    
Cr10  O18   S    
Cr10  O10   S    
C51   H55   S    
C2    O26   A    
C77   O41   A    
Cr12  O16   S    
C13   C17   A    
C16   C23   A    
C71   O51   A    
Cr6   O26   S    
C17   H37   S    
C72   O52   A    
C46   O30   A    
C90   O54   S    
Cr9   O9    S    
Cr6   O18   S    
C19   C20   A    
Cr1   O45   S    
O71   H43   S    
Cr12  O40   S    
C50   C54   S    
O58   H14   S    
Cr3   O3    S    
Cr4   O24   S    
Cr10  O38   S    
Cr2   O46   S    
C4    O24   A    
C92   O56   S    
C43   C51   D    
O63   H19   S    
Cr4   O48   S    
C52   C56   S    
C11   C28   A    
C58   C61   D    
C60   H23   S    
C49   C53   S    
C31   C35   A    
C63   C64   S    
C42   C71   S    
C2    O22   A    
C33   C34   A    
C13   C22   A    
C8    H28   S    
C3    O27   A    
Cr12  O20   S    
C20   H40   S    
C88   O68   S    
O65   H29   S    
C78   O14   A    
Cr1   O17   S    
C66   O38   A    
C64   O64   S    
C80   O16   A    
C52   H56   S    
C23   C24   A    
C37   O57   S    
O60   H16   S    
C48   C84   S    
Cr2   O42   S    
C57   H22   S    
C6    C90   S    
C32   O75   S    
O59   H15   S    
C47   O31   A    
C27   C28   A    
O77   H49   S    
O64   H20   S    
Cr10  O34   S    
C80   O44   A    
Cr10  O14   S    
C65   O37   A    
C87   O67   S    
C5    C89   S    
Cr8   O28   S    
Cr1   O1    S    
Cr12  O12   S    
Cr4   O44   S    
