data_mof_unit_40916.cif
_audit_creation_date              2012-12-11T15:14:48-0500
_audit_creation_method            fapswitch 2.2
_symmetry_space_group_name_H-M    P1
_symmetry_Int_Tables_number       1
_space_group_crystal_system       triclinic
_cell_length_a                    22.121985
_cell_length_b                    7.250754
_cell_length_c                    19.644489
_cell_angle_alpha                 90.000023
_cell_angle_beta                  98.318111
_cell_angle_gamma                 90.0
_cell_volume                      3117.8489339

loop_
_atom_site_label
_atom_site_type_symbol
_atom_type_description
_atom_site_fract_x
_atom_site_fract_y
_atom_site_fract_z
_atom_type_partial_charge
O1    O     O_R   0.448470 0.506130 0.415700 -0.527856
O2    O     O_R   0.551530 0.006130 0.584300 -0.527857
O3    O     O_R   0.436320 0.174490 0.555800 -0.527360
O4    O     O_R   0.563680 0.674490 0.444200 -0.527360
C1    C     C_R   0.422263 0.343184 0.576329 0.704061
C2    C     C_R   0.577737 0.843183 0.423671 0.704062
O5    O     O_R   0.441350 0.176340 0.414480 -0.550239
O6    O     O_R   0.558650 0.676340 0.585520 -0.550239
O7    O     O_R   0.556600 0.007100 0.441970 -0.544470
O8    O     O_R   0.443400 0.507100 0.558030 -0.544470
C3    C     C_R   0.425951 0.345840 0.390775 0.777861
C4    C     C_R   0.574049 0.845840 0.609225 0.777862
O9    O     O_3   0.537810 0.339550 0.509190 -0.376532
O10   O     O_3   0.462190 0.839550 0.490810 -0.376531
V1    V     V_3+5 0.492990 0.064280 0.498300 1.419470
V2    V     V_3+5 0.507010 0.564280 0.501700 1.419471
C5    C     C_R   0.876538 0.955941 0.699355 -0.247345
C6    C     C_R   0.123462 0.455939 0.300644 -0.247345
H1    H     H_    0.899186 0.976867 0.654727 0.156683
H2    H     H_    0.100814 0.476865 0.345273 0.156683
C7    C     C_R   0.885615 0.944741 0.823390 -0.241047
C8    C     C_R   0.114385 0.444741 0.176610 -0.241048
C9    C     C_R   0.590861 0.896272 0.733361 0.404959
C10   C     C_R   0.409139 0.396275 0.266639 0.404960
C11   C     C_R   0.626127 0.969798 0.792237 0.106520
C12   C     C_R   0.373872 0.469802 0.207763 0.106520
C13   C     C_R   0.689299 0.975536 0.796003 -0.167769
C14   C     C_R   0.310701 0.475538 0.203997 -0.167770
C15   C     C_R   0.719607 0.910948 0.742585 0.038868
C16   C     C_R   0.280393 0.410948 0.257415 0.038869
C17   C     C_R   0.684141 0.874763 0.677068 -0.059244
C18   C     C_R   0.315859 0.374762 0.322931 -0.059243
C19   C     C_R   0.784875 0.909667 0.751502 -0.004446
C20   C     C_R   0.215125 0.409666 0.248497 -0.004446
C21   C     C_R   0.814387 0.907835 0.692612 -0.029401
C22   C     C_R   0.185613 0.407834 0.307387 -0.029401
C23   C     C_R   0.781318 0.863497 0.627853 0.192917
C24   C     C_R   0.218682 0.363495 0.372147 0.192918
C25   C     C_R   0.716382 0.858366 0.618878 0.142853
C26   C     C_R   0.283618 0.358365 0.381122 0.142852
C27   C     C_R   0.821612 0.905245 0.817877 0.306632
C28   C     C_R   0.178388 0.405245 0.182123 0.306633
C29   C     C_R   0.910529 0.987941 0.763440 0.358654
C30   C     C_R   0.089471 0.487940 0.236560 0.358655
C31   C     C_R   0.618144 0.863124 0.673716 -0.200565
C32   C     C_R   0.381856 0.363125 0.326284 -0.200564
H3    H     H_    0.714680 0.043855 0.839697 0.167261
H4    H     H_    0.285320 0.543858 0.160303 0.167261
C33   C     C_3   0.781594 0.814360 0.316705 0.375851
C34   C     C_3   0.218407 0.314361 0.683296 0.375852
C35   C     C_3   0.801481 0.999572 0.286689 -0.054941
C36   C     C_3   0.198520 0.499573 0.713311 -0.054943
C37   C     C_1   0.878728 0.942541 0.124943 -0.235019
C38   C     C_1   0.121272 0.442541 0.875057 -0.235019
C39   C     C_1   0.624857 0.847554 0.379612 -0.188621
C40   C     C_1   0.375143 0.347554 0.620389 -0.188622
C41   C     C_3   0.779002 0.720617 0.245735 0.344428
C42   C     C_3   0.220998 0.220618 0.754266 0.344430
C43   C     C_3   0.798751 0.904596 0.215354 -0.069322
C44   C     C_3   0.201249 0.404597 0.784647 -0.069322
C45   C     C_3   0.710442 0.771103 0.228124 -0.404783
C46   C     C_3   0.289559 0.271104 0.771877 -0.404792
C47   C     C_3   0.713321 0.867266 0.299041 -0.087302
C48   C     C_3   0.286679 0.367267 0.700959 -0.087302
C49   C     C_3   0.730223 0.956699 0.198580 0.371979
C50   C     C_3   0.269777 0.456700 0.801421 0.371979
C51   C     C_3   0.732862 0.052122 0.269328 0.380972
C52   C     C_3   0.267138 0.552123 0.730673 0.380979
C53   C     C_1   0.842806 0.929625 0.165942 0.000563
C54   C     C_1   0.157194 0.429626 0.834058 0.000562
C55   C     C_1   0.664836 0.852270 0.343381 0.020170
C56   C     C_1   0.335164 0.352270 0.656620 0.020170
H5    H     H_    0.673735 0.677155 0.204351 0.152533
H6    H     H_    0.326265 0.177157 0.795651 0.152531
O11   O     O_R   0.056650 0.288730 0.942060 -0.538432
O12   O     O_R   0.943350 0.788730 0.057940 -0.538431
O13   O     O_R   0.058660 0.616870 0.085540 -0.553847
O14   O     O_R   0.941340 0.116870 0.914460 -0.553847
C57   C     C_R   0.072613 0.448957 0.110412 0.744592
C58   C     C_R   0.927387 0.948957 0.889588 0.744592
O15   O     O_R   0.063700 0.618520 0.944220 -0.532539
O16   O     O_R   0.936300 0.118520 0.055780 -0.532539
O17   O     O_R   0.948460 0.787610 0.915680 -0.527919
O18   O     O_R   0.051540 0.287610 0.084320 -0.527919
C59   C     C_R   0.077666 0.450719 0.923377 0.677760
C60   C     C_R   0.922334 0.950719 0.076623 0.677759
O19   O     O_3   0.962230 0.453430 0.990860 -0.376753
O20   O     O_3   0.037770 0.953430 0.009140 -0.376753
V3    V     V_3+5 0.007010 0.728750 0.001700 1.408051
V4    V     V_3+5 0.992990 0.228750 0.998300 1.408051
O21   O     O_3   0.970593 0.044691 0.766587 -0.575929
C61   C     C_3   0.973318 0.239558 0.772138 0.119495
H7    H     H_    0.017563 0.274689 0.803315 0.140275
H8    H     H_    0.937074 0.299765 0.799562 0.119057
C62   C     C_3   0.971502 0.330686 0.701468 -0.373295
H9    H     H_    0.011322 0.283863 0.677531 0.194949
H10   H     H_    0.929123 0.291078 0.667264 0.199571
C63   C     C_3   0.972854 0.540567 0.707853 -0.800393
H11   H     H_    0.931024 0.589651 0.727385 0.244031
H12   H     H_    0.974524 0.603492 0.656611 0.231339
H13   H     H_    0.013544 0.586149 0.743783 0.239109
O22   O     O_3   0.029407 0.544690 0.233413 -0.575929
C64   C     C_3   0.026682 0.739557 0.227862 0.119494
H14   H     H_    0.982437 0.774688 0.196685 0.140274
H15   H     H_    0.062926 0.799764 0.200438 0.119057
C65   C     C_3   0.028499 0.830685 0.298532 -0.373294
H16   H     H_    0.988678 0.783863 0.322469 0.194948
H17   H     H_    0.070877 0.791076 0.332736 0.199571
C66   C     C_3   0.027147 0.040566 0.292147 -0.800395
H18   H     H_    0.068977 0.089650 0.272616 0.244032
H19   H     H_    0.025477 0.103491 0.343389 0.231339
H20   H     H_    0.986457 0.086149 0.256217 0.239109
O23   O     O_3   0.805212 0.731431 0.380344 -0.572745
C67   C     C_3   0.869144 0.705464 0.385267 0.105107
H21   H     H_    0.893012 0.830439 0.407979 0.126043
H22   H     H_    0.884184 0.676746 0.334573 0.147816
C68   C     C_3   0.888994 0.544383 0.433481 -0.308522
H23   H     H_    0.882479 0.580926 0.486729 0.193542
H24   H     H_    0.860327 0.422643 0.417685 0.198517
C69   C     C_3   0.955955 0.494369 0.432684 -0.857885
H25   H     H_    0.963130 0.448960 0.380413 0.251424
H26   H     H_    0.969106 0.379696 0.469288 0.231561
H27   H     H_    0.985757 0.614849 0.448321 0.226194
O24   O     O_3   0.194789 0.231432 0.619656 -0.572745
C70   C     C_3   0.130857 0.205465 0.614733 0.105107
H28   H     H_    0.106989 0.330440 0.592021 0.126042
H29   H     H_    0.115817 0.176749 0.665427 0.147816
C71   C     C_3   0.111007 0.044383 0.566519 -0.308521
H30   H     H_    0.117522 0.080926 0.513271 0.193542
H31   H     H_    0.139675 0.922644 0.582315 0.198518
C72   C     C_3   0.044046 0.994368 0.567317 -0.857885
H32   H     H_    0.036871 0.948960 0.619588 0.251424
H33   H     H_    0.030895 0.879694 0.530714 0.231561
H34   H     H_    0.014244 0.114847 0.551679 0.226194
O25   O     O_3   0.700593 0.219594 0.273910 -0.579818
C73   C     C_3   0.722930 0.324638 0.332843 0.143023
H35   H     H_    0.703927 0.465370 0.323701 0.180580
H36   H     H_    0.772873 0.341238 0.339830 0.172354
C74   C     C_3   0.701937 0.251330 0.398695 -0.380480
H37   H     H_    0.651826 0.227481 0.389319 0.226786
H38   H     H_    0.726109 0.120542 0.414143 0.200171
C75   C     C_3   0.716274 0.387246 0.458087 -0.781078
H39   H     H_    0.766355 0.407292 0.470613 0.228642
H40   H     H_    0.698906 0.332161 0.504330 0.230802
H41   H     H_    0.694049 0.522105 0.444510 0.245733
O26   O     O_3   0.299408 0.719595 0.726092 -0.579814
C76   C     C_3   0.277071 0.824640 0.667159 0.143022
H42   H     H_    0.296074 0.965371 0.676300 0.180580
H43   H     H_    0.227128 0.841240 0.660172 0.172354
C77   C     C_3   0.298064 0.751331 0.601307 -0.380480
H44   H     H_    0.348175 0.727483 0.610682 0.226787
H45   H     H_    0.273892 0.620544 0.585859 0.200171
C78   C     C_3   0.283727 0.887248 0.541915 -0.781076
H46   H     H_    0.233647 0.907294 0.529389 0.228642
H47   H     H_    0.301096 0.832163 0.495671 0.230801
H48   H     H_    0.305953 0.022107 0.555492 0.245733
O27   O     O_3   0.706032 0.035346 0.134642 -0.572663
C79   C     C_3   0.641643 0.037281 0.127120 0.089546
H49   H     H_    0.625392 0.112883 0.170263 0.155043
H50   H     H_    0.623548 0.893880 0.124678 0.115758
C80   C     C_3   0.616755 0.134838 0.059974 -0.304488
H51   H     H_    0.633240 0.279720 0.061655 0.196231
H52   H     H_    0.633752 0.063493 0.016575 0.200951
C81   C     C_3   0.547056 0.134696 0.047421 -0.859209
H53   H     H_    0.529286 0.991405 0.047097 0.232947
H54   H     H_    0.530792 0.198852 0.996759 0.234216
H55   H     H_    0.528887 0.215280 0.088003 0.226631
O28   O     O_3   0.293968 0.535351 0.865358 -0.572662
C82   C     C_3   0.358357 0.537269 0.872885 0.089552
H56   H     H_    0.374612 0.612834 0.829736 0.155030
H57   H     H_    0.376447 0.393862 0.875340 0.115760
C83   C     C_3   0.383244 0.634864 0.940022 -0.304485
H58   H     H_    0.366767 0.779756 0.938323 0.196225
H59   H     H_    0.366238 0.563569 0.983425 0.200953
C84   C     C_3   0.452943 0.634685 0.952584 -0.859215
H60   H     H_    0.470704 0.491383 0.952927 0.232952
H61   H     H_    0.469206 0.698877 0.003239 0.234216
H62   H     H_    0.471121 0.715216 0.911996 0.226633
O29   O     O_3   0.802313 0.539404 0.243439 -0.583076
C85   C     C_3   0.817400 0.490935 0.178417 0.099795
H63   H     H_    0.841104 0.355884 0.184772 0.161083
H64   H     H_    0.851371 0.585162 0.161219 0.122674
C86   C     C_3   0.760959 0.468316 0.123947 -0.308719
H65   H     H_    0.724523 0.395920 0.146827 0.249642
H66   H     H_    0.743643 0.606109 0.105850 0.187035
C87   C     C_3   0.776463 0.357482 0.062737 -0.804097
H67   H     H_    0.812604 0.428294 0.038750 0.226339
H68   H     H_    0.735017 0.340304 0.024131 0.216039
H69   H     H_    0.793126 0.218693 0.079519 0.257506
O30   O     O_3   0.197687 0.039406 0.756562 -0.583076
C88   C     C_3   0.182600 0.990936 0.821584 0.099796
H70   H     H_    0.158897 0.855884 0.815229 0.161083
H71   H     H_    0.148630 0.085163 0.838782 0.122674
C89   C     C_3   0.239042 0.968318 0.876053 -0.308721
H72   H     H_    0.275478 0.895923 0.853172 0.249644
H73   H     H_    0.256357 0.106112 0.894150 0.187032
C90   C     C_3   0.223539 0.857483 0.937263 -0.804094
H74   H     H_    0.187398 0.928295 0.961251 0.226337
H75   H     H_    0.264986 0.840304 0.975868 0.216041
H76   H     H_    0.206875 0.718695 0.920482 0.257507
C91   C     C_3   0.815713 0.806902 0.569474 -0.787576
H77   H     H_    0.792086 0.691225 0.539727 0.227553
H78   H     H_    0.820201 0.926114 0.535064 0.218576
H79   H     H_    0.861575 0.750059 0.588524 0.197239
C92   C     C_3   0.184287 0.306898 0.430526 -0.787578
H80   H     H_    0.207914 0.191222 0.460273 0.227552
H81   H     H_    0.179799 0.426111 0.464936 0.218576
H82   H     H_    0.138425 0.250055 0.411475 0.197239
O31   O     O_3   0.795788 0.822464 0.870836 -0.553878
C93   C     C_3   0.806614 0.918901 0.933987 0.096383
H83   H     H_    0.818596 0.066920 0.928080 0.062676
H84   H     H_    0.844309 0.848329 0.967008 0.120582
C94   C     C_3   0.750370 0.910682 0.971646 -0.321413
H85   H     H_    0.765723 0.923038 0.027762 0.189549
H86   H     H_    0.719938 0.029687 0.956319 0.163854
C95   C     C_3   0.713916 0.732070 0.958395 -0.660548
H87   H     H_    0.745194 0.612602 0.963583 0.239089
H88   H     H_    0.688270 0.730264 0.905588 0.240542
H89   H     H_    0.680795 0.719166 0.995551 0.190421
O32   O     O_3   0.204212 0.322464 0.129164 -0.553878
C96   C     C_3   0.193386 0.418899 0.066013 0.096382
H90   H     H_    0.181403 0.566917 0.071919 0.062676
H91   H     H_    0.155691 0.348324 0.032992 0.120583
C97   C     C_3   0.249630 0.410686 0.028354 -0.321412
H92   H     H_    0.234277 0.423043 0.972238 0.189547
H93   H     H_    0.280060 0.529693 0.043681 0.163851
C98   C     C_3   0.286085 0.232077 0.041605 -0.660545
H94   H     H_    0.254809 0.112606 0.036416 0.239087
H95   H     H_    0.311730 0.230271 0.094412 0.240543
H96   H     H_    0.319207 0.219178 0.004449 0.190422
O33   O     O_3   0.527868 0.882135 0.729600 -0.579624
C99   C     C_3   0.512595 0.732442 0.770342 0.027887
H97   H     H_    0.465196 0.755882 0.780874 0.159938
H98   H     H_    0.542004 0.723406 0.821268 0.124121
C100  C     C_3   0.514664 0.549195 0.732162 -0.302152
H99   H     H_    0.487897 0.563195 0.680410 0.221612
H100  H     H_    0.562674 0.515150 0.726538 0.188200
C101  C     C_3   0.487956 0.392422 0.770112 -0.839584
H101  H     H_    0.511651 0.382735 0.823820 0.230385
H102  H     H_    0.493511 0.260256 0.743179 0.265178
H103  H     H_    0.438506 0.415564 0.770804 0.228181
O34   O     O_3   0.472133 0.382141 0.270400 -0.579624
C102  C     C_3   0.487406 0.232450 0.229657 0.027884
H104  H     H_    0.534804 0.255892 0.219126 0.159935
H105  H     H_    0.457997 0.223413 0.178731 0.124124
C103  C     C_3   0.485338 0.049203 0.267837 -0.302148
H106  H     H_    0.512104 0.063203 0.319590 0.221612
H107  H     H_    0.437328 0.015154 0.273461 0.188199
C104  C     C_3   0.512048 0.892432 0.229887 -0.839585
H108  H     H_    0.488352 0.882743 0.176180 0.230383
H109  H     H_    0.506493 0.760265 0.256820 0.265176
H110  H     H_    0.561497 0.915578 0.229195 0.228181
C105  C     C_3   0.597630 0.051087 0.850750 -0.822006
H111  H     H_    0.547137 0.057603 0.839495 0.237573
H112  H     H_    0.609906 0.966392 0.897633 0.206353
H113  H     H_    0.614639 0.193861 0.861322 0.210945
C106  C     C_3   0.402370 0.551095 0.149251 -0.822004
H114  H     H_    0.452863 0.557610 0.160505 0.237572
H115  H     H_    0.390094 0.466403 0.102366 0.206357
H116  H     H_    0.385361 0.693869 0.138680 0.210944
C107  C     C_3   0.682946 0.852792 0.546474 -0.785645
H117  H     H_    0.712146 0.867813 0.505681 0.216629
H118  H     H_    0.658604 0.719703 0.537793 0.209301
H119  H     H_    0.652369 0.973843 0.538222 0.201671
C108  C     C_3   0.317055 0.352790 0.453526 -0.785644
H120  H     H_    0.287854 0.367811 0.494319 0.216629
H121  H     H_    0.341396 0.219701 0.462207 0.209302
H122  H     H_    0.347631 0.473841 0.461778 0.201671
C109  C     C_3   0.856433 0.110011 0.320069 -0.804123
H123  H     H_    0.853375 0.129601 0.375385 0.205925
H124  H     H_    0.898910 0.033703 0.315111 0.213374
H125  H     H_    0.858803 0.245159 0.294776 0.249768
C110  C     C_3   0.143568 0.610012 0.679931 -0.804125
H126  H     H_    0.146627 0.629602 0.624615 0.205925
H127  H     H_    0.101091 0.533704 0.684889 0.213374
H128  H     H_    0.141198 0.745160 0.705224 0.249769

loop_
_geom_bond_atom_site_label_1
_geom_bond_atom_site_label_2
_ccdc_geom_bond_type
C42   C46   S    
C33   O23   S    
C97   C98   S    
O30   C88   S    
C9    C31   A    
C24   C92   S    
C13   C15   A    
C100  H100  S    
C82   H56   S    
C1    C40   S    
C89   H73   S    
C62   H9    S    
O1    C3    A    
C95   H89   S    
C2    C39   S    
C72   H34   S    
O2    C4    A    
C71   H30   S    
C80   C81   S    
C2    O7    A    
C88   H71   S    
C80   H51   S    
C62   C63   S    
O3    V1    S    
O25   C73   S    
C84   H61   S    
C8    C28   A    
C94   H85   S    
O14   V4    S    
O5    C3    A    
C101  H103  S    
O13   V3    S    
C104  H108  S    
O27   C79   S    
C33   C47   S    
C48   C52   S    
C81   H53   S    
C76   H43   S    
C95   H88   S    
C8    C57   S    
O26   C76   S    
C96   C97   S    
C28   O32   S    
C68   H24   S    
C105  H111  S    
C74   C75   S    
O14   C58   A    
C92   H82   S    
C89   C90   S    
C50   C52   S    
C42   C44   S    
C102  H104  S    
C15   C19   A    
C40   C56   T    
C110  H128  S    
C34   C48   S    
C90   H75   S    
C106  H114  S    
C91   H77   S    
C45   C47   S    
C98   H94   S    
C99   H97   S    
C46   C48   S    
C36   C44   S    
O11   V4    S    
C19   C21   A    
C7    C29   A    
C62   H10   S    
O11   C59   A    
C8    C30   A    
C76   H42   S    
C69   H26   S    
C49   C51   S    
C77   C78   S    
C20   C28   A    
C42   O30   S    
C70   C71   S    
C34   C36   S    
C100  H99   S    
C10   O34   S    
C37   C60   S    
C78   H47   S    
C108  H120  S    
C103  H106  S    
C20   C22   A    
C36   C52   S    
C85   C86   S    
O12   V3    S    
O3    C1    A    
C27   O31   S    
C26   C108  S    
C9    O33   S    
O5    V1    S    
C89   H72   S    
C87   H67   S    
C44   C50   S    
C75   H40   S    
O6    V2    S    
C24   C26   A    
C109  H123  S    
C97   H92   S    
C79   H50   S    
C91   H79   S    
C91   H78   S    
C75   H41   S    
O22   C64   S    
O18   V4    S    
C58   O17   A    
C99   H98   S    
O32   C96   S    
C80   H52   S    
C83   H59   S    
O31   C93   S    
C84   H62   S    
C101  H102  S    
C92   H81   S    
C39   C55   T    
O17   V3    S    
C103  H107  S    
O19   V4    S    
C104  H109  S    
C75   H39   S    
C16   C20   A    
C96   H91   S    
C88   H70   S    
C34   C42   S    
C76   C77   S    
C34   O24   S    
C95   H87   S    
C73   H36   S    
C25   C107  S    
C68   C69   S    
O21   C61   S    
C107  H118  S    
C46   C50   S    
C5    H1    S    
C33   C35   S    
C37   C53   T    
O16   C60   A    
C99   C100  S    
C29   O21   S    
C97   H93   S    
C106  H115  S    
C69   H27   S    
C73   C74   S    
C79   H49   S    
O4    V2    S    
C90   H76   S    
C51   O25   S    
C86   H65   S    
C5    C29   A    
C47   C51   S    
C96   H90   S    
C6    C30   A    
C107  H119  S    
C105  H112  S    
C84   H60   S    
C38   C54   T    
C44   C54   S    
O6    C4    A    
C102  C103  S    
C61   H8    S    
O34   C102  S    
O13   C57   A    
C64   H15   S    
O1    V2    S    
C35   C51   S    
C78   H48   S    
C70   H29   S    
O2    V1    S    
C108  H121  S    
C11   C105  S    
C43   C53   S    
C7    C27   A    
C49   O27   S    
O28   C82   S    
C98   H95   S    
C47   C55   S    
C93   H83   S    
C19   C27   A    
C93   H84   S    
C109  H124  S    
C17   C31   A    
C70   H28   S    
C100  C101  S    
C77   H45   S    
C66   H20   S    
O4    C2    A    
C35   C43   S    
C61   C62   S    
C87   H68   S    
C72   H32   S    
C63   H13   S    
C71   C72   S    
O12   C60   A    
O33   C99   S    
C18   C26   A    
C52   O26   S    
C83   H58   S    
C41   O29   S    
O23   C67   S    
C82   H57   S    
C94   C95   S    
C13   H3    S    
C1    O8    A    
C92   H80   S    
C101  H101  S    
C14   H4    S    
C104  H110  S    
C30   O22   S    
C85   H64   S    
C21   C23   A    
O10   V1    S    
C63   H12   S    
C18   C32   A    
C81   H55   S    
C10   C12   A    
C73   H35   S    
C72   H33   S    
C71   H31   S    
C38   C59   S    
C67   H22   S    
C74   H37   S    
C83   C84   S    
C41   C45   S    
C36   C110  S    
C4    C31   S    
C11   C13   A    
C93   C94   S    
C5    C21   A    
C12   C14   A    
O16   V4    S    
C50   O28   S    
C86   C87   S    
C106  H116  S    
C45   H5    S    
C105  H113  S    
C86   H66   S    
O9    V2    S    
C94   H86   S    
O15   V3    S    
C14   C16   A    
C15   C17   A    
O8    V2    S    
C66   H18   S    
C43   C49   S    
C22   C24   A    
C16   C18   A    
C74   H38   S    
C57   O18   A    
C12   C106  S    
C65   H17   S    
C87   H69   S    
C66   H19   S    
C7    C58   S    
C81   H54   S    
C61   H7    S    
C110  H127  S    
C17   C25   A    
C64   C65   S    
C6    H2    S    
C67   H21   S    
C9    C11   A    
O7    V1    S    
C90   H74   S    
C108  H122  S    
C10   C32   A    
C88   C89   S    
C67   C68   S    
C41   C43   S    
O29   C85   S    
C45   C49   S    
C33   C41   S    
C23   C25   A    
C98   H96   S    
O24   C70   S    
O20   V3    S    
C79   C80   S    
C63   H11   S    
C65   H16   S    
C109  H125  S    
C64   H14   S    
C107  H117  S    
C23   C91   S    
C69   H25   S    
C46   H6    S    
C3    C32   S    
C82   C83   S    
C102  H105  S    
C35   C109  S    
C78   H46   S    
C68   H23   S    
C6    C22   A    
C103  C104  S    
O15   C59   A    
C85   H63   S    
C48   C56   S    
C77   H44   S    
C65   C66   S    
C110  H126  S    
