data_mof_unit_34336.cif
_audit_creation_date              2013-03-05T15:48:54-0500
_audit_creation_method            fapswitch 2.2
_symmetry_space_group_name_H-M    P1
_symmetry_Int_Tables_number       1
_space_group_crystal_system       triclinic
_cell_length_a                    15.923167
_cell_length_b                    13.033029
_cell_length_c                    11.829275
_cell_angle_alpha                 98.256148
_cell_angle_beta                  93.557559
_cell_angle_gamma                 91.562215
_cell_volume                      2423.14430544

loop_
_atom_site_label
_atom_site_type_symbol
_atom_site_description
_atom_site_fract_x
_atom_site_fract_y
_atom_site_fract_z
_atom_type_partial_charge
O1    O     O_R   0.504390 0.354460 0.582000 -0.602247
O2    O     O_R   0.493940 0.341410 0.386200 -0.554890
C1    C     C_R   0.501066 0.300122 0.480189 0.918485
O3    O     O_R   0.384660 0.506540 0.597940 -0.563276
O4    O     O_R   0.374210 0.493480 0.402140 -0.622998
C2    C     C_R   0.340724 0.499193 0.500323 0.829040
Cu1   Cu    Cu3+1 0.506190 0.507730 0.615930 1.008727
Cu2   Cu    Cu3+1 0.493810 0.492270 0.384070 1.017940
O5    O     O_R   0.506060 0.658590 0.613800 -0.524278
O6    O     O_R   0.495610 0.645540 0.418000 -0.577400
O7    O     O_R   0.625790 0.506520 0.597860 -0.607532
O8    O     O_R   0.615340 0.493460 0.402060 -0.518984
C3    C     C_R   0.496370 0.699736 0.520219 0.889215
C4    C     C_R   0.659453 0.500986 0.499615 0.859993
C5    C     C_3   0.054141 0.468299 0.616707 -0.238176
C6    C     C_3   0.045670 0.414165 0.392551 0.273327
C7    C     C_3   0.944488 0.404898 0.400044 0.761512
C8    C     C_1   0.748852 0.500606 0.498090 -0.108296
C9    C     C_3   0.083462 0.500446 0.496664 -0.201438
C10   C     C_3   0.953126 0.482425 0.619814 0.373699
C11   C     C_3   0.917202 0.499379 0.493389 -0.112277
C12   C     C_3   0.949288 0.608902 0.461117 0.137823
C13   C     C_3   0.051318 0.615510 0.480142 -0.172580
C14   C     C_1   0.824160 0.499520 0.495213 0.151547
C15   C     C_1   0.176280 0.499760 0.499029 0.059272
C16   C     C_1   0.251621 0.499471 0.500773 -0.067050
C17   C     C_R   0.484727 0.811617 0.530462 -0.122914
C18   C     C_R   0.507539 0.187659 0.471401 -0.218268
C19   C     C_R   0.561264 0.025102 0.383332 0.433423
C20   C     C_R   0.562225 0.133702 0.395864 -0.129566
C21   C     C_R   0.457458 0.133707 0.539195 0.401984
C22   C     C_R   0.468019 0.026996 0.540963 -0.093594
C23   C     C_R   0.519580 0.972866 0.461185 -0.056302
C24   C     C_R   0.530002 0.867134 0.461078 -0.224607
C25   C     C_R   0.430876 0.863803 0.608699 -0.134366
C26   C     C_R   0.427614 0.972631 0.619346 0.458488
H1    H     H_    0.575438 0.827468 0.408820 0.190192
N1    N     N_R   0.515490 0.519350 0.790130 -0.223844
N2    N     N_R   0.484510 0.480650 0.209890 -0.269090
C27   C     C_R   0.420785 0.396801 0.026239 -0.132466
C28   C     C_R   0.428258 0.409115 0.147686 0.060434
C29   C     C_R   0.538535 0.536366 0.153809 0.677013
C30   C     C_R   0.538209 0.520002 0.030655 -0.066135
C31   C     C_R   0.471680 0.460394 0.966988 -0.125911
C32   C     C_R   0.459306 0.465572 0.846338 0.137197
C33   C     C_R   0.583459 0.571640 0.851739 0.100742
C34   C     C_R   0.600229 0.564988 0.969485 -0.161628
O9    O     O_3   0.909955 0.390532 0.644223 -0.512309
C35   C     C_3   0.911085 0.377154 0.761242 -0.090369
H2    H     H_    0.860459 0.420957 0.804583 0.168957
H3    H     H_    0.972771 0.397998 0.807977 0.194452
H4    H     H_    0.897623 0.293940 0.765700 0.183333
C36   C     C_2   0.104438 0.530145 0.721097 0.206297
H5    H     H_    0.161702 0.573647 0.711400 0.203116
O10   O     O_2   0.087244 0.522777 0.818901 -0.517834
C37   C     C_2   0.929138 0.575646 0.707147 0.442603
H6    H     H_    0.975068 0.630706 0.753739 0.094271
O11   O     O_2   0.855595 0.590683 0.725762 -0.557050
C38   C     C_2   0.910944 0.616000 0.338757 0.374091
H7    H     H_    0.844483 0.631537 0.328122 0.124968
O12   O     O_2   0.949916 0.601039 0.252656 -0.523147
C39   C     C_2   0.374942 0.808090 0.677859 0.491558
H8    H     H_    0.355506 0.846331 0.759127 0.102592
O13   O     O_2   0.345998 0.721067 0.642341 -0.499477
O14   O     O_3   0.605069 0.970053 0.298509 -0.605903
C40   C     C_3   0.553803 0.958780 0.195244 -0.387017
H9    H     H_    0.537356 0.034902 0.169361 0.178639
H10   H     H_    0.495075 0.912401 0.201991 0.181448
H11   H     H_    0.589096 0.917141 0.125855 0.196855
O15   O     O_3   0.381590 0.024513 0.703723 -0.547413
C41   C     C_3   0.435377 0.050119 0.803880 -0.275328
H12   H     H_    0.481681 0.113061 0.793736 0.177072
H13   H     H_    0.469032 0.981845 0.828170 0.131412
H14   H     H_    0.396628 0.078309 0.875867 0.200326
C42   C     C_2   0.624584 0.187297 0.333547 0.415445
H15   H     H_    0.651317 0.146952 0.258266 0.101178
O16   O     O_2   0.650893 0.275316 0.369183 -0.593082
O17   O     O_3   0.399520 0.186566 0.605631 -0.566860
C43   C     C_3   0.323023 0.186608 0.538706 -0.260046
H16   H     H_    0.330128 0.230498 0.465607 0.117190
H17   H     H_    0.275638 0.225949 0.592907 0.186353
H18   H     H_    0.298144 0.106255 0.507133 0.190139
C44   C     C_2   0.380421 0.423952 0.783617 0.407222
H19   H     H_    0.381539 0.363247 0.711525 0.120636
O18   O     O_2   0.313048 0.458335 0.811999 -0.517641
C45   C     C_2   0.083669 0.358492 0.628977 0.662963
H20   H     H_    0.150810 0.346863 0.641318 0.035570
O19   O     O_2   0.036507 0.282157 0.622047 -0.477121
C46   C     C_2   0.639451 0.638686 0.797156 0.400115
H21   H     H_    0.700751 0.612406 0.773681 0.124366
O20   O     O_2   0.619942 0.726801 0.786354 -0.549204
C47   C     C_2   0.367564 0.308693 0.962636 0.459799
H22   H     H_    0.391391 0.261651 0.889300 0.045788
O21   O     O_2   0.296304 0.290315 0.988902 -0.497033
C48   C     C_2   0.685179 0.599302 0.024126 0.410395
H23   H     H_    0.718017 0.666647 0.001338 0.074422
O22   O     O_2   0.720862 0.549515 0.091429 -0.510267
C49   C     C_2   0.376083 0.340813 0.206560 0.541772
H24   H     H_    0.320019 0.369418 0.245531 0.050860
O23   O     O_2   0.392149 0.249440 0.203995 -0.580249
O24   O     O_3   0.592652 0.609268 0.218893 -0.539034
C50   C     C_3   0.567568 0.709307 0.202081 -0.322642
H25   H     H_    0.618921 0.765145 0.239424 0.222892
H26   H     H_    0.508268 0.728599 0.243554 0.187648
H27   H     H_    0.558026 0.720171 0.110919 0.131560
C51   C     C_2   0.069323 0.441769 0.275182 0.453375
H28   H     H_    0.124426 0.490028 0.269257 0.102759
O25   O     O_2   0.036134 0.396737 0.185082 -0.466368
O26   O     O_3   0.078765 0.315100 0.408724 -0.577574
C52   C     C_3   0.146006 0.277483 0.343232 -0.319172
H29   H     H_    0.196844 0.336829 0.342401 0.129428
H30   H     H_    0.122235 0.245636 0.254592 0.214805
H31   H     H_    0.173777 0.212561 0.381971 0.182354
O27   O     O_3   0.921432 0.308918 0.438579 -0.512754
C53   C     C_3   0.926917 0.218552 0.356556 -0.081798
H32   H     H_    0.954005 0.232707 0.275501 0.182035
H33   H     H_    0.863390 0.180965 0.335947 0.120198
H34   H     H_    0.966609 0.162274 0.395127 0.199504
O28   O     O_3   0.904167 0.410252 0.288803 -0.584765
C54   C     C_3   0.818522 0.376367 0.269543 -0.203847
H35   H     H_    0.779538 0.443527 0.257129 0.218225
H36   H     H_    0.793343 0.338210 0.338443 0.197028
H37   H     H_    0.811188 0.320358 0.189291 0.184774
C55   C     C_2   0.081223 0.694360 0.585480 0.358055
H38   H     H_    0.038898 0.727542 0.647272 0.116909
O29   O     O_2   0.155349 0.722670 0.603479 -0.487852
C56   C     C_2   0.091866 0.664500 0.384599 0.447494
H39   H     H_    0.057717 0.718218 0.338896 0.105090
O30   O     O_2   0.166776 0.658018 0.368870 -0.518244
O31   O     O_3   0.912115 0.688439 0.537038 -0.594188
C57   C     C_3   0.915313 0.789018 0.504337 -0.304180
H40   H     H_    0.911167 0.846921 0.582056 0.207638
H41   H     H_    0.860235 0.798912 0.445120 0.176204
H42   H     H_    0.974396 0.807086 0.465384 0.135653

loop_
_geom_bond_atom_site_label_1
_geom_bond_atom_site_label_2
_geom_bond_distance
_ccdc_geom_bond_type
C40   H10   1.112883 S    
O24   C50   1.411378 S    
C24   H1    1.075618 S    
C53   H33   1.109389 S    
C4    C8    1.424883 S    
C9    C13   1.631768 S    
C48   H23   1.084842 S    
C10   C37   1.550197 S    
C57   H42   1.107136 S    
O27   C53   1.422706 S    
Cu1   Cu2   2.715525 S    
N2    C28   1.374257 A    
C33   C46   1.471850 S    
C36   H5    1.081431 S    
C54   H35   1.108259 S    
Cu1   O7    1.929743 S    
C19   C20   1.401353 A    
C8    C14   1.202142 T    
C22   C26   1.419001 A    
C55   O29   1.223583 D    
C1    C18   1.461376 S    
O4    C2    1.301135 A    
O7    C4    1.303262 A    
C45   O19   1.220097 D    
C40   H11   1.109062 S    
C51   H28   1.077285 S    
C53   H32   1.112295 S    
C19   C23   1.408348 A    
C37   H6    1.077662 S    
C50   H27   1.109391 S    
C35   H2    1.109474 S    
O5    C3    1.300245 A    
C52   H29   1.105745 S    
N1    C32   1.381006 A    
C39   O13   1.218974 D    
C41   H14   1.108391 S    
C44   H19   1.078144 S    
C26   O15   1.383655 S    
C6    C7    1.621235 S    
C35   H3    1.104146 S    
C6    O26   1.441118 S    
O15   C41   1.411929 S    
Cu2   N2    2.039976 S    
C46   O20   1.219971 D    
C54   H37   1.109176 S    
C6    C51   1.549162 S    
C35   H4    1.109096 S    
C40   H9    1.112669 S    
C38   H7    1.085931 S    
C11   C12   1.607858 S    
C12   O31   1.436510 S    
C32   C44   1.467690 S    
O3    Cu1   1.933032 S    
C54   H36   1.103833 S    
C7    O27   1.437640 S    
N2    C29   1.372048 A    
C36   O10   1.221681 D    
C17   C24   1.390134 A    
C5    C10   1.626031 S    
C38   O12   1.220031 D    
O3    C2    1.302447 A    
C12   C38   1.551862 S    
C41   H13   1.114382 S    
O17   C43   1.410999 S    
C17   C25   1.415581 A    
C15   C16   1.198690 T    
C28   C49   1.475535 S    
C7    C11   1.619417 S    
O1    C1    1.303795 A    
C25   C26   1.408485 A    
C5    C9    1.628645 S    
C42   H15   1.084197 S    
C56   O30   1.221914 D    
C39   H8    1.084471 S    
O4    Cu2   1.929745 S    
C21   C22   1.408417 A    
Cu2   O8    1.933030 S    
C53   H34   1.109593 S    
C47   O21   1.221370 D    
C23   C24   1.392274 A    
C27   C47   1.490817 S    
C50   H26   1.109279 S    
C42   O16   1.217447 D    
C52   H31   1.108192 S    
C10   O9    1.438512 S    
C5    C45   1.542117 S    
C19   O14   1.383999 S    
O9    C35   1.418904 S    
C44   O18   1.221527 D    
O8    C4    1.303033 A    
O14   C40   1.413620 S    
C49   O23   1.221364 D    
C30   C31   1.407499 A    
C29   C30   1.441392 A    
C57   H40   1.109080 S    
C29   O24   1.378777 S    
C5    C36   1.540194 S    
C31   C32   1.440048 A    
C45   H20   1.087690 S    
C21   O17   1.382932 S    
C13   C56   1.541828 S    
Cu1   O5    1.969993 S    
C33   C34   1.417267 A    
C27   C28   1.419633 A    
O1    Cu1   1.979243 S    
C18   C21   1.408615 A    
O2    Cu2   1.969993 S    
C57   H41   1.110119 S    
O6    C3    1.309043 A    
C43   H18   1.113491 S    
O28   C54   1.416487 S    
C48   O22   1.220677 D    
C13   C55   1.538645 S    
C43   H17   1.109057 S    
C22   C23   1.413821 A    
C18   C20   1.414462 A    
O2    C1    1.303107 A    
C41   H12   1.112308 S    
O26   C52   1.417531 S    
C20   C42   1.489352 S    
C2    C16   1.419244 S    
C51   O25   1.221980 D    
C6    C9    1.617652 S    
C47   H22   1.083143 S    
Cu1   N1    2.040211 S    
C37   O11   1.220797 D    
O31   C57   1.419498 S    
C25   C39   1.488481 S    
C50   H25   1.106240 S    
C9    C15   1.476767 S    
C52   H30   1.110031 S    
N1    C33   1.373372 A    
C7    O28   1.439669 S    
C43   H16   1.112826 S    
C27   C31   1.426761 A    
C10   C11   1.615004 S    
Cu2   O6    1.979242 S    
C49   H24   1.080873 S    
C11   C14   1.483066 S    
C34   C48   1.490967 S    
C12   C13   1.624479 S    
C3    C17   1.463566 S    
C46   H21   1.082470 S    
C30   C34   1.421822 A    
C56   H39   1.082177 S    
C55   H38   1.077846 S    
