data_mof_unit_10399.cif
_audit_creation_date              2012-12-10T17:17:24-0500
_audit_creation_method            fapswitch 2.2
_symmetry_space_group_name_H-M    P1
_symmetry_Int_Tables_number       1
_space_group_crystal_system       triclinic
_cell_length_a                    10.242216
_cell_length_b                    10.727954
_cell_length_c                    12.232789
_cell_angle_alpha                 90.380975
_cell_angle_beta                  109.302792
_cell_angle_gamma                 96.356431
_cell_volume                      1259.41572384

loop_
_atom_site_label
_atom_site_type_symbol
_atom_type_description
_atom_site_fract_x
_atom_site_fract_y
_atom_site_fract_z
_atom_type_partial_charge
C1    C     C_R   0.049435 0.732536 0.488059 0.911392
C2    C     C_R   0.201043 0.504266 0.839660 -0.060773
C3    C     C_2   0.069523 0.864542 0.467107 -0.321715
C4    C     C_R   0.132342 0.506001 0.714424 0.913516
C5    C     C_2   0.959300 0.928153 0.444470 -0.102323
C6    C     C_2   0.904782 0.132232 0.489890 0.263919
C7    C     C_2   0.978089 0.062709 0.445589 -0.216740
C8    C     C_2   0.437246 0.497245 0.519612 -0.026428
C9    C     C_2   0.571430 0.478049 0.498597 0.444502
C10   C     C_R   0.944808 0.266730 0.502136 0.915851
C11   C     C_R   0.866067 0.488489 0.285740 0.846783
C12   C     C_R   0.419161 0.490048 0.993225 0.036701
C13   C     C_R   0.726993 0.333333 0.989871 -0.092936
C14   C     C_R   0.788242 0.465992 0.163250 -0.057641
C15   C     C_R   0.158980 0.580853 0.912063 -0.183057
C16   C     C_R   0.242963 0.606984 0.026432 -0.093289
C17   C     C_R   0.373922 0.565803 0.066169 -0.068762
C18   C     C_R   0.322431 0.444243 0.885561 -0.076484
C19   C     C_R   0.556041 0.456832 0.024302 0.036757
C20   C     C_R   0.590085 0.366427 0.955568 -0.019162
C21   C     C_R   0.485025 0.306144 0.858727 0.302596
C22   C     C_R   0.350135 0.340700 0.827609 0.319369
C23   C     C_R   0.660516 0.511970 0.122534 -0.157964
C24   C     C_R   0.824694 0.380695 0.094870 -0.192828
Cl1   Cl    Cl    0.767916 0.066861 0.537660 -0.490937
Cl2   Cl    Cl    0.576327 0.340659 0.420941 -0.421404
Cl3   Cl    Cl    0.284079 0.408971 0.309881 -0.480116
Cl4   Cl    Cl    0.518753 0.184052 0.777199 -0.490509
Cl5   Cl    Cl    0.212066 0.235542 0.735500 -0.534782
H1    H     H_    0.856259 0.881785 0.435734 0.220388
H2    H     H_    0.209833 0.665027 0.082728 0.160211
H3    H     H_    0.063287 0.105302 0.418572 0.197631
H4    H     H_    0.924878 0.345122 0.125544 0.192734
H5    H     H_    0.172419 0.910205 0.474385 0.194195
H6    H     H_    0.445863 0.550741 0.597768 0.082767
H7    H     H_    0.679654 0.630536 0.592855 0.136503
H8    H     H_    0.757423 0.265534 0.939939 0.207128
H9    H     H_    0.643092 0.586839 0.173421 0.138020
H10   H     H_    0.063994 0.624593 0.879056 0.166938
H11   H     H_    0.435498 0.591989 0.155054 0.152231
N1    N     N_2   0.313640 0.446500 0.454900 0.095084
N2    N     N_2   0.686360 0.553430 0.545150 -0.238113
O1    O     O_R   0.936910 0.692950 0.509080 -0.608058
O2    O     O_R   0.138320 0.658600 0.480130 -0.606904
O3    O     O_R   0.002900 0.525670 0.675280 -0.607337
O4    O     O_R   0.204310 0.491320 0.646330 -0.603099
O5    O     O_R   0.861680 0.341400 0.519870 -0.522945
O6    O     O_R   0.063090 0.307050 0.490920 -0.588117
O7    O     O_R   0.795690 0.508680 0.353670 -0.584916
O8    O     O_R   0.997100 0.474330 0.324720 -0.583621
Zn1   Zn    Zn3+2 0.865520 0.522940 0.519330 1.031687
Zn2   Zn    Zn3+2 0.134480 0.477060 0.480670 1.064056

loop_
_geom_bond_atom_site_label_1
_geom_bond_atom_site_label_2
_ccdc_geom_bond_type
C12   C17   A    
C6    C10   S    
O8    Zn2   S    
C6    C7    D    
C11   O7    A    
C22   Cl5   S    
H7    N2    S    
C2    C18   A    
C23   H9    S    
Cl3   N1    S    
N1    Zn2   S    
C2    C4    S    
C24   H4    S    
C13   C20   A    
N2    Zn1   S    
C3    C5    D    
O1    Zn1   S    
O2    Zn2   S    
C11   O8    A    
C4    O4    A    
C21   C22   A    
C8    N1    D    
C16   H2    S    
C2    C15   A    
C15   H10   S    
C9    N2    D    
C12   C19   A    
C14   C23   A    
C1    O1    A    
C9    Cl2   S    
C4    O3    A    
C10   O6    A    
C11   C14   S    
C6    Cl1   S    
O3    Zn1   S    
C14   C24   A    
C15   C16   A    
O4    Zn2   S    
O6    Zn2   S    
C8    H6    S    
C20   C21   A    
C5    H1    S    
C12   C18   A    
C10   O5    A    
C5    C7    S    
C19   C23   A    
C16   C17   A    
O5    Zn1   S    
C7    H3    S    
C1    O2    A    
C3    H5    S    
O7    Zn1   S    
C18   C22   A    
C13   H8    S    
C21   Cl4   S    
C19   C20   A    
C13   C24   A    
C8    C9    S    
C1    C3    S    
C17   H11   S    
