data_mof_unit_61909.cif
_audit_creation_date              2012-12-10T18:42:46-0500
_audit_creation_method            fapswitch 2.2
_symmetry_space_group_name_H-M    P1
_symmetry_Int_Tables_number       1
_space_group_crystal_system       triclinic
_cell_length_a                    45.105622
_cell_length_b                    31.854688
_cell_length_c                    31.872707
_cell_angle_alpha                 90.001381
_cell_angle_beta                  135.049486
_cell_angle_gamma                 89.999175
_cell_volume                      32354.3413151

loop_
_atom_site_label
_atom_site_type_symbol
_atom_type_description
_atom_site_fract_x
_atom_site_fract_y
_atom_site_fract_z
_atom_type_partial_charge
C1    C     C_R   0.581323 0.000000 0.581351 0.896288
C2    C     C_3   0.999937 0.208758 0.500415 0.088482
C3    C     C_R   0.581384 0.500000 0.081440 0.897926
C4    C     C_3   0.020805 0.033399 0.784405 -0.034182
C5    C     C_3   0.018432 0.965225 0.782023 -0.034396
C6    C     C_3   0.520301 0.533709 0.783899 -0.034210
C7    C     C_3   0.518951 0.465507 0.782543 -0.034371
C8    C     C_3   0.480621 0.535083 0.716265 -0.226150
C9    C     C_3   0.479247 0.465707 0.714886 -0.226192
C10   C     C_3   0.981150 0.035369 0.716796 -0.226119
C11   C     C_3   0.978736 0.966022 0.714373 -0.226415
C12   C     C_1   0.500003 0.500000 0.625836 -0.152664
C13   C     C_3   0.464192 0.236138 0.446840 -0.258098
C14   C     C_1   0.000003 0.000001 0.625836 -0.152738
C15   C     C_1   0.999927 0.999997 0.874242 -0.059756
C16   C     C_1   0.499926 0.499998 0.874241 -0.059750
C17   C     C_3   0.539992 0.499206 0.775745 -0.232686
C18   C     C_3   0.039976 0.998605 0.775729 -0.232595
C19   C     C_3   0.499963 0.499999 0.708620 0.168271
C20   C     C_3   0.999964 1.000000 0.708620 0.168324
C21   C     C_3   0.999938 0.999996 0.791326 -0.017681
C22   C     C_3   0.499937 0.499997 0.791324 -0.017689
C23   C     C_3   0.532575 0.236147 0.512204 0.702601
C24   C     C_3   0.464147 0.763861 0.446887 -0.258252
C25   C     C_3   0.532521 0.763852 0.512054 0.702674
C26   C     C_3   0.031421 0.736152 0.509290 0.702427
C27   C     C_3   0.032571 0.263852 0.512186 0.702714
C28   C     C_3   0.960599 0.001368 0.724088 -0.036248
C29   C     C_3   0.460582 0.500777 0.724071 -0.036344
C30   C     C_1   0.499991 0.500000 0.663289 0.018063
C31   C     C_1   0.999991 0.000001 0.663289 0.017989
C32   C     C_1   0.999929 0.999996 0.836784 0.151970
C33   C     C_1   0.499928 0.499997 0.836783 0.151984
C34   C     C_3   0.017817 0.965171 0.253747 -0.197387
C35   C     C_3   0.963312 0.736134 0.447935 -0.258181
C36   C     C_3   0.018685 0.034371 0.254614 -0.197314
C37   C     C_3   0.517882 0.465205 0.253812 -0.197519
C38   C     C_3   0.518620 0.534407 0.254550 -0.197310
C39   C     C_3   0.478216 0.466014 0.242012 -0.074016
C40   C     C_3   0.478946 0.534447 0.242742 -0.074044
C41   C     C_3   0.978153 0.966054 0.241949 -0.074130
C42   C     C_3   0.979011 0.034486 0.242807 -0.074056
C43   C     C_1   0.499849 0.500004 0.374140 -0.096347
C44   C     C_1   0.999849 0.000005 0.374140 -0.096287
C45   C     C_1   0.999667 0.000003 0.125500 -0.119785
C46   C     C_3   0.964189 0.263861 0.446839 -0.258238
C47   C     C_1   0.499667 0.500003 0.125500 -0.119830
C48   C     C_3   0.538157 0.499594 0.302113 -0.177075
C49   C     C_3   0.038157 0.999523 0.302113 -0.176997
C50   C     C_3   0.498377 0.500020 0.289778 0.057638
C51   C     C_3   0.998377 0.000023 0.289779 0.057613
C52   C     C_3   0.998243 0.000021 0.206923 0.119667
C53   C     C_3   0.498243 0.500018 0.206923 0.119725
C54   C     C_1   0.499861 0.125825 0.499941 -0.107595
C55   C     C_1   0.499863 0.874174 0.499939 -0.107731
C56   C     C_1   0.999877 0.625825 0.499958 -0.107616
C57   C     C_3   0.497717 0.263876 0.458489 -0.208051
C58   C     C_1   0.999862 0.374174 0.499938 -0.107704
C59   C     C_3   0.958665 0.000519 0.194693 -0.133566
C60   C     C_3   0.458664 0.500442 0.194692 -0.133533
C61   C     C_1   0.499348 0.500010 0.336176 0.094682
C62   C     C_1   0.999348 0.000012 0.336176 0.094742
C63   C     C_1   0.999114 0.000009 0.162407 0.051479
C64   C     C_1   0.499114 0.500008 0.162407 0.051430
C65   C     C_1   0.499987 0.374151 0.500082 -0.155506
C66   C     C_1   0.499988 0.625849 0.500080 -0.155419
C67   C     C_1   0.999990 0.874151 0.500083 -0.155536
C68   C     C_3   0.497612 0.736121 0.458383 -0.207902
C69   C     C_1   0.999988 0.125849 0.500080 -0.155416
C70   C     C_3   0.501745 0.236635 0.541913 -0.072754
C71   C     C_3   0.501858 0.763367 0.542015 -0.072660
C72   C     C_3   0.003952 0.736635 0.543960 -0.072849
C73   C     C_3   0.001756 0.263367 0.541917 -0.072631
C74   C     C_3   0.499542 0.208768 0.500582 -0.003565
C75   C     C_3   0.499548 0.791232 0.500582 -0.003560
C76   C     C_3   0.999616 0.708768 0.500671 -0.003407
C77   C     C_3   0.999544 0.291232 0.500577 -0.003590
C78   C     C_2   0.722995 0.000126 0.808339 1.108120
C79   C     C_3   0.995584 0.763877 0.456528 -0.208242
C80   C     C_2   0.222995 0.500189 0.808340 1.108042
C81   C     C_2   0.278008 0.002675 0.362728 0.910121
C82   C     C_2   0.778007 0.502577 0.362731 0.909992
C83   C     C_2   0.044517 0.071369 0.822552 0.937681
C84   C     C_2   0.039446 0.925695 0.817460 0.937672
C85   C     C_2   0.543441 0.572031 0.821472 0.937701
C86   C     C_2   0.540555 0.426297 0.818573 0.937761
C87   C     C_2   0.915868 0.002922 0.693678 0.944947
C88   C     C_2   0.415833 0.501662 0.693642 0.945077
C89   C     C_2   0.455797 0.427326 0.234235 0.954663
C90   C     C_3   0.997710 0.236122 0.458474 -0.207857
C91   C     C_2   0.457358 0.573605 0.235797 0.954759
C92   C     C_2   0.955661 0.927409 0.234099 0.954882
C93   C     C_2   0.957496 0.073685 0.235935 0.954786
C94   C     C_2   0.913975 0.001077 0.135109 0.987240
C95   C     C_2   0.413973 0.500917 0.135107 0.987227
C96   C     C_2   0.503850 0.222288 0.588732 0.954889
C97   C     C_2   0.504086 0.777716 0.588951 0.954773
C98   C     C_2   0.008504 0.722287 0.593047 0.955207
C99   C     C_2   0.003872 0.277715 0.588746 0.954742
C100  C     C_1   0.499719 0.163322 0.500114 0.088729
C101  C     C_R   0.081323 0.500000 0.581351 0.896313
C102  C     C_1   0.499723 0.836678 0.500112 0.088629
C103  C     C_1   0.999758 0.663322 0.500159 0.088665
C104  C     C_1   0.999721 0.336678 0.500110 0.088652
C105  C     C_1   0.499972 0.336651 0.500198 0.017860
C106  C     C_1   0.499974 0.663348 0.500195 0.017872
C107  C     C_1   0.999984 0.836651 0.500207 0.017808
C108  C     C_1   0.999973 0.163348 0.500194 0.017878
C109  C     C_3   0.764247 0.965841 0.784427 0.571057
C110  C     C_3   0.764247 0.034221 0.784330 0.570980
C111  C     C_3   0.264246 0.465857 0.784451 0.571045
C112  C     C_3   0.466274 0.264432 0.488587 -0.163070
C113  C     C_3   0.264247 0.534236 0.784306 0.570868
C114  C     C_3   0.735976 0.965872 0.716981 0.614057
C115  C     C_3   0.735977 0.034077 0.716885 0.614016
C116  C     C_3   0.235976 0.465860 0.717005 0.614095
C117  C     C_3   0.235977 0.534064 0.716860 0.613911
C118  C     C_1   0.625701 0.000001 0.625849 -0.094686
C119  C     C_1   0.125701 0.500002 0.625849 -0.094720
C120  C     C_1   0.874279 0.000000 0.874218 -0.121273
C121  C     C_1   0.374279 0.500000 0.874219 -0.121281
C122  C     C_R   0.499989 0.081366 0.500002 0.893606
C123  C     C_3   0.466338 0.735569 0.488737 -0.163233
C124  C     C_R   0.499989 0.918634 0.500001 0.893347
C125  C     C_R   0.999988 0.581366 0.500001 0.893444
C126  C     C_R   0.999989 0.418634 0.500001 0.893347
C127  C     C_3   0.736728 0.000061 0.777156 -0.393195
C128  C     C_3   0.236728 0.500091 0.777156 -0.393148
C129  C     C_3   0.708504 0.000004 0.709636 -0.294574
C130  C     C_3   0.208504 0.500006 0.709637 -0.294553
C131  C     C_3   0.791509 0.000002 0.791414 -0.240608
C132  C     C_3   0.291509 0.500002 0.791414 -0.240578
C133  C     C_3   0.763640 0.999944 0.723753 -0.445293
C134  C     C_3   0.967557 0.764428 0.491676 -0.162933
C135  C     C_3   0.263640 0.499916 0.723753 -0.445158
C136  C     C_1   0.663144 0.000003 0.663640 0.236313
C137  C     C_1   0.163144 0.500004 0.663641 0.236266
C138  C     C_1   0.836836 0.000001 0.836722 0.197030
C139  C     C_1   0.336836 0.500001 0.836722 0.197021
C140  C     C_3   0.235819 0.035221 0.255262 -0.202862
C141  C     C_3   0.235826 0.966081 0.257443 -0.202901
C142  C     C_3   0.735819 0.535198 0.255303 -0.202979
C143  C     C_3   0.735826 0.466055 0.257404 -0.202898
C144  C     C_3   0.263922 0.033886 0.243675 -0.178723
C145  C     C_3   0.966281 0.235568 0.488595 -0.163267
C146  C     C_3   0.263930 0.964920 0.245850 -0.178724
C147  C     C_3   0.763922 0.533908 0.243713 -0.178788
C148  C     C_3   0.763929 0.464940 0.245809 -0.178688
C149  C     C_1   0.374117 0.000007 0.374131 -0.129881
C150  C     C_1   0.874117 0.500006 0.374131 -0.129938
C151  C     C_1   0.125880 0.000002 0.126020 -0.157364
C152  C     C_1   0.625880 0.500002 0.126020 -0.157398
C153  C     C_R   0.418607 0.999999 0.418600 0.886495
C154  C     C_R   0.918607 0.499999 0.418600 0.886320
C155  C     C_3   0.263516 0.001266 0.303519 0.009816
C156  C     C_3   0.499935 0.291241 0.500420 0.088490
C157  C     C_3   0.763516 0.501219 0.303520 0.009874
C158  C     C_3   0.291129 0.000034 0.291933 0.120160
C159  C     C_3   0.791129 0.500032 0.291933 0.120172
C160  C     C_3   0.208838 0.000018 0.209339 0.181183
C161  C     C_3   0.708837 0.500017 0.209339 0.181218
C162  C     C_3   0.236074 0.998771 0.196898 -0.130491
C163  C     C_3   0.736074 0.498815 0.196897 -0.130435
C164  C     C_1   0.336606 0.000017 0.336866 0.010807
C165  C     C_1   0.836606 0.500016 0.336866 0.010762
C166  C     C_1   0.163394 0.000007 0.163660 -0.032567
C167  C     C_3   0.499939 0.708758 0.500418 0.088498
C168  C     C_1   0.663394 0.500007 0.163660 -0.032601
C169  C     C_R   0.499986 0.500000 0.581399 0.904070
C170  C     C_R   0.999986 0.000000 0.581399 0.904041
C171  C     C_R   0.499990 0.418615 0.500009 0.904399
C172  C     C_R   0.499990 0.581385 0.500009 0.904541
C173  C     C_R   0.999990 0.918615 0.500009 0.904406
C174  C     C_R   0.999990 0.081385 0.500009 0.904563
C175  C     C_R   0.499991 0.500000 0.418693 0.898049
C176  C     C_R   0.999991 1.000000 0.418693 0.898104
C177  C     C_R   0.000067 0.000000 0.081485 0.904022
C178  C     C_3   0.999967 0.791242 0.500449 0.088497
C179  C     C_R   0.500067 0.500000 0.081485 0.904024
C180  C     C_3   0.535475 0.264217 0.554446 -0.271570
C181  C     C_3   0.535529 0.735784 0.554396 -0.271555
C182  C     C_3   0.036466 0.764221 0.553463 -0.271396
C183  C     C_3   0.035481 0.235784 0.554437 -0.271578
C184  C     C_R   0.918658 1.000000 0.918679 0.901608
C185  C     C_R   0.418658 0.500000 0.918679 0.901624
C186  C     C_R   0.999935 0.999999 0.918650 0.887349
C187  C     C_R   0.499935 0.499999 0.918650 0.887363
C188  C     C_R   0.081384 0.000000 0.081440 0.897926
F1    F     F_    0.566642 0.220864 0.524233 -0.623289
F2    F     F_    0.779310 0.069797 0.819196 -0.575386
F3    F     F_    0.279309 0.430352 0.819443 -0.575285
F4    F     F_    0.279311 0.569826 0.819147 -0.575526
F5    F     F_    0.566527 0.779133 0.523928 -0.623240
F6    F     F_    0.064231 0.720874 0.518229 -0.623719
F7    F     F_    0.066633 0.279134 0.524202 -0.623170
F8    F     F_    0.720913 0.930264 0.682194 -0.577854
F9    F     F_    0.720915 0.069628 0.681998 -0.577881
F10   F     F_    0.220913 0.430237 0.682245 -0.577788
F11   F     F_    0.220915 0.569601 0.681948 -0.578093
F12   F     F_    0.779309 0.930323 0.819393 -0.575283
H1    H     H_    0.276064 0.061628 0.238603 0.157118
H2    H     H_    0.723979 0.497824 0.152135 0.150719
H3    H     H_    0.464829 0.563751 0.688469 0.175923
H4    H     H_    0.462334 0.437688 0.685962 0.175877
H5    H     H_    0.965790 0.064271 0.689433 0.175947
H6    H     H_    0.961404 0.938260 0.685030 0.175620
H7    H     H_    0.572711 0.498558 0.796550 0.173803
H8    H     H_    0.072681 0.997466 0.796520 0.173819
H9    H     H_    0.564770 0.276128 0.598408 0.186522
H10   H     H_    0.564864 0.723873 0.598317 0.186546
H11   H     H_    0.066515 0.776136 0.596557 0.186549
H12   H     H_    0.276078 0.936152 0.242561 0.156898
H13   H     H_    0.064779 0.223874 0.598395 0.186551
H14   H     H_    0.033718 0.936589 0.257647 0.169529
H15   H     H_    0.035298 0.062544 0.259227 0.169605
H16   H     H_    0.533837 0.436653 0.257765 0.169434
H17   H     H_    0.535181 0.562611 0.259110 0.169569
H18   H     H_    0.570876 0.499246 0.346830 0.167750
H19   H     H_    0.070875 0.999113 0.346829 0.167798
H20   H     H_    0.496481 0.275683 0.424505 0.171248
H21   H     H_    0.496285 0.724312 0.424312 0.171273
H22   H     H_    0.992556 0.775685 0.420868 0.171201
H23   H     H_    0.776064 0.561670 0.238674 0.157091
H24   H     H_    0.996465 0.224312 0.424483 0.171297
H25   H     H_    0.435023 0.224073 0.402889 0.180448
H26   H     H_    0.434938 0.775926 0.402976 0.180361
H27   H     H_    0.933382 0.724065 0.404839 0.180287
H28   H     H_    0.935017 0.275925 0.402892 0.180380
H29   H     H_    0.439001 0.276780 0.479093 0.170420
H30   H     H_    0.439114 0.723222 0.479368 0.170357
H31   H     H_    0.941298 0.776771 0.484664 0.170390
H32   H     H_    0.939012 0.223222 0.479112 0.170352
H33   H     H_    0.774900 0.999897 0.702073 0.228790
H34   H     H_    0.776078 0.436189 0.242487 0.156905
H35   H     H_    0.274900 0.499845 0.702073 0.228802
H36   H     H_    0.675063 0.000186 0.801593 0.354944
H37   H     H_    0.175063 0.500280 0.801593 0.354915
H38   H     H_    0.326571 0.003958 0.451871 0.357513
H39   H     H_    0.826571 0.503812 0.451875 0.357462
H40   H     H_    0.066039 0.105855 0.892571 0.356493
H41   H     H_    0.058522 0.889791 0.885023 0.356891
H42   H     H_    0.564443 0.606838 0.890969 0.356585
H43   H     H_    0.560163 0.390683 0.886671 0.356798
H44   H     H_    0.875242 0.004320 0.701450 0.359142
H45   H     H_    0.223677 0.063944 0.258658 0.162214
H46   H     H_    0.375190 0.502457 0.701397 0.359160
H47   H     H_    0.435290 0.392584 0.262414 0.355597
H48   H     H_    0.437598 0.608780 0.264724 0.355477
H49   H     H_    0.935089 0.892706 0.262214 0.355669
H50   H     H_    0.937802 0.108898 0.264927 0.355473
H51   H     H_    0.873810 0.001571 0.046027 0.377072
H52   H     H_    0.373808 0.501337 0.046024 0.377063
H53   H     H_    0.505565 0.173835 0.631089 0.358612
H54   H     H_    0.505915 0.826171 0.631416 0.358563
H55   H     H_    0.012453 0.673833 0.637485 0.358808
H56   H     H_    0.223692 0.938390 0.262618 0.162036
H57   H     H_    0.005597 0.326171 0.631112 0.358538
H58   H     H_    0.723678 0.563904 0.258732 0.162146
H59   H     H_    0.723691 0.438344 0.262547 0.162017
H60   H     H_    0.223979 0.997742 0.152138 0.150721
O1    O     O_R   0.561630 0.000000 0.596420 -0.596900
O2    O     O_R   0.965230 1.000000 0.403640 -0.594722
O3    O     O_R   0.000030 0.965220 0.061700 -0.608803
O4    O     O_R   0.000030 0.034780 0.061700 -0.608398
O5    O     O_R   0.500030 0.465220 0.061700 -0.608799
O6    O     O_R   0.500030 0.534780 0.061700 -0.608437
O7    O     O_R   0.938380 0.965210 0.938430 -0.600180
O8    O     O_R   0.938380 0.034790 0.938430 -0.600067
O9    O     O_R   0.438380 0.465210 0.938430 -0.600159
O10   O     O_R   0.438380 0.534790 0.938430 -0.600095
O11   O     O_R   0.999950 0.965200 0.938400 -0.604524
O12   O     O_R   0.061630 0.500000 0.596420 -0.596877
O13   O     O_R   0.999950 0.034800 0.938400 -0.604523
O14   O     O_R   0.499950 0.465200 0.938400 -0.604512
O15   O     O_R   0.499950 0.534800 0.938400 -0.604524
O16   O     O_R   0.061600 0.965210 0.061670 -0.614047
O17   O     O_R   0.061600 0.034790 0.061670 -0.613750
O18   O     O_R   0.561600 0.465210 0.061670 -0.614033
O19   O     O_R   0.561600 0.534790 0.061670 -0.613785
O20   O     O_R   0.561580 0.000000 0.526800 -0.601618
O21   O     O_R   0.061580 0.500000 0.526800 -0.601521
O22   O     O_R   0.500020 0.061610 0.534810 -0.597325
O23   O     O_R   0.465210 0.438380 0.465220 -0.611065
O24   O     O_R   0.500020 0.938390 0.534810 -0.597514
O25   O     O_R   0.000020 0.561610 0.534810 -0.597725
O26   O     O_R   0.000020 0.438390 0.534810 -0.597494
O27   O     O_R   0.499970 0.061600 0.465200 -0.612559
O28   O     O_R   0.499970 0.938400 0.465200 -0.612513
O29   O     O_R   0.999970 0.561600 0.465200 -0.611993
O30   O     O_R   0.999970 0.438400 0.465200 -0.612522
O31   O     O_R   0.438410 0.000000 0.473200 -0.596856
O32   O     O_R   0.938410 0.500000 0.473200 -0.597003
O33   O     O_R   0.438360 0.000000 0.403580 -0.623828
O34   O     O_R   0.465210 0.561620 0.465220 -0.611046
O35   O     O_R   0.938360 0.500000 0.403580 -0.623746
O36   O     O_R   0.534760 0.500000 0.596460 -0.608822
O37   O     O_R   0.034760 0.000000 0.596460 -0.608765
O38   O     O_R   0.465190 0.500000 0.526830 -0.610883
O39   O     O_R   0.965190 0.000000 0.526830 -0.610980
O40   O     O_R   0.534770 0.438380 0.534860 -0.609217
O41   O     O_R   0.534770 0.561620 0.534860 -0.609131
O42   O     O_R   0.034770 0.938380 0.534860 -0.609151
O43   O     O_R   0.034770 0.061620 0.534860 -0.609118
O44   O     O_2   0.749357 0.000166 0.862584 -0.544417
O45   O     O_R   0.965210 0.938380 0.465220 -0.611193
O46   O     O_R   0.680293 0.000140 0.775457 -0.789076
O47   O     O_2   0.249357 0.500249 0.862585 -0.544443
O48   O     O_R   0.180293 0.500211 0.775458 -0.789126
O49   O     O_2   0.252093 0.003560 0.365018 -0.606732
O50   O     O_R   0.320858 0.002973 0.414874 -0.792174
O51   O     O_2   0.752093 0.503430 0.365022 -0.606807
O52   O     O_R   0.820858 0.502863 0.414877 -0.792284
O53   O     O_2   0.059476 0.095293 0.811564 -0.591952
O54   O     O_R   0.049448 0.079295 0.870311 -0.802839
O55   O     O_2   0.052700 0.900789 0.804760 -0.591200
O56   O     O_R   0.965210 0.061620 0.465220 -0.611035
O57   O     O_R   0.043818 0.917443 0.864658 -0.802121
O58   O     O_2   0.558040 0.596175 0.810123 -0.591804
O59   O     O_R   0.548252 0.580031 0.869111 -0.802677
O60   O     O_2   0.554184 0.401594 0.806250 -0.591484
O61   O     O_R   0.545047 0.418111 0.865891 -0.802262
O62   O     O_2   0.887683 0.003911 0.639474 -0.592368
O63   O     O_R   0.906532 0.003234 0.727148 -0.802810
O64   O     O_2   0.387636 0.502224 0.639426 -0.592215
O65   O     O_R   0.406493 0.501840 0.727108 -0.802796
O66   O     O_2   0.441809 0.402631 0.194435 -0.587924
O67   O     O_R   0.534790 0.500000 0.473270 -0.621334
O68   O     O_R   0.450956 0.419659 0.272263 -0.795270
O69   O     O_2   0.443900 0.598592 0.196528 -0.588169
O70   O     O_R   0.452682 0.581377 0.273990 -0.795372
O71   O     O_2   0.941627 0.902740 0.194253 -0.587750
O72   O     O_R   0.950806 0.919751 0.272113 -0.795165
O73   O     O_2   0.944085 0.098697 0.196713 -0.588151
O74   O     O_R   0.952834 0.081466 0.274143 -0.795393
O75   O     O_2   0.885519 0.001438 0.132304 -0.576977
O76   O     O_R   0.905060 0.001182 0.083272 -0.770098
O77   O     O_2   0.385516 0.501224 0.132302 -0.576977
O78   O     O_R   0.034790 1.000000 0.473270 -0.621303
O79   O     O_R   0.405058 0.501006 0.083270 -0.770116
O80   O     O_2   0.505375 0.248304 0.618394 -0.592178
O81   O     O_R   0.504065 0.179452 0.598315 -0.789740
O82   O     O_2   0.505688 0.751702 0.618685 -0.592560
O83   O     O_R   0.504329 0.820553 0.598560 -0.789813
O84   O     O_2   0.011560 0.748302 0.624118 -0.591649
O85   O     O_R   0.009242 0.679450 0.603126 -0.789481
O86   O     O_2   0.005402 0.251701 0.618413 -0.592731
O87   O     O_R   0.004090 0.320553 0.598331 -0.789829
O88   O     O_R   0.465230 0.500000 0.403640 -0.594713
Zn1   Zn    Zn3+2 0.500030 0.000000 0.546480 1.058504
Zn2   Zn    Zn3+2 0.999990 0.046460 0.000050 1.043693
Zn3   Zn    Zn3+2 0.499990 0.453540 0.000050 1.043171
Zn4   Zn    Zn3+2 0.499990 0.546460 0.000050 1.043584
Zn5   Zn    Zn3+2 0.000030 0.500000 0.546480 1.058204
Zn6   Zn    Zn3+2 0.499960 1.000000 0.453520 1.032288
Zn7   Zn    Zn3+2 0.999960 0.500000 0.453520 1.032848
Zn8   Zn    Zn3+2 0.546440 0.500000 0.546540 1.023012
Zn9   Zn    Zn3+2 0.046440 0.000000 0.546540 1.023083
Zn10  Zn    Zn3+2 0.453540 0.500000 0.453560 1.032282
Zn11  Zn    Zn3+2 0.953540 0.000000 0.453560 1.032111
Zn12  Zn    Zn3+2 0.999990 0.953540 0.000050 1.043163

loop_
_geom_bond_atom_site_label_1
_geom_bond_atom_site_label_2
_ccdc_geom_bond_type
C83   O54   S    
C111  F3    S    
O43   Zn9   S    
C22   C29   S    
O18   Zn3   S    
H50   O74   S    
C36   C42   S    
C14   C170  S    
O8    Zn2   S    
C87   O63   S    
C15   C32   T    
C78   O44   D    
C6    C85   S    
C114  F8    S    
O9    Zn3   S    
C35   H27   S    
C10   H5    S    
C13   C112  S    
C36   H15   S    
C13   H25   S    
C53   C64   S    
C171  O23   A    
O17   Zn2   S    
O19   Zn4   S    
C27   C90   S    
C142  H58   S    
C2    C90   S    
C149  C153  S    
C29   C88   S    
C43   C175  S    
C9    C19   S    
C10   C20   S    
C49   C51   S    
C70   C74   S    
O7    Zn12  S    
C11   H6    S    
C160  C166  S    
O11   Zn12  S    
C117  F11   S    
C4    C18   S    
C76   C103  S    
C48   C50   S    
C162  H60   S    
C155  C158  S    
C78   C127  S    
C35   C134  S    
C161  C163  S    
C99   O87   S    
C151  C188  S    
C101  O12   A    
C125  O25   A    
C11   C20   S    
C4    C83   S    
O4    Zn2   S    
C47   C64   T    
C74   C100  S    
C5    C18   S    
C110  F2    S    
C112  H29   S    
O24   Zn1   S    
C101  C119  S    
C37   C53   S    
C146  C162  S    
C3    O19   A    
C92   O72   S    
C110  C131  S    
C178  C182  S    
C70   C112  S    
C185  O10   A    
C26   C182  S    
C176  O2    A    
C21   C28   S    
O3    Zn12  S    
C105  C156  S    
C120  C138  T    
C26   F6    S    
C80   O47   D    
C118  C136  T    
C43   C61   T    
C79   H22   S    
C98   O85   S    
C56   C103  T    
C52   C63   S    
C46   C77   S    
O1    Zn1   S    
C171  O40   A    
O16   Zn12  S    
C7    C22   S    
O25   Zn5   S    
C44   C62   T    
C177  O3    A    
O34   Zn10  S    
C131  C138  S    
C156  C180  S    
C175  O67   A    
C38   C53   S    
C39   C60   S    
C2    C108  S    
O78   Zn9   S    
C2    C183  S    
C86   O61   S    
C27   C183  S    
H54   O83   S    
C187  O14   A    
C116  C130  S    
C73   C77   S    
C19   C30   S    
C39   C89   S    
C125  O29   A    
C183  H13   S    
C40   C60   S    
C42   C93   S    
C71   C181  S    
C14   C31   T    
C142  C161  S    
C116  C135  S    
C132  C139  S    
C71   C97   S    
O26   Zn5   S    
C49   H19   S    
C8    C29   S    
C71   C123  S    
C52   C59   S    
C153  O31   A    
C73   C183  S    
O12   Zn5   S    
C7    C86   S    
C13   C57   S    
C94   O76   S    
H55   O85   S    
H53   O81   S    
C186  O11   A    
C7    C17   S    
C96   O80   D    
C175  O88   A    
C37   H16   S    
C38   C48   S    
C36   C52   S    
C93   O73   D    
C173  O42   A    
C91   O69   D    
C51   C62   S    
O38   Zn10  S    
C65   C105  T    
C53   C60   S    
C109  C127  S    
H51   O76   S    
O39   Zn11  S    
O31   Zn1   S    
C143  C148  S    
C57   C156  S    
C35   C76   S    
C8    C19   S    
C143  H59   S    
C5    C84   S    
C98   O84   D    
C80   C128  S    
O2    Zn11  S    
C24   C123  S    
C159  C165  S    
C73   C145  S    
C181  H10   S    
C160  C162  S    
C70   C96   S    
C122  O27   A    
C127  C129  S    
C9    H4    S    
C85   O59   S    
C86   O60   D    
O6    Zn4   S    
C28   C87   S    
C5    C21   S    
C149  C164  T    
C120  C184  S    
C111  C116  S    
C109  C114  S    
C113  C117  S    
H52   O79   S    
C58   C126  S    
C126  O26   A    
C58   C104  T    
C23   C74   S    
C169  O36   A    
C184  O7    A    
C25   F5    S    
C23   C57   S    
C113  F4    S    
C81   O50   S    
C83   O53   D    
C34   C49   S    
H42   O59   S    
C141  H56   S    
C142  C147  S    
C96   O81   S    
C44   C176  S    
C109  F12   S    
C42   C59   S    
O36   Zn8   S    
C12   C169  S    
C146  C158  S    
C57   H20   S    
C81   O49   D    
C81   C155  S    
C101  O21   A    
C106  C167  S    
C121  C139  T    
C147  C163  S    
C140  C160  S    
H46   O65   S    
C123  H30   S    
C35   C79   S    
O28   Zn6   S    
C40   C91   S    
C144  H1    S    
C179  O6    A    
C172  O41   A    
C157  C159  S    
C112  C156  S    
C111  C128  S    
C50   C61   S    
C174  O43   A    
O13   Zn2   S    
C144  C158  S    
O15   Zn4   S    
C187  O15   A    
C113  C132  S    
H36   O46   S    
C113  C128  S    
C48   H18   S    
C2    C145  S    
C115  F9    S    
C55   C102  T    
C3    C152  S    
O20   Zn6   S    
C5    C11   S    
C143  C161  S    
C6    C22   S    
C73   C99   S    
C97   O83   S    
O27   Zn6   S    
C6    C17   S    
H39   O52   S    
C126  O30   A    
C109  C131  S    
O32   Zn5   S    
C59   C94   S    
O56   Zn11  S    
C169  O38   A    
O5    Zn3   S    
C185  O9    A    
O22   Zn1   S    
H57   O87   S    
C148  C163  S    
C38   H17   S    
C25   C68   S    
C80   O48   S    
O33   Zn6   S    
C152  C168  T    
C188  O17   A    
C15   C186  S    
C154  O35   A    
C17   H7    S    
C34   H14   S    
C141  C155  S    
C6    C8    S    
C158  C164  S    
C115  C133  S    
C27   C77   S    
C25   C75   S    
C148  C159  S    
C34   C41   S    
C116  F10   S    
O35   Zn7   S    
C95   O79   S    
O30   Zn7   S    
C133  H33   S    
C56   C125  S    
C134  C178  S    
C122  O22   A    
C23   C180  S    
C141  C146  S    
C124  O28   A    
C114  C129  S    
C135  H35   S    
C27   F7    S    
C69   C174  S    
C142  C157  S    
C147  H23   S    
C10   C28   S    
C55   C124  S    
C12   C30   T    
C8    H3    S    
C140  C144  S    
C16   C187  S    
C128  C130  S    
C146  H12   S    
C24   C75   S    
C46   C90   S    
C173  O45   A    
H41   O57   S    
C34   C52   S    
C26   C79   S    
O88   Zn10  S    
H43   O61   S    
O14   Zn3   S    
C37   C39   S    
C38   C40   S    
H37   O48   S    
C70   C180  S    
C92   O71   D    
C11   C28   S    
C67   C173  S    
C40   C50   S    
C154  O32   A    
C182  H11   S    
C148  H34   S    
C180  H9    S    
C170  O39   A    
C24   C68   S    
C140  C155  S    
H47   O68   S    
C82   O52   S    
C13   C74   S    
C46   H28   S    
C77   C104  S    
C130  C137  S    
C110  C115  S    
C36   C49   S    
C87   O62   D    
C95   O77   D    
C163  H2    S    
C68   H21   S    
C72   C76   S    
C147  C159  S    
C186  O13   A    
C72   C98   S    
C90   H24   S    
C65   C171  S    
C66   C172  S    
C177  O4    A    
C176  O78   A    
H40   O54   S    
C46   C145  S    
O41   Zn8   S    
O42   Zn9   S    
C18   H8    S    
C84   O55   D    
C47   C179  S    
C85   O58   D    
C72   C134  S    
C75   C102  S    
C26   C76   S    
C88   O64   D    
C99   O86   D    
C9    C29   S    
C42   C51   S    
C1    C118  S    
C123  C167  S    
C54   C122  S    
C60   C95   S    
C89   O66   D    
C54   C100  T    
C66   C106  T    
C24   H26   S    
C82   O51   D    
O10   Zn4   S    
C69   C108  T    
C25   C181  S    
C143  C157  S    
C21   C32   S    
C140  H45   S    
C119  C137  T    
C41   C59   S    
C1    O20   A    
C82   C157  S    
C3    O18   A    
C188  O16   A    
C153  O33   A    
C78   O46   S    
C150  C165  T    
C45   C63   T    
C94   O75   D    
O29   Zn7   S    
C170  O37   A    
C16   C33   T    
C129  C136  S    
H48   O70   S    
C141  C160  S    
C41   C92   S    
C79   C178  S    
C134  H31   S    
C37   C48   S    
C117  C130  S    
C1    O1    A    
C93   O74   S    
C179  O5    A    
C41   C51   S    
O21   Zn7   S    
C107  C178  S    
C184  O8    A    
C91   O70   S    
C4    C10   S    
C23   F1    S    
C115  C129  S    
C7    C9    S    
C22   C33   S    
C144  C162  S    
H44   O63   S    
C145  H32   S    
H49   O72   S    
C131  C133  S    
C88   O65   S    
O45   Zn11  S    
C45   C177  S    
C151  C166  T    
O67   Zn8   S    
C110  C127  S    
O23   Zn10  S    
C72   C182  S    
C84   O57   S    
C71   C75   S    
C4    C21   S    
O40   Zn8   S    
C67   C107  T    
C167  C181  S    
C132  C135  S    
C172  O34   A    
C17   C19   S    
C114  C133  S    
O37   Zn9   S    
C18   C20   S    
C97   O82   D    
C161  C168  S    
C121  C185  S    
C68   C167  S    
C111  C132  S    
C39   C50   S    
H38   O50   S    
C150  C154  S    
C89   O68   S    
C174  O56   A    
C124  O24   A    
C20   C31   S    
C117  C135  S    
