data_mof_unit_48641.cif
_audit_creation_date              2012-12-11T15:42:48-0500
_audit_creation_method            fapswitch 2.2
_symmetry_space_group_name_H-M    P1
_symmetry_Int_Tables_number       1
_space_group_crystal_system       triclinic
_cell_length_a                    6.94177
_cell_length_b                    14.582007
_cell_length_c                    16.227379
_cell_angle_alpha                 90.683884
_cell_angle_beta                  89.591675
_cell_angle_gamma                 90.074763
_cell_volume                      1642.45550365

loop_
_atom_site_label
_atom_site_type_symbol
_atom_type_description
_atom_site_fract_x
_atom_site_fract_y
_atom_site_fract_z
_atom_type_partial_charge
O1    O     O_R   0.505810 0.583360 0.413880 -0.512682
O2    O     O_R   0.175870 0.595480 0.585520 -0.547955
O3    O     O_R   0.005540 0.416640 0.586120 -0.546997
C1    C     C_R   0.343248 0.615961 0.616071 0.679776
O4    O     O_R   0.176100 0.594390 0.414490 -0.544369
O5    O     O_R   0.005770 0.415540 0.413870 -0.542855
C2    C     C_R   0.345986 0.618633 0.387651 0.714365
O6    O     O_R   0.505580 0.584460 0.586130 -0.541362
O7    O     O_3   0.339190 0.441320 0.500000 -0.372970
V1    V     V_3+5 0.064350 0.510890 0.500000 1.401146
O8    O     O_R   0.676050 0.404520 0.414480 -0.546040
C3    C     C_R   0.845395 0.381883 0.385937 0.683137
O9    O     O_R   0.675830 0.405610 0.585510 -0.508782
C4    C     C_R   0.844452 0.382844 0.612437 0.754288
V2    V     V_3+5 0.564340 0.489110 0.500000 1.455873
O10   O     O_3   0.839370 0.558680 0.500000 -0.370037
C5    C     C_2   0.734733 0.199480 0.779604 -0.326306
C6    C     C_2   0.891862 0.185590 0.827045 0.206202
H1    H     H_    0.605806 0.160063 0.793465 0.144108
C7    C     C_2   0.713861 0.264307 0.709072 0.449783
C8    C     C_2   0.860753 0.315096 0.678460 -0.416312
H2    H     H_    0.005715 0.307335 0.699586 0.191478
C9    C     C_R   0.047155 0.222039 0.219596 -0.161359
H3    H     H_    0.187807 0.202928 0.195843 0.116033
C10   C     C_R   0.036208 0.285874 0.284576 -0.151072
H4    H     H_    0.168883 0.314231 0.308670 0.117564
C11   C     C_R   0.856765 0.312849 0.317733 -0.046125
C12   C     C_R   0.688627 0.273876 0.284340 -0.159584
H5    H     H_    0.547980 0.292773 0.308242 0.115765
C13   C     C_R   0.699585 0.210028 0.219368 -0.157798
H6    H     H_    0.566940 0.181488 0.195409 0.117495
C14   C     C_R   0.878972 0.183433 0.185928 -0.050074
C15   C     C_R   0.193172 0.694619 0.744332 0.145422
C16   C     C_R   0.210549 0.759738 0.808719 -0.182833
H7    H     H_    0.091631 0.769552 0.851552 0.119965
C17   C     C_R   0.380176 0.810345 0.820614 -0.069287
C18   C     C_R   0.535276 0.795777 0.766259 -0.169734
H8    H     H_    0.667851 0.834184 0.773567 0.119204
C19   C     C_R   0.519464 0.733348 0.700363 -0.202491
H9    H     H_    0.640576 0.726118 0.658404 0.121938
C20   C     C_R   0.349859 0.681956 0.687572 -0.058935
C21   C     C_R   0.190802 0.730879 0.291998 -0.271841
H10   H     H_    0.053342 0.710511 0.317000 0.209023
C22   C     C_R   0.200165 0.803921 0.235930 0.152730
C23   C     C_R   0.375622 0.820063 0.192330 -0.112237
C24   C     C_R   0.543023 0.779276 0.223410 -0.276751
H11   H     H_    0.680081 0.794130 0.195366 0.133587
C25   C     C_R   0.536642 0.725974 0.295138 0.431511
C26   C     C_R   0.358313 0.690701 0.322785 -0.183628
O11   O     O_R   0.230120 0.912300 0.917180 -0.539256
O12   O     O_R   0.559740 0.902430 0.088770 -0.546162
O13   O     O_R   0.729930 0.081310 0.089370 -0.541902
C27   C     C_R   0.389856 0.883231 0.119859 0.709151
O14   O     O_R   0.559840 0.901330 0.917750 -0.542023
O15   O     O_R   0.730030 0.080210 0.917120 -0.554419
C28   C     C_R   0.391312 0.879141 0.888895 0.701125
O16   O     O_R   0.230020 0.913400 0.089430 -0.539068
O17   O     O_3   0.396460 0.055470 0.003290 -0.368398
V3    V     V_3+5 0.671360 0.985960 0.003250 1.384696
O18   O     O_R   0.059740 0.091300 0.917690 -0.519809
C29   C     C_R   0.891927 0.113793 0.890505 0.675936
O19   O     O_R   0.059640 0.092400 0.088720 -0.546255
C30   C     C_R   0.890297 0.114887 0.117353 0.679504
V4    V     V_3+5 0.171350 0.007820 0.003190 1.412249
O20   O     O_3   0.896380 0.938200 0.003220 -0.373903
C31   C     C_3   0.030440 0.869188 0.234060 -0.345352
C32   C     C_3   0.083549 0.963854 0.268659 -0.747030
H12   H     H_    0.141975 0.957526 0.331894 0.212639
H13   H     H_    0.192294 0.998483 0.229507 0.223183
H14   H     H_    0.952629 0.007411 0.271929 0.207428
H15   H     H_    0.967570 0.873982 0.171782 0.198972
H16   H     H_    0.913968 0.843877 0.274457 0.196326
O21   O     O_3   0.700638 0.719092 0.342745 -0.561221
C33   C     C_3   0.682561 0.782893 0.409356 0.103674
H17   H     H_    0.569676 0.760108 0.453655 0.112058
H18   H     H_    0.644324 0.852740 0.387330 0.106425
C34   C     C_3   0.870865 0.791456 0.456504 -0.745474
H19   H     H_    0.980964 0.827546 0.419192 0.205912
H20   H     H_    0.846389 0.831924 0.514032 0.166629
H21   H     H_    0.925954 0.723059 0.473170 0.254072
O22   O     O_3   0.064375 0.230522 0.813160 -0.548945
C35   C     C_3   0.085403 0.301218 0.872643 0.101558
H22   H     H_    0.073947 0.274743 0.936642 0.105924
H23   H     H_    0.974096 0.355063 0.863733 0.113726
C36   C     C_3   0.283494 0.344565 0.862545 -0.673495
H24   H     H_    0.301671 0.370746 0.798990 0.241087
H25   H     H_    0.299945 0.402426 0.907051 0.158617
H26   H     H_    0.397096 0.292885 0.874314 0.224430
O23   O     O_3   0.531736 0.272025 0.675450 -0.537410
C37   C     C_3   0.507611 0.200825 0.616543 0.142418
H27   H     H_    0.536554 0.132141 0.643240 0.096602
H28   H     H_    0.605383 0.211535 0.562769 0.099044
C38   C     C_3   0.300963 0.200904 0.586108 -0.703471
H29   H     H_    0.264333 0.268949 0.560701 0.236105
H30   H     H_    0.283326 0.147991 0.536950 0.156757
H31   H     H_    0.201079 0.184957 0.637718 0.230219
C39   C     C_3   0.008447 0.638691 0.741912 -0.359434
C40   C     C_3   0.042611 0.539920 0.768212 -0.727565
H32   H     H_    0.146181 0.504684 0.726332 0.227301
H33   H     H_    0.099846 0.538851 0.831936 0.216464
H34   H     H_    0.904226 0.501691 0.767093 0.205523
H35   H     H_    0.898994 0.668274 0.784914 0.171466
H36   H     H_    0.939997 0.641196 0.680607 0.193393

loop_
_geom_bond_atom_site_label_1
_geom_bond_atom_site_label_2
_ccdc_geom_bond_type
C38   H29   S    
O15   V3    S    
O11   V4    S    
O21   C33   S    
C22   C31   S    
C1    O6    A    
C6    O22   S    
C39   C40   S    
C19   C20   A    
C36   H24   S    
C18   H8    S    
C33   H18   S    
C37   C38   S    
C4    C8    S    
C12   H5    S    
O5    C3    A    
C13   H6    S    
C34   H21   S    
C1    C20   S    
V2    O10   S    
C5    C7    S    
C16   H7    S    
O19   V4    S    
O8    V2    S    
C31   H16   S    
C33   C34   S    
C9    H3    S    
O1    V2    S    
O7    V1    S    
C16   C17   A    
C39   H35   S    
C34   H19   S    
C36   H25   S    
C31   C32   S    
C23   C27   S    
C38   H30   S    
C8    H2    S    
C21   C22   A    
O22   C35   S    
C24   C25   A    
O14   V3    S    
C34   H20   S    
O17   V4    S    
O14   C28   A    
C33   H17   S    
C3    C11   S    
C32   H12   S    
C2    C26   S    
C19   H9    S    
O4    C2    A    
C27   O16   A    
O17   V3    S    
C23   C24   A    
O11   C28   A    
O18   C29   A    
O12   C27   A    
O2    C1    A    
O19   C30   A    
C17   C28   S    
O13   V3    S    
C37   H28   S    
C31   H15   S    
C5    C6    D    
C39   H36   S    
O3    C4    A    
C25   C26   A    
C35   H22   S    
O6    V2    S    
C40   H33   S    
O9    V2    S    
C10   C11   A    
O12   V3    S    
C21   H10   S    
C35   C36   S    
C22   C23   A    
O16   V4    S    
C36   H26   S    
C24   H11   S    
C17   C18   A    
O1    C2    A    
C25   O21   S    
C14   C30   S    
O13   C30   A    
O5    V1    S    
O8    C3    A    
C6    C29   S    
C38   H31   S    
C40   H34   S    
C7    O23   S    
C35   H23   S    
O18   V4    S    
C32   H14   S    
C15   C20   A    
C9    C14   A    
C12   C13   A    
C10   H4    S    
O4    V1    S    
C18   C19   A    
O3    V1    S    
V1    O10   S    
V3    O20   S    
C13   C14   A    
C37   H27   S    
O15   C29   A    
V4    O20   S    
C5    H1    S    
C15   C16   A    
C15   C39   S    
C9    C10   A    
O7    V2    S    
C21   C26   A    
C7    C8    D    
C40   H32   S    
C11   C12   A    
C32   H13   S    
O23   C37   S    
O9    C4    A    
O2    V1    S    
