data_mof_unit_26464.cif
_audit_creation_date              2012-10-26T20:19:31-0400
_audit_creation_method            fapswitch 2.2
_symmetry_space_group_name_H-M    P1
_symmetry_Int_Tables_number       1
_space_group_crystal_system       triclinic
_cell_length_a                    10.74085
_cell_length_b                    10.86007
_cell_length_c                    9.574771
_cell_angle_alpha                 90.428419
_cell_angle_beta                  90.054374
_cell_angle_gamma                 92.777878
_cell_volume                      1115.51785876

loop_
_atom_site_label
_atom_site_type_symbol
_atom_type_description
_atom_site_fract_x
_atom_site_fract_y
_atom_site_fract_z
_atom_type_partial_charge
C1    C     C_R   0.509973 0.263139 0.500253 0.546377
C2    C     C_R   0.535461 0.065767 0.630363 0.024046
C3    C     C_R   0.521158 0.129381 0.502738 -0.013858
C4    C     C_R   0.260138 0.502860 0.499645 0.551074
C5    C     C_R   0.500219 0.062863 0.378540 -0.165242
C6    C     C_R   0.489432 0.935605 0.380212 -0.155367
C7    C     C_R   0.488152 0.872279 0.507169 -0.007668
C8    C     C_R   0.665719 0.664704 0.145598 -0.101234
C9    C     C_R   0.746870 0.744901 0.073887 -0.180289
C10   C     C_R   0.747078 0.744540 0.929998 -0.170329
C11   C     C_R   0.665917 0.664196 0.857051 -0.096340
C12   C     C_3   0.878238 0.504322 0.498889 0.038996
C13   C     C_R   0.581510 0.580869 0.925823 0.148374
C14   C     C_R   0.581436 0.580957 0.075533 0.157512
C15   C     C_R   0.422590 0.422886 0.073244 -0.007010
C16   C     C_R   0.493098 0.737586 0.501606 0.537197
C17   C     C_R   0.422637 0.422910 0.925168 -0.009399
C18   C     C_R   0.740163 0.502288 0.499883 0.529629
C19   C     C_3   0.066370 0.379529 0.548479 -0.251282
C20   C     C_3   0.922791 0.379407 0.551457 -0.237956
C21   C     C_3   0.076912 0.607817 0.597878 -0.231353
C22   C     C_3   0.071830 0.529137 0.346922 -0.099464
C23   C     C_3   0.933242 0.609239 0.594938 -0.244776
C24   C     C_3   0.122123 0.505925 0.497782 0.035839
C25   C     C_1   0.122121 0.647000 0.287860 0.194812
C26   C     C_3   0.928470 0.526165 0.348423 -0.224035
C27   C     C_R   0.583907 0.123338 0.753667 -0.098681
C28   C     C_R   0.570651 0.065722 0.882626 -0.133482
C29   C     C_R   0.508944 0.950762 0.890813 -0.122555
C30   C     C_R   0.472216 0.888170 0.768821 -0.097431
C31   C     C_R   0.497927 0.939830 0.635478 0.020946
Cu1   Cu    Cu3+1 0.499990 0.499990 0.640660 0.897984
Cu2   Cu    Cu3+1 0.500010 0.500010 0.359340 0.923387
H1    H     H_    0.101431 0.359388 0.654957 0.126562
H2    H     H_    0.479923 0.886850 0.281341 0.146258
H3    H     H_    0.359199 0.359744 0.128077 0.110644
H4    H     H_    0.096152 0.304625 0.477806 0.111182
H5    H     H_    0.673801 0.672432 0.255701 0.180300
H6    H     H_    0.810196 0.807720 0.130727 0.124718
H7    H     H_    0.810276 0.807311 0.874120 0.122342
H8    H     H_    0.673177 0.672172 0.747037 0.184844
H9    H     H_    0.359328 0.359717 0.869086 0.119364
H10   H     H_    0.883180 0.302799 0.484665 0.111427
H11   H     H_    0.889295 0.362451 0.659945 0.127151
H12   H     H_    0.892891 0.613602 0.307559 0.121046
H13   H     H_    0.108168 0.590384 0.706526 0.133601
H14   H     H_    0.897343 0.597738 0.703223 0.131004
H15   H     H_    0.101216 0.454113 0.276093 0.107572
H16   H     H_    0.892389 0.450773 0.277581 0.124206
H17   H     H_    0.117993 0.699786 0.567732 0.126244
H18   H     H_    0.904186 0.700093 0.556858 0.105381
H19   H     H_    0.491978 0.109117 0.279320 0.134251
H20   H     H_    0.634406 0.211834 0.751869 0.141917
H21   H     H_    0.604941 0.111947 0.976615 0.109641
H22   H     H_    0.491811 0.908695 0.991601 0.121507
H23   H     H_    0.419787 0.801905 0.782313 0.153901
N1    N     N_R   0.501200 0.501210 0.147910 -0.241116
N2    N     N_R   0.501250 0.501290 0.852040 -0.250083
N3    N     N_1   0.161585 0.739040 0.241766 -0.317852
O1    O     O_R   0.499990 0.319640 0.618810 -0.508072
O2    O     O_R   0.500000 0.319660 0.381240 -0.505126
O3    O     O_R   0.317680 0.499970 0.618790 -0.508197
O4    O     O_R   0.317700 0.499990 0.381210 -0.495078
O5    O     O_R   0.500000 0.680340 0.618760 -0.536974
O6    O     O_R   0.500010 0.680360 0.381190 -0.514563
O7    O     O_R   0.682300 0.500010 0.618790 -0.528845
O8    O     O_R   0.682320 0.500030 0.381210 -0.527577

loop_
_geom_bond_atom_site_label_1
_geom_bond_atom_site_label_2
_ccdc_geom_bond_type
C8    C9    A    
C22   H15   S    
C27   H20   S    
C5    H19   S    
C6    C7    A    
C13   N2    A    
C18   O7    A    
C16   O5    A    
C9    C10   A    
C23   H18   S    
C19   C20   S    
C4    O4    A    
Cu1   N2    S    
C17   N2    A    
Cu2   O4    S    
C2    C27   A    
Cu1   Cu2   S    
C12   C20   S    
C19   C24   S    
Cu2   O6    S    
C19   H4    S    
C13   C14   A    
C15   N1    A    
C12   C23   S    
Cu2   O8    S    
C29   C30   A    
C8    H5    S    
C8    C14   A    
Cu1   O7    S    
C28   C29   A    
C20   H11   S    
C11   H8    S    
C2    C3    A    
C21   C23   S    
C5    C6    A    
C4    C24   S    
C22   C24   S    
C21   C24   S    
C26   H16   S    
C23   H14   S    
C10   C11   A    
Cu1   O1    S    
Cu1   O3    S    
C4    O3    A    
C15   H3    S    
C11   C13   A    
C20   H10   S    
C7    C31   A    
C6    H2    S    
Cu1   O5    S    
Cu2   O2    S    
C21   H13   S    
C22   C26   S    
C1    O1    A    
C12   C18   S    
C27   C28   A    
C15   C17   A    
C14   N1    A    
C28   H21   S    
C30   C31   A    
C21   H17   S    
C10   H7    S    
Cu2   N1    S    
C16   O6    A    
C25   N3    T    
C26   H12   S    
C3    C5    A    
C18   O8    A    
C17   H9    S    
C29   H22   S    
C30   H23   S    
C19   H1    S    
C9    H6    S    
C7    C16   S    
C12   C26   S    
C2    C31   A    
C1    C3    S    
C22   C25   S    
C1    O2    A    
