data_mof_unit_8723.cif
_audit_creation_date              2013-03-05T15:44:36-0500
_audit_creation_method            fapswitch 2.2
_symmetry_space_group_name_H-M    P1
_symmetry_Int_Tables_number       1
_space_group_crystal_system       triclinic
_cell_length_a                    18.919565
_cell_length_b                    11.039719
_cell_length_c                    18.771445
_cell_angle_alpha                 89.976003
_cell_angle_beta                  89.551815
_cell_angle_gamma                 90.237449
_cell_volume                      3920.57540021

loop_
_atom_site_label
_atom_site_type_symbol
_atom_site_description
_atom_site_fract_x
_atom_site_fract_y
_atom_site_fract_z
_atom_type_partial_charge
O1    O     O_R   0.787540 0.042690 0.170470 -0.401582
O2    O     O_R   0.212460 0.042690 0.829530 -0.421057
O3    O     O_R   0.287540 0.542690 0.170470 -0.400229
O4    O     O_R   0.712460 0.542690 0.829530 -0.426213
O5    O     O_R   0.765660 0.292160 0.175050 -0.470007
O6    O     O_R   0.234340 0.292160 0.824950 -0.486867
O7    O     O_R   0.265660 0.792160 0.175050 -0.469714
O8    O     O_R   0.734340 0.792160 0.824950 -0.495136
C1    C     C_R   0.729886 0.376774 0.146248 0.601516
C2    C     C_R   0.266869 0.385711 0.850076 0.599979
C3    C     C_R   0.230020 0.876707 0.146250 0.594832
C4    C     C_R   0.767210 0.884326 0.850697 0.597491
O9    O     O_R   0.670190 0.408980 0.168550 -0.474066
O10   O     O_R   0.329810 0.408980 0.831450 -0.430002
O11   O     O_R   0.170190 0.908980 0.168550 -0.475117
O12   O     O_R   0.829810 0.908980 0.831450 -0.431781
O13   O     O_R   0.556580 0.251450 0.175160 -0.489812
O14   O     O_R   0.443420 0.251450 0.824840 -0.444721
O15   O     O_R   0.056580 0.751450 0.175160 -0.488341
O16   O     O_R   0.943420 0.751450 0.824840 -0.452053
C5    C     C_R   0.529650 0.155013 0.147819 0.567081
C6    C     C_R   0.468963 0.154889 0.853791 0.614076
C7    C     C_R   0.030844 0.655624 0.146964 0.569595
C8    C     C_R   0.968250 0.652543 0.853608 0.623385
O17   O     O_R   0.545920 0.049510 0.170320 -0.459522
O18   O     O_R   0.454080 0.049510 0.829680 -0.444189
O19   O     O_R   0.045920 0.549510 0.170320 -0.457668
O20   O     O_R   0.954080 0.549510 0.829680 -0.453195
O21   O     O_R   0.681390 0.957840 0.176710 -0.460519
O22   O     O_R   0.318610 0.957840 0.823290 -0.443230
O23   O     O_R   0.181390 0.457840 0.176710 -0.455021
O24   O     O_R   0.818610 0.457840 0.823290 -0.434439
C9    C     C_R   0.727850 0.020572 0.139827 0.557067
C10   C     C_R   0.272880 0.020948 0.859833 0.578078
C11   C     C_R   0.227846 0.520954 0.139708 0.558907
C12   C     C_R   0.772696 0.521400 0.859831 0.570848
O25   O     O_R   0.787500 0.044280 0.330990 -0.485865
O26   O     O_R   0.212500 0.044280 0.669010 -0.480913
O27   O     O_R   0.287500 0.544280 0.330990 -0.482468
O28   O     O_R   0.712500 0.544280 0.669010 -0.482416
O29   O     O_R   0.765610 0.293630 0.323860 -0.444371
O30   O     O_R   0.234390 0.293630 0.676140 -0.453456
O31   O     O_R   0.265610 0.793630 0.323860 -0.444200
O32   O     O_R   0.734390 0.793630 0.676140 -0.450718
C13   C     C_R   0.729135 0.377019 0.353334 0.593191
C14   C     C_R   0.270844 0.377160 0.646656 0.576122
C15   C     C_R   0.229127 0.876998 0.353345 0.592044
C16   C     C_R   0.770842 0.877163 0.646657 0.576121
O33   O     O_R   0.670140 0.410570 0.329080 -0.500876
O34   O     O_R   0.329860 0.410570 0.670920 -0.507882
O35   O     O_R   0.170140 0.910570 0.329080 -0.502604
O36   O     O_R   0.829860 0.910570 0.670920 -0.509767
O37   O     O_R   0.556540 0.252920 0.323970 -0.494063
O38   O     O_R   0.443460 0.252920 0.676030 -0.501177
O39   O     O_R   0.056540 0.752920 0.323970 -0.500826
O40   O     O_R   0.943460 0.752920 0.676030 -0.500697
C17   C     C_R   0.532596 0.156832 0.353713 0.570057
C18   C     C_R   0.467451 0.157096 0.646307 0.559004
C19   C     C_R   0.032619 0.656830 0.353728 0.567917
C20   C     C_R   0.967476 0.657098 0.646323 0.565288
O41   O     O_R   0.545870 0.051100 0.330840 -0.469045
O42   O     O_R   0.454130 0.051100 0.669160 -0.476448
O43   O     O_R   0.045870 0.551100 0.330840 -0.468320
O44   O     O_R   0.954130 0.551100 0.669160 -0.476284
O45   O     O_R   0.681340 0.959300 0.325510 -0.459268
O46   O     O_R   0.318660 0.959300 0.674490 -0.462116
O47   O     O_R   0.181340 0.459300 0.325510 -0.459680
O48   O     O_R   0.818660 0.459300 0.674490 -0.462340
C21   C     C_R   0.741822 0.968013 0.353480 0.581186
C22   C     C_R   0.258123 0.968215 0.646525 0.577989
C23   C     C_R   0.241825 0.468006 0.353477 0.583041
C24   C     C_R   0.758131 0.468238 0.646513 0.574769
Cr1   Cr    Cr6+3 0.772000 0.169640 0.250110 1.202339
Cr2   Cr    Cr6+3 0.228000 0.169640 0.749890 1.196913
Cr3   Cr    Cr6+3 0.272000 0.669640 0.250110 1.206715
Cr4   Cr    Cr6+3 0.728000 0.669640 0.749890 1.192495
Cr5   Cr    Cr6+3 0.614960 0.323350 0.249260 1.140556
Cr6   Cr    Cr6+3 0.385040 0.323350 0.750740 1.170478
Cr7   Cr    Cr6+3 0.114960 0.823350 0.249260 1.136493
Cr8   Cr    Cr6+3 0.885040 0.823350 0.750740 1.162114
Cr9   Cr    Cr6+3 0.616670 0.010620 0.250840 1.178727
Cr10  Cr    Cr6+3 0.383330 0.010620 0.749160 1.200610
Cr11  Cr    Cr6+3 0.116670 0.510620 0.250840 1.179249
Cr12  Cr    Cr6+3 0.883330 0.510620 0.749160 1.200397
O49   O     O_3   0.667880 0.167870 0.250070 -0.361796
O50   O     O_3   0.332120 0.167870 0.749930 -0.351700
O51   O     O_3   0.167880 0.667870 0.250070 -0.362801
O52   O     O_3   0.832120 0.667870 0.749930 -0.350301
C25   C     C_R   0.498681 0.159676 0.927454 0.006519
C26   C     C_R   0.493995 0.163061 0.077772 0.019327
C27   C     C_R   0.998920 0.649201 0.926084 0.021141
C28   C     C_R   0.998377 0.664838 0.075570 0.022550
C29   C     C_R   0.509166 0.271571 0.964723 -0.095518
C30   C     C_R   0.496422 0.273106 0.039425 -0.094486
C31   C     C_R   0.020229 0.757284 0.958796 -0.100737
C32   C     C_R   0.008913 0.770551 0.033044 -0.097626
C33   C     C_R   0.483285 0.054421 0.041101 0.161270
C34   C     C_R   0.492348 0.050766 0.967699 0.138603
C35   C     C_R   0.980641 0.555064 0.042474 0.168402
C36   C     C_R   0.985296 0.544639 0.968924 0.143707
C37   C     C_R   0.531850 0.381346 0.931275 0.189306
C38   C     C_R   0.490171 0.384327 0.075783 0.198216
C39   C     C_R   0.050287 0.853201 0.918580 0.168265
C40   C     C_R   0.007395 0.889000 0.061910 0.193552
C41   C     C_R   0.057030 0.967421 0.950291 0.184455
C42   C     C_R   0.034427 0.985769 0.020957 0.180743
C43   C     C_R   0.539257 0.488635 0.972790 0.176708
C44   C     C_R   0.521257 0.487632 0.045992 0.181941
C45   C     C_R   0.683516 0.919855 0.030059 -0.108574
C46   C     C_R   0.236597 0.873177 0.949940 -0.087181
C47   C     C_R   0.180220 0.430443 0.027735 -0.116401
C48   C     C_R   0.733754 0.376224 0.950158 -0.075547
H1    H     H_    0.643971 0.873035 0.061516 0.239592
H2    H     H_    0.219914 0.813177 0.907900 0.212264
H3    H     H_    0.137672 0.389322 0.057998 0.230081
H4    H     H_    0.716057 0.316605 0.908194 0.208731
C49   C     C_R   0.690275 0.889824 0.958443 -0.102282
C50   C     C_R   0.225824 0.839378 0.019935 -0.169390
C51   C     C_R   0.185857 0.403750 0.955335 -0.104076
C52   C     C_R   0.724203 0.341762 0.020144 -0.165743
H5    H     H_    0.658746 0.816295 0.937669 0.238950
H6    H     H_    0.198754 0.754849 0.031256 0.086181
H7    H     H_    0.148909 0.341903 0.931697 0.251235
H8    H     H_    0.697304 0.257042 0.031524 0.082753
C53   C     C_R   0.742528 0.944812 0.916340 0.007432
C54   C     C_R   0.247949 0.914817 0.075211 0.044137
C55   C     C_R   0.242018 0.449787 0.914955 0.012080
C56   C     C_R   0.747402 0.416384 0.075400 0.052793
C57   C     C_R   0.783986 0.039329 0.945428 0.200034
C58   C     C_R   0.274597 0.030904 0.061017 0.257860
C59   C     C_R   0.285692 0.540205 0.944968 0.204138
C60   C     C_R   0.773400 0.533440 0.061411 0.265868
C61   C     C_R   0.783351 0.058498 0.019163 0.131808
C62   C     C_R   0.286664 0.064188 0.989794 0.129777
C63   C     C_R   0.284775 0.558637 0.018861 0.127489
C64   C     C_R   0.785682 0.566179 0.989873 0.103536
C65   C     C_R   0.732190 0.998644 0.062299 -0.014606
C66   C     C_R   0.267129 0.985032 0.934232 0.054940
C67   C     C_R   0.231970 0.501320 0.061563 -0.013367
C68   C     C_R   0.765540 0.487044 0.934389 0.043605
C69   C     C_R   0.502411 0.054601 0.464025 -0.089580
C70   C     C_R   0.498778 0.054907 0.536470 -0.089937
C71   C     C_R   0.002493 0.554599 0.464060 -0.089272
C72   C     C_R   0.998866 0.554908 0.536505 -0.090071
H9    H     H_    0.505275 0.967338 0.438075 0.232845
H10   H     H_    0.496495 0.967803 0.562739 0.233762
H11   H     H_    0.005348 0.467338 0.438109 0.232840
H12   H     H_    0.996579 0.467806 0.562775 0.233657
C73   C     C_R   0.493091 0.164172 0.573632 0.024567
C74   C     C_R   0.507165 0.163675 0.426443 0.025063
C75   C     C_R   0.993162 0.664173 0.573665 0.025844
C76   C     C_R   0.007231 0.663672 0.426476 0.025071
C77   C     C_R   0.495732 0.274771 0.536722 -0.143144
C78   C     C_R   0.503738 0.274538 0.462931 -0.142999
C79   C     C_R   0.995817 0.774771 0.536758 -0.142042
C80   C     C_R   0.003820 0.774536 0.462966 -0.143766
H13   H     H_    0.490218 0.360271 0.564448 0.155106
H14   H     H_    0.508552 0.359947 0.434859 0.156086
H15   H     H_    0.990301 0.860271 0.564484 0.155413
H16   H     H_    0.008631 0.859945 0.434896 0.154377
C81   C     C_R   0.812803 0.951404 0.459629 -0.151120
C82   C     C_R   0.187137 0.950874 0.540363 -0.149717
C83   C     C_R   0.312814 0.451368 0.459620 -0.150534
C84   C     C_R   0.687164 0.450967 0.540336 -0.150873
H17   H     H_    0.858310 0.987373 0.431221 0.204951
H18   H     H_    0.141683 0.986440 0.568733 0.206717
H19   H     H_    0.358324 0.487318 0.431208 0.206272
H20   H     H_    0.641710 0.486538 0.568704 0.205891
C85   C     C_R   0.814971 0.949497 0.532407 -0.157133
C86   C     C_R   0.184982 0.948774 0.467585 -0.158294
C87   C     C_R   0.314983 0.449466 0.532400 -0.157221
C88   C     C_R   0.685009 0.448869 0.467560 -0.158228
H21   H     H_    0.863668 0.979079 0.557048 0.194712
H22   H     H_    0.136319 0.977820 0.442928 0.194445
H23   H     H_    0.363682 0.479039 0.557041 0.194835
H24   H     H_    0.636347 0.477923 0.442905 0.194735
C89   C     C_R   0.757164 0.906536 0.572369 -0.008261
C90   C     C_R   0.242763 0.906397 0.427657 -0.009573
C91   C     C_R   0.257172 0.406524 0.572365 -0.007409
C92   C     C_R   0.742784 0.406465 0.427635 -0.009784
C93   C     C_R   0.695991 0.863766 0.537585 0.195992
C94   C     C_R   0.303854 0.864326 0.462487 0.194079
C95   C     C_R   0.195998 0.363757 0.537582 0.196321
C96   C     C_R   0.803877 0.364403 0.462463 0.194688
C97   C     C_R   0.694798 0.862207 0.462738 0.128715
C98   C     C_R   0.304992 0.862752 0.537329 0.128910
C99   C     C_R   0.194804 0.362195 0.462735 0.128511
C100  C     C_R   0.805017 0.362831 0.537304 0.129251
C101  C     C_R   0.751559 0.916279 0.424216 -0.007093
C102  C     C_R   0.248301 0.916366 0.575814 -0.006632
C103  C     C_R   0.251566 0.416261 0.424210 -0.006999
C104  C     C_R   0.748322 0.416433 0.575790 -0.007919
N1    N     N_R   0.467718 0.944455 0.078948 0.129877
O53   O     O_R   0.511781 0.855055 0.075251 -0.214657
O54   O     O_R   0.418386 0.942202 0.127489 -0.240008
N2    N     N_R   0.491798 0.934273 0.934041 0.137422
O55   O     O_R   0.434676 0.868183 0.936586 -0.198766
O56   O     O_R   0.542552 0.905293 0.890095 -0.278807
N3    N     N_R   0.961283 0.450701 0.084080 0.133166
O57   O     O_R   0.007616 0.366161 0.093566 -0.219090
O58   O     O_R   0.908644 0.457217 0.128578 -0.252076
N4    N     N_R   0.973971 0.426905 0.938424 0.135809
O59   O     O_R   0.914297 0.370481 0.948601 -0.222378
O60   O     O_R   0.022171 0.378160 0.897963 -0.252990
N5    N     N_R   0.634748 0.826929 0.578087 0.099728
O61   O     O_R   0.607444 0.719609 0.569822 -0.283286
O62   O     O_R   0.610632 0.896264 0.628709 -0.317229
N6    N     N_R   0.365114 0.828341 0.422039 0.098774
O63   O     O_R   0.392196 0.721191 0.430127 -0.284077
O64   O     O_R   0.389460 0.898289 0.371621 -0.300355
N7    N     N_R   0.134757 0.326912 0.578087 0.099585
O65   O     O_R   0.107465 0.219582 0.569827 -0.283719
O66   O     O_R   0.110651 0.396230 0.628722 -0.316040
N8    N     N_R   0.865135 0.328423 0.422013 0.098730
O67   O     O_R   0.892215 0.221269 0.430096 -0.285339
O68   O     O_R   0.889481 0.398378 0.371599 -0.300986
Br1   Br    Br    0.616563 0.783742 0.415285 -0.360939
Br2   Br    Br    0.383095 0.784846 0.584745 -0.361015
Br3   Br    Br    0.116571 0.283724 0.415286 -0.362675
Br4   Br    Br    0.883131 0.284941 0.584712 -0.363418
N9    N     N_R   0.554554 0.381757 0.858006 0.109353
O69   O     O_R   0.601192 0.303946 0.835692 -0.355563
O70   O     O_R   0.523722 0.451844 0.811984 -0.221960
N10   N     N_R   0.448811 0.391141 0.140682 0.119239
O71   O     O_R   0.388562 0.334364 0.144551 -0.226421
O72   O     O_R   0.474172 0.439439 0.198372 -0.251735
N11   N     N_R   0.081494 0.830460 0.849403 0.076111
O73   O     O_R   0.117284 0.731759 0.838082 -0.357627
O74   O     O_R   0.069858 0.902603 0.796018 -0.248832
N12   N     N_R   0.967344 0.913136 0.126100 0.118841
O75   O     O_R   0.909025 0.853844 0.138945 -0.237110
O76   O     O_R   0.988592 0.992969 0.172231 -0.236953
N13   N     N_R   0.087598 0.066483 0.911601 0.131808
O77   O     O_R   0.053680 0.113608 0.858404 -0.183884
O78   O     O_R   0.137679 0.128984 0.941177 -0.343616
N14   N     N_R   0.035317 0.105875 0.048680 0.151053
O79   O     O_R   0.078965 0.133265 0.099472 -0.233212
O80   O     O_R   0.010155 0.191869 0.009251 -0.151682
N15   N     N_R   0.559530 0.602387 0.940956 0.119332
O81   O     O_R   0.597060 0.608856 0.883056 -0.253256
O82   O     O_R   0.536217 0.702468 0.968123 -0.180249
N16   N     N_R   0.542611 0.586258 0.091192 0.142962
O83   O     O_R   0.607758 0.624453 0.089180 -0.297765
O84   O     O_R   0.498285 0.637675 0.134786 -0.166134
N17   N     N_R   0.829390 0.111442 0.900395 0.115159
O85   O     O_R   0.897652 0.105586 0.907338 -0.191476
O86   O     O_R   0.803609 0.162835 0.843933 -0.304115
N18   N     N_R   0.283466 0.117455 0.117607 0.126024
O87   O     O_R   0.252612 0.222205 0.113381 -0.235488
O88   O     O_R   0.311289 0.085620 0.177923 -0.252370
N19   N     N_R   0.332179 0.610996 0.900300 0.113808
O89   O     O_R   0.400270 0.603155 0.907749 -0.203711
O90   O     O_R   0.307409 0.662973 0.843549 -0.293191
N20   N     N_R   0.783447 0.619812 0.118442 0.134785
O91   O     O_R   0.764622 0.731860 0.109947 -0.243857
O92   O     O_R   0.801259 0.584886 0.182017 -0.255209
Br5   Br    Br    0.854994 0.164398 0.057783 -0.222433
Br6   Br    Br    0.331326 0.215403 0.970377 -0.481702
Br7   Br    Br    0.356896 0.663673 0.057230 -0.241554
Br8   Br    Br    0.834812 0.713344 0.969458 -0.492908

loop_
_geom_bond_atom_site_label_1
_geom_bond_atom_site_label_2
_geom_bond_distance
_ccdc_geom_bond_type
C18   O42   1.269756 A    
O17   Cr9   2.072800 S    
O4    C12   1.299917 A    
O47   Cr11  1.953096 S    
C29   C30   1.421099 A    
O39   C19   1.278184 A    
O20   Cr12  2.070764 S    
C35   N3    1.436236 S    
O29   C13   1.276538 A    
C70   H10   1.081026 S    
C93   N5    1.438076 S    
C31   C32   1.416180 A    
C28   C32   1.426093 A    
C61   C65   1.418158 A    
C64   C68   1.413310 A    
N10   O71   1.300095 A    
C46   C50   1.379086 A    
N12   O76   1.300526 A    
C40   C42   1.407991 A    
C33   C34   1.387776 A    
C94   C98   1.405323 A    
C45   C49   1.389789 A    
N19   O89   1.300154 A    
C57   N17   1.438298 S    
N5    O61   1.300369 A    
O7    C3    1.276166 A    
N1    O53   1.296082 A    
C98   Br2   1.935440 S    
N9    O69   1.301044 A    
N4    O60   1.300617 A    
C86   C90   1.402644 A    
C76   C80   1.404269 A    
O24   C12   1.309038 A    
C70   C73   1.397806 A    
C47   C51   1.394116 A    
N15   O81   1.295369 A    
C78   H14   1.083107 S    
C72   C75   1.397814 A    
C59   C63   1.401981 A    
O38   C18   1.279422 A    
O38   Cr6   1.943388 S    
O45   C21   1.266051 A    
C60   C64   1.407813 A    
N19   O90   1.301255 A    
C48   H4    1.080991 S    
C54   C58   1.399952 A    
C39   N11   1.444777 S    
C71   C72   1.361106 A    
N14   O80   1.297823 A    
O21   C9    1.310201 A    
O8    Cr4   1.957553 S    
C1    O9    1.254331 A    
N14   O79   1.301128 A    
C45   C65   1.404779 A    
O30   C14   1.273068 A    
C33   N1    1.434686 S    
O32   Cr4   1.949165 S    
C73   C77   1.404129 A    
O44   Cr12  2.052349 S    
N20   O92   1.301309 A    
C13   C92   1.457027 S    
C11   C67   1.484417 S    
C82   H18   1.083102 S    
C3    O11   1.256809 A    
C39   C41   1.400390 A    
O11   Cr7   2.060760 S    
N11   O73   1.301925 A    
C9    C65   1.477119 S    
N6    O63   1.300369 A    
N1    O54   1.299414 A    
C64   Br8   1.905715 S    
O47   C23   1.266066 A    
N16   O84   1.299514 A    
C43   C44   1.413115 A    
N13   O78   1.298160 A    
C38   C44   1.395722 A    
O6    Cr2   1.957553 S    
C7    O19   1.284604 A    
C27   C36   1.427982 A    
O3    Cr3   2.069738 S    
N13   O77   1.300765 A    
Cr4   O52   1.970089 S    
C26   C33   1.397931 A    
C99   C103  1.419395 A    
O2    Cr2   2.067237 S    
C18   C73   1.446289 S    
C60   N20   1.447056 S    
C81   C85   1.367239 A    
C88   C92   1.402627 A    
C61   Br5   1.931989 S    
O42   Cr10  2.052349 S    
Cr5   O49   1.990821 S    
N3    O57   1.296245 A    
O18   Cr10  2.070764 S    
N17   O85   1.300927 A    
C25   C29   1.433729 A    
C87   C91   1.402290 A    
C58   C62   1.403111 A    
C36   N4    1.436418 S    
C56   C60   1.404730 A    
Cr7   O51   1.990821 S    
C16   C89   1.456947 S    
C97   Br1   1.935295 S    
C31   C39   1.414988 A    
C69   C74   1.397550 A    
C26   C30   1.412260 A    
C79   C80   1.392254 A    
C91   C95   1.412906 A    
C5    C26   1.485304 S    
C100  Br4   1.935444 S    
C63   Br7   1.930847 S    
O31   Cr3   1.950683 S    
O24   Cr12  1.934413 S    
O16   Cr8   1.953246 S    
O9    Cr5   2.060760 S    
O30   Cr2   1.949165 S    
C1    C56   1.435663 S    
N4    O59   1.299957 A    
O22   C10   1.304075 A    
C79   H15   1.083091 S    
O48   Cr12  1.950492 S    
C4    O12   1.264079 A    
C2    C55   1.482953 S    
C84   H20   1.083092 S    
C3    C54   1.435823 S    
N2    O56   1.302042 A    
C2    O10   1.263788 A    
C21   C101  1.458515 S    
C48   C52   1.377892 A    
C93   C97   1.405458 A    
N8    O67   1.300370 A    
O7    Cr3   1.957423 S    
C4    C53   1.475322 S    
O26   Cr2   2.076458 S    
C19   C76   1.446144 S    
C87   H23   1.083401 S    
C10   C66   1.454741 S    
O13   C5    1.287052 A    
O28   Cr4   2.076458 S    
C83   C103  1.394050 A    
C96   C100  1.405304 A    
O48   C24   1.267791 A    
O12   Cr8   2.065308 S    
C20   C75   1.446273 S    
C98   C102  1.419905 A    
O15   C7    1.279288 A    
N7    O65   1.300370 A    
O5    C1    1.278085 A    
N20   O91   1.298757 A    
C95   C99   1.405458 A    
O46   Cr10  1.950492 S    
O39   Cr7   1.939247 S    
O25   C21   1.273552 A    
C96   N8    1.438008 S    
C35   C36   1.387621 A    
C82   C86   1.367284 A    
O3    C11   1.294058 A    
C83   H19   1.083119 S    
O8    C4    1.286652 A    
C24   C104  1.458636 S    
C17   C74   1.446112 S    
O13   Cr5   1.949998 S    
C13   O33   1.265512 A    
C38   N10   1.444905 S    
O23   Cr11  1.937818 S    
C34   N2    1.433141 S    
C84   C104  1.393770 A    
N15   O82   1.294732 A    
C40   N12   1.443848 S    
Cr2   O50   1.970089 S    
C47   C67   1.406369 A    
O15   Cr7   1.949998 S    
C45   H1    1.079458 S    
C12   C68   1.455028 S    
O35   Cr7   2.068670 S    
Cr1   O49   1.969927 S    
C90   C94   1.412487 A    
C50   H6    1.082802 S    
C42   N14   1.424690 S    
C97   C101  1.419392 A    
C57   C61   1.400249 A    
C46   C66   1.391610 A    
Cr3   O51   1.969927 S    
O26   C22   1.276306 A    
N11   O74   1.300492 A    
C82   C102  1.393763 A    
O21   Cr9   1.937818 S    
C71   H11   1.081049 S    
O31   C15   1.276531 A    
O27   Cr3   2.077230 S    
C32   C40   1.415995 A    
C53   C57   1.415118 A    
C6    O18   1.279548 A    
O37   Cr5   1.939247 S    
C99   Br3   1.935255 S    
O23   C11   1.313544 A    
C19   O43   1.269262 A    
C84   C88   1.367246 A    
C29   C37   1.427554 A    
C48   C68   1.391712 A    
C8    C27   1.483728 S    
C46   H2    1.078776 S    
O34   Cr6   2.072112 S    
C92   C96   1.412467 A    
C83   C87   1.367266 A    
N18   O87   1.300218 A    
C22   C102  1.458648 S    
C8    O20   1.251879 A    
O14   Cr6   1.953246 S    
C86   H22   1.083373 S    
C37   N9    1.437663 S    
C7    C28   1.482232 S    
N7    O66   1.301452 A    
C69   H9    1.081052 S    
C5    O17   1.278403 A    
C71   C76   1.397539 A    
O37   C17   1.278180 A    
O22   Cr10  1.934413 S    
O28   C24   1.276309 A    
N16   O83   1.301311 A    
O14   C6    1.293500 A    
C41   N13   1.430196 S    
C14   C91   1.456951 S    
O5    Cr1   1.957423 S    
Cr12  O52   1.991569 S    
N2    O55   1.301997 A    
C59   N19   1.438609 S    
N10   O72   1.301430 A    
Cr11  O51   1.984546 S    
C62   C66   1.411438 A    
C15   O35   1.265530 A    
C52   C56   1.397149 A    
C17   O41   1.269272 A    
C80   H16   1.083095 S    
C51   H7    1.073739 S    
C15   C90   1.457078 S    
C44   N16   1.439129 S    
C41   C42   1.405556 A    
C14   O34   1.262883 A    
O25   Cr1   2.077230 S    
C75   C79   1.404102 A    
O40   Cr8   1.943388 S    
C100  C104  1.419913 A    
C25   C34   1.423842 A    
C20   O44   1.269760 A    
C63   C67   1.422257 A    
O1    Cr1   2.069738 S    
C81   H17   1.083114 S    
C81   C101  1.394053 A    
N17   O86   1.301162 A    
N18   O88   1.301179 A    
N8    O68   1.301461 A    
N9    O70   1.302434 A    
N6    O64   1.301461 A    
Cr10  O50   1.991569 S    
C69   C70   1.361100 A    
C47   H3    1.079988 S    
C85   H21   1.083403 S    
O2    C10   1.303933 A    
O46   C22   1.267810 A    
C43   N15   1.439803 S    
C89   C93   1.412921 A    
C58   N18   1.439390 S    
O19   Cr11  2.072800 S    
C62   Br6   1.901747 S    
C6    C25   1.497645 S    
O33   Cr5   2.068670 S    
C85   C89   1.402271 A    
C94   N6    1.438023 S    
O10   Cr6   2.065308 S    
C77   H13   1.083089 S    
N12   O75   1.301442 A    
C55   C59   1.413314 A    
O4    Cr4   2.067237 S    
O6    C2    1.291325 A    
O1    C9    1.293755 A    
O29   Cr1   1.950683 S    
C49   C53   1.397448 A    
O32   C16   1.273056 A    
C16   O36   1.262897 A    
O40   C20   1.279439 A    
C30   C38   1.409978 A    
C27   C31   1.401372 A    
Cr8   O52   1.983664 S    
Cr6   O50   1.983664 S    
C74   C78   1.404252 A    
O43   Cr11  2.055040 S    
C37   C43   1.425128 A    
N3    O58   1.297054 A    
O27   C23   1.273549 A    
O45   Cr9   1.953096 S    
O41   Cr9   2.055040 S    
C49   H5    1.080149 S    
C50   C54   1.396454 A    
C23   C103  1.458534 S    
C77   C78   1.392259 A    
O36   Cr8   2.072112 S    
N5    O62   1.301447 A    
C95   N7    1.438084 S    
O16   C8    1.308544 A    
Cr9   O49   1.984546 S    
C88   H24   1.083379 S    
C28   C35   1.402758 A    
C52   H8    1.083323 S    
C72   H12   1.081018 S    
C51   C55   1.394445 A    
