data_mof_unit_58803.cif
_audit_creation_date              2012-10-26T19:40:07-0400
_audit_creation_method            fapswitch 2.2
_symmetry_space_group_name_H-M    P1
_symmetry_Int_Tables_number       1
_space_group_crystal_system       triclinic
_cell_length_a                    14.965672
_cell_length_b                    8.676548
_cell_length_c                    7.453049
_cell_angle_alpha                 102.842607
_cell_angle_beta                  93.916665
_cell_angle_gamma                 92.363751
_cell_volume                      939.782513965

loop_
_atom_site_label
_atom_site_type_symbol
_atom_type_description
_atom_site_fract_x
_atom_site_fract_y
_atom_site_fract_z
_atom_type_partial_charge
C1    C     C_R   0.497307 0.199818 0.453376 0.544457
C2    C     C_R   0.180748 0.364478 0.409720 -0.120883
C3    C     C_R   0.767092 0.502844 0.491587 -0.009808
C4    C     C_R   0.232908 0.497156 0.508413 -0.009808
C5    C     C_R   0.806524 0.370473 0.393666 -0.129643
C6    C     C_R   0.193476 0.629527 0.606333 -0.129643
C7    C     C_R   0.899654 0.367632 0.398472 -0.008681
C8    C     C_R   0.100346 0.632369 0.601527 -0.008681
C9    C     C_R   0.953161 0.501473 0.497627 0.025010
C10   C     C_R   0.046839 0.498528 0.502372 0.025010
C11   C     C_R   0.912815 0.638041 0.591909 0.050953
C12   C     C_R   0.502693 0.800182 0.546624 0.544456
C13   C     C_R   0.087185 0.361959 0.408091 0.050953
C14   C     C_R   0.939695 0.231987 0.308154 -0.110052
C15   C     C_R   0.060305 0.768013 0.691844 -0.110051
C16   C     C_R   0.033307 0.226928 0.313700 0.101054
C17   C     C_R   0.966692 0.773073 0.686299 0.101054
C18   C     C_2   0.496002 0.031937 0.427114 -0.157314
C19   C     C_2   0.503998 0.968063 0.572886 -0.157314
C20   C     C_R   0.329097 0.499228 0.502782 0.542561
C21   C     C_R   0.670903 0.500772 0.497218 0.542561
C22   C     C_R   0.819252 0.635521 0.590280 -0.120883
Cu1   Cu    Cu3+1 0.510010 0.517380 0.684380 0.961764
Cu2   Cu    Cu3+1 0.489990 0.482620 0.315620 0.961764
H1    H     H_    0.786096 0.736128 0.664889 0.141254
H2    H     H_    0.105776 0.039038 0.329692 0.226943
H3    H     H_    0.975490 0.001454 0.841581 0.238634
H4    H     H_    0.894221 0.960960 0.670307 0.226942
H5    H     H_    0.430119 0.377825 0.948853 0.241198
H6    H     H_    0.569881 0.622175 0.051146 0.241199
H7    H     H_    0.213904 0.263871 0.335112 0.141255
H8    H     H_    0.764576 0.268240 0.318992 0.114560
H9    H     H_    0.235423 0.731760 0.681007 0.114560
H10   H     H_    0.897936 0.129204 0.234718 0.118464
H11   H     H_    0.102064 0.870797 0.765280 0.118463
H12   H     H_    0.488451 0.960549 0.286565 0.135644
H13   H     H_    0.511549 0.039451 0.713435 0.135644
H14   H     H_    0.024510 0.998549 0.158411 0.238636
N1    N     N_2   0.474890 0.456420 0.038520 -0.255138
N2    N     N_2   0.525110 0.543580 0.961480 -0.255138
N3    N     N_3   0.073730 0.084966 0.225563 -0.647549
N4    N     N_3   0.926270 0.915035 0.774436 -0.647550
O1    O     O_R   0.506510 0.286130 0.619770 -0.505375
O2    O     O_R   0.493490 0.713870 0.380230 -0.505375
O3    O     O_R   0.489600 0.256770 0.308360 -0.500714
O4    O     O_R   0.510400 0.743230 0.691640 -0.500714
O5    O     O_R   0.378710 0.514640 0.655720 -0.502794
O6    O     O_R   0.621290 0.485360 0.344280 -0.502794
O7    O     O_R   0.361800 0.485290 0.344300 -0.494545
O8    O     O_R   0.638200 0.514710 0.655700 -0.494545

loop_
_geom_bond_atom_site_label_1
_geom_bond_atom_site_label_2
_ccdc_geom_bond_type
C14   H10   S    
C2    C4    A    
Cu1   Cu2   S    
C8    C10   A    
C15   C17   A    
C20   O7    A    
C9    C10   A    
C3    C22   A    
C11   C22   A    
C6    H9    S    
C5    H8    S    
H5    N1    S    
H6    N2    S    
C12   O2    A    
Cu1   O4    S    
C10   C13   A    
C9    C11   A    
H3    N4    S    
C1    O3    A    
C1    C18   S    
Cu2   O3    S    
C12   C19   S    
C15   H11   S    
C21   O8    A    
C18   C19   D    
C8    C15   A    
Cu2   O2    S    
C14   C16   A    
C3    C21   S    
C20   O5    A    
Cu1   O5    S    
Cu1   N2    S    
C4    C20   S    
C21   O6    A    
C7    C9    A    
Cu2   O7    S    
Cu2   N1    S    
Cu1   O1    S    
H14   N3    S    
C12   O4    A    
C4    C6    A    
C13   C16   A    
H4    N4    S    
N1    N2    D    
C5    C7    A    
C2    C13   A    
C17   N4    S    
C11   C17   A    
Cu1   O8    S    
C6    C8    A    
C19   H13   S    
C18   H12   S    
C16   N3    S    
C1    O1    A    
C7    C14   A    
H2    N3    S    
C2    H7    S    
C3    C5    A    
C22   H1    S    
Cu2   O6    S    
