data_mof_unit_27805.cif
_audit_creation_date              2012-12-10T20:41:04-0500
_audit_creation_method            fapswitch 2.2
_symmetry_space_group_name_H-M    P1
_symmetry_Int_Tables_number       1
_space_group_crystal_system       triclinic
_cell_length_a                    27.740854
_cell_length_b                    10.668677
_cell_length_c                    9.846406
_cell_angle_alpha                 89.932387
_cell_angle_beta                  89.911431
_cell_angle_gamma                 90.062243
_cell_volume                      2914.11746872

loop_
_atom_site_label
_atom_site_type_symbol
_atom_type_description
_atom_site_fract_x
_atom_site_fract_y
_atom_site_fract_z
_atom_type_partial_charge
C1    C     C_R   0.501506 0.259882 0.500084 0.887788
C2    C     C_R   0.974411 0.385255 0.486869 0.046639
C3    C     C_R   0.974526 0.616428 0.503448 0.046640
C4    C     C_R   0.406019 0.500120 0.499952 0.876060
C5    C     C_R   0.949247 0.500840 0.495540 0.070782
C6    C     C_R   0.947502 0.273589 0.470224 -0.215044
C7    C     C_R   0.897541 0.274948 0.468736 -0.135254
C8    C     C_R   0.872534 0.387495 0.483212 -0.022076
C9    C     C_R   0.898187 0.500826 0.496394 -0.051762
C10   C     C_R   0.872659 0.614137 0.510478 -0.021786
C11   C     C_R   0.822251 0.611906 0.511498 0.504823
C12   C     C_R   0.277495 0.472709 0.616727 -0.097507
C13   C     C_R   0.822130 0.389674 0.484028 0.505267
C14   C     C_R   0.722154 0.511995 0.621529 -0.101845
C15   C     C_R   0.672075 0.511572 0.622185 -0.212058
C16   C     C_R   0.501620 0.740080 0.499938 0.888089
C17   C     C_R   0.671961 0.489398 0.376486 -0.212650
C18   C     C_R   0.722028 0.489399 0.376288 -0.102389
C19   C     C_R   0.747029 0.500767 0.498689 0.323899
C20   C     C_R   0.025403 0.384980 0.494082 0.046819
C21   C     C_R   0.050677 0.500823 0.494542 0.070556
C22   C     C_R   0.025507 0.616672 0.495196 0.046792
C23   C     C_R   0.252961 0.500873 0.496689 0.318314
C24   C     C_R   0.052198 0.272445 0.502220 -0.214755
C25   C     C_R   0.102357 0.727971 0.484198 -0.135255
C26   C     C_R   0.947751 0.728106 0.520759 -0.215073
C27   C     C_R   0.897795 0.726718 0.523932 -0.135371
C28   C     C_R   0.593989 0.500085 0.499901 0.870465
C29   C     C_R   0.052396 0.729185 0.486543 -0.214796
C30   C     C_R   0.509027 0.063699 0.623421 0.146520
C31   C     C_R   0.509378 0.128561 0.500713 -0.105591
C32   C     C_R   0.519155 0.064985 0.379132 -0.215432
C33   C     C_R   0.519263 0.935378 0.379074 -0.215114
C34   C     C_R   0.101739 0.500822 0.494519 -0.052060
C35   C     C_R   0.509584 0.871374 0.500592 -0.104338
C36   C     C_R   0.509186 0.935874 0.623387 0.129140
C37   C     C_3   0.474553 0.928134 0.739620 -0.468496
C38   C     C_3   0.474255 0.070173 0.739356 -0.491041
C39   C     C_R   0.478405 0.404694 0.071654 0.212017
C40   C     C_R   0.177686 0.389075 0.500029 0.504465
C41   C     C_R   0.525084 0.587581 0.071807 -0.131319
C42   C     C_R   0.525103 0.587563 0.927691 -0.134305
C43   C     C_R   0.478209 0.405028 0.928906 0.217427
C44   C     C_3   0.426054 0.371465 0.924707 -0.519857
C45   C     C_R   0.127279 0.386887 0.499434 -0.021187
C46   C     C_3   0.426524 0.369335 0.078682 -0.493481
C47   C     C_R   0.177788 0.612603 0.490108 0.504611
C48   C     C_R   0.278380 0.528977 0.377871 -0.098085
C49   C     C_R   0.328446 0.528742 0.378918 -0.214541
C50   C     C_R   0.327563 0.472704 0.618111 -0.218169
C51   C     C_R   0.102156 0.273661 0.504556 -0.135358
C52   C     C_R   0.127381 0.614761 0.489751 -0.021285
C53   C     C_R   0.353371 0.500622 0.499185 -0.042415
C54   C     C_R   0.646647 0.500327 0.499549 -0.040306
H1    H     H_    0.345924 0.449761 0.711545 0.151694
H2    H     H_    0.523436 0.886444 0.283428 0.166180
H3    H     H_    0.439329 0.886156 0.710577 0.211671
H4    H     H_    0.257687 0.450934 0.708650 0.140090
H5    H     H_    0.491420 0.887382 0.831998 0.202059
H6    H     H_    0.438890 0.110691 0.709548 0.203377
H7    H     H_    0.490808 0.111596 0.831776 0.204916
H8    H     H_    0.544559 0.659656 0.126115 0.144708
H9    H     H_    0.544605 0.659597 0.873031 0.147411
H10   H     H_    0.403617 0.448435 0.882922 0.215760
H11   H     H_    0.419639 0.277852 0.879037 0.201004
H12   H     H_    0.259264 0.550755 0.284993 0.140098
H13   H     H_    0.403765 0.443664 0.124730 0.217349
H14   H     H_    0.421279 0.274036 0.122039 0.205668
H15   H     H_    0.121030 0.184961 0.510628 0.190671
H16   H     H_    0.653364 0.520390 0.718318 0.162388
H17   H     H_    0.741703 0.520718 0.716168 0.137887
H18   H     H_    0.878571 0.186896 0.456112 0.191172
H19   H     H_    0.963902 0.183263 0.454947 0.139218
H20   H     H_    0.347547 0.551459 0.286133 0.154229
H21   H     H_    0.035708 0.181320 0.510203 0.138334
H22   H     H_    0.121313 0.816665 0.478033 0.190728
H23   H     H_    0.964266 0.818452 0.535420 0.139223
H24   H     H_    0.653170 0.480476 0.280641 0.163392
H25   H     H_    0.878931 0.814767 0.537115 0.191113
H26   H     H_    0.741478 0.480813 0.281313 0.137906
H27   H     H_    0.035975 0.820281 0.478381 0.138375
H28   H     H_    0.523270 0.114210 0.283501 0.170725
N1    N     N_R   0.201638 0.500850 0.495458 -0.358626
N2    N     N_R   0.798319 0.500777 0.498191 -0.359171
N3    N     N_R   0.499670 0.499140 0.142800 -0.107923
N4    N     N_R   0.499670 0.499180 0.857150 -0.106269
O1    O     O_R   0.500010 0.316790 0.614690 -0.615224
O2    O     O_R   0.571250 0.500000 0.614690 -0.622374
O3    O     O_R   0.571240 0.499960 0.385340 -0.623710
O4    O     O_2   0.202675 0.280624 0.504317 -0.550979
O5    O     O_2   0.797003 0.281869 0.471522 -0.548715
O6    O     O_2   0.202872 0.721065 0.486226 -0.550738
O7    O     O_2   0.797241 0.719686 0.524852 -0.549485
O8    O     O_R   0.500000 0.316760 0.385350 -0.622921
O9    O     O_R   0.428760 0.500040 0.614660 -0.621098
O10   O     O_R   0.428750 0.500000 0.385310 -0.620743
O11   O     O_R   0.500000 0.683240 0.614650 -0.620457
O12   O     O_R   0.499990 0.683210 0.385310 -0.625245
Zn1   Zn    Zn3+2 0.500000 0.500020 0.653130 0.950508
Zn2   Zn    Zn3+2 0.500000 0.499980 0.346870 0.948711

loop_
_geom_bond_atom_site_label_1
_geom_bond_atom_site_label_2
_ccdc_geom_bond_type
C10   C27   A    
C1    O1    A    
C41   C42   A    
C8    C13   A    
C22   C29   A    
C4    C53   S    
C42   H9    S    
C14   H17   S    
C35   C36   A    
C7    C8    A    
C44   H10   S    
C46   H14   S    
C12   C23   A    
C26   C27   A    
C23   N1    S    
C36   C37   S    
C27   H25   S    
C16   C35   S    
C30   C31   A    
O9    Zn1   S    
C16   O11   A    
C45   C51   A    
C1    C31   S    
C30   C38   S    
C18   C19   A    
C47   O6    S    
C4    O10   A    
C20   C24   A    
C1    O8    A    
C28   O2    A    
C28   O3    A    
C42   N4    A    
C47   N1    A    
C9    C10   A    
C38   H7    S    
C12   H4    S    
C11   O7    S    
C24   C51   A    
C21   C22   A    
C13   O5    S    
C40   N1    A    
C44   H11   S    
C2    C6    A    
C41   H8    S    
O11   Zn1   S    
C44   C46   S    
O1    Zn1   S    
C25   C29   A    
C40   C45   A    
C50   C53   A    
O3    Zn2   S    
C2    C20   A    
C26   H23   S    
C15   C54   A    
C7    H18   S    
C28   C54   S    
C8    C9    A    
C39   C43   A    
C21   C34   A    
C47   C52   A    
C43   C44   S    
C29   H27   S    
C37   C38   S    
C4    O9    A    
C31   C32   A    
C13   N2    A    
O8    Zn2   S    
C17   C18   A    
C34   C45   A    
N4    Zn1   S    
C37   H5    S    
C39   C46   S    
C38   H6    S    
C48   C49   A    
O12   Zn2   S    
C2    C5    A    
C39   N3    A    
C19   N2    S    
C32   H28   S    
C6    H19   S    
C15   H16   S    
C23   C48   A    
C14   C15   A    
C43   N4    A    
C14   C19   A    
C3    C26   A    
C5    C9    A    
C3    C5    A    
C12   C50   A    
C24   H21   S    
C6    C7    A    
C11   N2    A    
C41   N3    A    
C34   C52   A    
C50   H1    S    
C30   C36   A    
C25   H22   S    
C40   O4    S    
C32   C33   A    
C25   C52   A    
C46   H13   S    
N3    Zn2   S    
C16   O12   A    
C33   H2    S    
C49   C53   A    
O10   Zn2   S    
C17   H24   S    
C33   C35   A    
O2    Zn1   S    
C10   C11   A    
C20   C21   A    
C18   H26   S    
C49   H20   S    
C3    C22   A    
C51   H15   S    
C48   H12   S    
C17   C54   A    
C37   H3    S    
