data_mof_unit_42711.cif
_audit_creation_date              2012-12-11T16:46:41-0500
_audit_creation_method            fapswitch 2.2
_symmetry_space_group_name_H-M    P1
_symmetry_Int_Tables_number       1
_space_group_crystal_system       triclinic
_cell_length_a                    26.134488
_cell_length_b                    7.233379
_cell_length_c                    23.934172
_cell_angle_alpha                 90.000088
_cell_angle_beta                  101.457324
_cell_angle_gamma                 90.000122
_cell_volume                      4434.37093111

loop_
_atom_site_label
_atom_site_type_symbol
_atom_type_description
_atom_site_fract_x
_atom_site_fract_y
_atom_site_fract_z
_atom_type_partial_charge
O1    O     O_R   0.547620 0.505720 0.453310 -0.540021
O2    O     O_R   0.452380 0.005720 0.546690 -0.540021
O3    O     O_R   0.442260 0.172470 0.436770 -0.537974
O4    O     O_R   0.557740 0.672470 0.563230 -0.537974
C1    C     C_R   0.075555 0.467458 0.079225 0.699569
C2    C     C_R   0.924445 0.967458 0.920775 0.699573
C3    C     C_R   0.424146 0.345030 0.421728 0.708978
C4    C     C_R   0.575854 0.845030 0.578272 0.708979
O5    O     O_R   0.546600 0.175780 0.446490 -0.513183
O6    O     O_R   0.453400 0.675780 0.553510 -0.513183
O7    O     O_R   0.557460 0.008970 0.556480 -0.535276
O8    O     O_R   0.442540 0.508970 0.443520 -0.535276
C5    C     C_R   0.561925 0.344533 0.434414 0.721157
C6    C     C_R   0.438075 0.844533 0.565586 0.721156
O9    O     O_R   0.047630 0.803580 0.953300 -0.505654
O10   O     O_R   0.952370 0.303580 0.046700 -0.505660
O11   O     O_3   0.503440 0.340340 0.536080 -0.376716
O12   O     O_3   0.496560 0.840340 0.463920 -0.376716
V1    V     V_3+5 0.499360 0.064140 0.493310 1.430089
V2    V     V_3+5 0.500640 0.564140 0.506690 1.430089
O13   O     O_R   0.057730 0.636870 0.063240 -0.530928
O14   O     O_R   0.942270 0.136870 0.936760 -0.530922
O15   O     O_3   0.996540 0.468950 0.963950 -0.373072
O16   O     O_3   0.003460 0.968950 0.036050 -0.373081
C7    C     C_R   0.095926 0.798882 0.854979 0.331243
C8    C     C_R   0.904073 0.298881 0.145022 0.331230
C9    C     C_R   0.131019 0.789535 0.816734 -0.063930
C10   C     C_R   0.868982 0.289541 0.183268 -0.063924
C11   C     C_R   0.167652 0.934810 0.815831 0.034474
C12   C     C_R   0.832350 0.434817 0.184172 0.034475
C13   C     C_R   0.166531 0.088542 0.851517 -0.187337
C14   C     C_R   0.833472 0.588549 0.148486 -0.187350
H1    H     H_    0.194089 0.200730 0.852132 0.124784
H2    H     H_    0.805914 0.700739 0.147871 0.124785
C15   C     C_R   0.131555 0.097980 0.888487 -0.244031
C16   C     C_R   0.868447 0.597984 0.111516 -0.244018
H3    H     H_    0.132809 0.217794 0.915882 0.155730
H4    H     H_    0.867194 0.717799 0.084121 0.155742
C17   C     C_R   0.096691 0.953042 0.891745 -0.130974
C18   C     C_R   0.903310 0.453043 0.108256 -0.130978
C19   C     C_R   0.220641 0.083311 0.750633 -0.233995
C20   C     C_R   0.779361 0.583318 0.249369 -0.233991
H5    H     H_    0.198651 0.209574 0.752410 0.119163
H6    H     H_    0.801350 0.709582 0.247591 0.119158
C21   C     C_R   0.261241 0.081402 0.719769 0.012786
C22   C     C_R   0.738760 0.581408 0.280232 0.012787
C23   C     C_R   0.288792 0.913812 0.715083 0.084040
C24   C     C_R   0.711210 0.413816 0.284918 0.084040
C25   C     C_R   0.277724 0.759561 0.746583 -0.193944
C26   C     C_R   0.722278 0.259566 0.253419 -0.193944
H7    H     H_    0.298227 0.630448 0.745019 0.144912
H8    H     H_    0.701775 0.130451 0.254983 0.144911
C27   C     C_R   0.239676 0.767610 0.780069 -0.088506
C28   C     C_R   0.760327 0.267616 0.219934 -0.088513
H9    H     H_    0.233529 0.647261 0.804827 0.100409
H10   H     H_    0.766474 0.147266 0.195176 0.100405
C29   C     C_R   0.209197 0.926989 0.780801 0.159137
C30   C     C_R   0.790805 0.426996 0.219201 0.159138
C31   C     C_R   0.373669 0.790187 0.694016 -0.195851
C32   C     C_R   0.626332 0.290188 0.305985 -0.195850
H11   H     H_    0.380669 0.722553 0.735086 0.117056
H12   H     H_    0.619332 0.222553 0.264914 0.117057
C33   C     C_R   0.410672 0.772644 0.658437 0.439278
C34   C     C_R   0.589329 0.272643 0.341564 0.439279
C35   C     C_R   0.400256 0.855393 0.603995 -0.119231
C36   C     C_R   0.599745 0.355394 0.396005 -0.119232
C37   C     C_R   0.353645 0.953764 0.586212 -0.229537
C38   C     C_R   0.646355 0.453767 0.413788 -0.229536
H13   H     H_    0.344986 0.016591 0.544293 0.126088
H14   H     H_    0.655013 0.516595 0.455708 0.126089
C39   C     C_R   0.317212 0.968729 0.621495 -0.049185
C40   C     C_R   0.682788 0.468733 0.378507 -0.049185
H15   H     H_    0.280878 0.040308 0.605505 0.120223
H16   H     H_    0.719122 0.540314 0.394497 0.120224
C41   C     C_R   0.327437 0.893095 0.676698 0.077568
C42   C     C_R   0.672564 0.393098 0.323303 0.077567
C43   C     C_3   0.777330 0.709446 0.781306 -0.342856
C44   C     C_3   0.222670 0.209444 0.218693 -0.342855
C45   C     C_3   0.750955 0.029534 0.801543 -0.401367
C46   C     C_3   0.249043 0.529537 0.198460 -0.401370
C47   C     C_3   0.701911 0.019012 0.753405 -0.466848
C48   C     C_3   0.298088 0.519011 0.246596 -0.466845
H17   H     H_    0.694943 0.659676 0.766169 0.051874
H18   H     H_    0.305057 0.159674 0.233831 0.051870
H19   H     H_    0.773407 0.656937 0.823997 0.109622
H20   H     H_    0.226595 0.156943 0.176001 0.109614
H21   H     H_    0.762316 0.176447 0.810002 0.209896
H22   H     H_    0.237682 0.676452 0.190003 0.209896
H23   H     H_    0.741050 0.975571 0.841660 0.155624
H24   H     H_    0.258948 0.475584 0.158341 0.155625
H25   H     H_    0.667304 0.983513 0.771725 0.163069
H26   H     H_    0.332695 0.483512 0.228275 0.163067
H27   H     H_    0.695223 0.156324 0.734158 0.203496
H28   H     H_    0.304777 0.656321 0.265844 0.203497
C49   C     C_1   0.621551 0.858326 0.624092 -0.218068
C50   C     C_1   0.378449 0.358324 0.375908 -0.218066
C51   C     C_3   0.796459 0.914337 0.786284 0.152200
C52   C     C_3   0.203540 0.414334 0.213717 0.152204
C53   C     C_3   0.723580 0.688693 0.738687 0.361826
C54   C     C_3   0.276420 0.188690 0.261312 0.361831
C55   C     C_3   0.708945 0.877428 0.707117 0.152979
C56   C     C_3   0.291054 0.377425 0.292883 0.152981
C57   C     C_3   0.755063 0.943607 0.680260 -0.362871
C58   C     C_3   0.244936 0.443599 0.319741 -0.362872
C59   C     C_3   0.806883 0.975690 0.725737 0.395408
C60   C     C_3   0.193115 0.475677 0.274264 0.395410
C61   C     C_1   0.660303 0.869350 0.661944 -0.067342
C62   C     C_1   0.339696 0.369347 0.338057 -0.067347
C63   C     C_1   0.843197 0.934805 0.833627 -0.003577
C64   C     C_1   0.156802 0.434803 0.166374 -0.003573
C65   C     C_1   0.880302 0.953030 0.873098 -0.187163
C66   C     C_1   0.119697 0.453030 0.126902 -0.187152
H29   H     H_    0.761581 0.838215 0.648459 0.195343
H30   H     H_    0.238419 0.338206 0.351542 0.195342
H31   H     H_    0.807439 0.621530 0.767576 0.238506
H32   H     H_    0.192561 0.121521 0.232419 0.238506
H33   H     H_    0.743055 0.070283 0.654632 0.093963
H34   H     H_    0.256944 0.570276 0.345369 0.093962
V3    V     V_3+5 0.000640 0.745210 0.006690 1.443665
V4    V     V_3+5 0.999360 0.245210 0.993310 1.443656
O17   O     O_R   0.057440 0.306950 0.056520 -0.538218
O18   O     O_R   0.942560 0.806950 0.943480 -0.538222
O19   O     O_R   0.953390 0.633680 0.053510 -0.544521
O20   O     O_R   0.046610 0.133680 0.946490 -0.544536
C67   C     C_R   0.938720 0.464323 0.066615 0.705991
C68   C     C_R   0.061280 0.964323 0.933385 0.705990
O21   O     O_3   0.062714 0.651816 0.858459 -0.557219
C69   C     C_3   0.015765 0.676184 0.818078 0.080395
H35   H     H_    0.023307 0.693780 0.774232 0.108960
H36   H     H_    0.994402 0.800065 0.828985 0.057121
C70   C     C_3   0.980632 0.506531 0.818293 -0.257398
H37   H     H_    0.968600 0.495651 0.859955 0.217363
H38   H     H_    0.944519 0.521797 0.785395 0.153597
C71   C     C_3   0.007684 0.328218 0.806360 -0.682389
H39   H     H_    0.018800 0.335870 0.763987 0.209666
H40   H     H_    0.980832 0.209601 0.806842 0.188034
H41   H     H_    0.043145 0.304644 0.839565 0.252171
O22   O     O_3   0.937283 0.151808 0.141541 -0.557218
C72   C     C_3   0.984238 0.176189 0.181912 0.080424
H42   H     H_    0.976703 0.193861 0.225759 0.108949
H43   H     H_    0.005604 0.300030 0.170985 0.057143
C73   C     C_3   0.019360 0.006504 0.181713 -0.257443
H44   H     H_    0.031373 0.995519 0.140046 0.217400
H45   H     H_    0.055484 0.021801 0.214592 0.153623
C74   C     C_3   0.992309 0.828249 0.193691 -0.682576
H46   H     H_    0.981205 0.836002 0.236066 0.209726
H47   H     H_    0.019157 0.709610 0.193224 0.188066
H48   H     H_    0.956842 0.804632 0.160499 0.252168
O23   O     O_3   0.455160 0.664291 0.673872 -0.567349
C75   C     C_3   0.487060 0.725292 0.725509 0.067932
H49   H     H_    0.517025 0.616819 0.739138 0.148751
H50   H     H_    0.465581 0.738258 0.760940 0.111096
C76   C     C_3   0.515306 0.906429 0.717499 -0.328705
H51   H     H_    0.537065 0.889588 0.682491 0.191819
H52   H     H_    0.486483 0.019865 0.705880 0.198015
C77   C     C_3   0.553382 0.959514 0.772084 -0.846592
H53   H     H_    0.532152 0.979349 0.807498 0.236790
H54   H     H_    0.573324 0.090794 0.765568 0.236538
H55   H     H_    0.583292 0.849768 0.783994 0.220089
O24   O     O_3   0.544842 0.164288 0.326128 -0.567349
C78   C     C_3   0.512941 0.225290 0.274491 0.067931
H56   H     H_    0.482977 0.116815 0.260862 0.148751
H57   H     H_    0.534420 0.238261 0.239060 0.111095
C79   C     C_3   0.484694 0.406425 0.282503 -0.328703
H58   H     H_    0.462936 0.389579 0.317512 0.191818
H59   H     H_    0.513517 0.519862 0.294122 0.198014
C80   C     C_3   0.446617 0.459509 0.227919 -0.846592
H60   H     H_    0.467846 0.479345 0.192504 0.236790
H61   H     H_    0.426675 0.590788 0.234435 0.236538
H62   H     H_    0.416708 0.349762 0.216010 0.220089
O25   O     O_3   0.844624 0.856448 0.708453 -0.583045
C81   C     C_3   0.897703 0.909444 0.724964 0.055003
H63   H     H_    0.919970 0.782063 0.738480 0.141424
H64   H     H_    0.906013 0.005177 0.761876 0.122888
C82   C     C_3   0.917262 0.991048 0.673869 -0.318028
H65   H     H_    0.898556 0.918009 0.634175 0.218468
H66   H     H_    0.906476 0.139487 0.669092 0.183049
C83   C     C_3   0.976411 0.972919 0.680842 -0.802608
H67   H     H_    0.996490 0.030082 0.722413 0.222270
H68   H     H_    0.989726 0.049387 0.646118 0.243114
H69   H     H_    0.987374 0.825233 0.678384 0.235297
O26   O     O_3   0.155376 0.356423 0.291547 -0.583041
C84   C     C_3   0.102296 0.409420 0.275042 0.055005
H70   H     H_    0.080029 0.282040 0.261528 0.141431
H71   H     H_    0.093983 0.505153 0.238131 0.122879
C85   C     C_3   0.082743 0.491021 0.326141 -0.318048
H72   H     H_    0.101455 0.417986 0.365833 0.218471
H73   H     H_    0.093528 0.639462 0.330917 0.183051
C86   C     C_3   0.023596 0.472881 0.319178 -0.802597
H74   H     H_    0.003510 0.530065 0.277613 0.222282
H75   H     H_    0.010285 0.549327 0.353909 0.243112
H76   H     H_    0.012634 0.325193 0.321631 0.235304
C87   C     C_2   0.127020 0.628631 0.777459 0.313154
H77   H     H_    0.114585 0.495179 0.790636 0.092889
O27   O     O_2   0.135110 0.645095 0.729193 -0.526872
C88   C     C_2   0.872982 0.128642 0.222545 0.313174
H78   H     H_    0.885415 0.995188 0.209369 0.092891
O28   O     O_2   0.864895 0.145115 0.270812 -0.526871
C89   C     C_2   0.821324 0.180830 0.722918 0.317721
H79   H     H_    0.819178 0.246407 0.681719 0.067822
O29   O     O_2   0.836951 0.272018 0.765839 -0.556868
C90   C     C_2   0.178672 0.680815 0.277086 0.317720
H80   H     H_    0.180819 0.746388 0.318285 0.067818
O30   O     O_2   0.163044 0.772004 0.234165 -0.556865
O31   O     O_3   0.727266 0.536770 0.701732 -0.567995
C91   C     C_3   0.678989 0.465151 0.670683 0.093387
H81   H     H_    0.687091 0.324178 0.656715 0.132965
H82   H     H_    0.667464 0.538335 0.629576 0.131428
C92   C     C_3   0.632886 0.453716 0.702755 -0.423409
H83   H     H_    0.645893 0.396140 0.746231 0.187750
H84   H     H_    0.616552 0.592934 0.707464 0.197918
C93   C     C_3   0.588680 0.333995 0.670663 -0.746874
H85   H     H_    0.577973 0.377666 0.625531 0.261354
H86   H     H_    0.553861 0.346841 0.690449 0.229964
H87   H     H_    0.600805 0.187306 0.672478 0.227123
O32   O     O_3   0.272733 0.036766 0.298266 -0.567993
C94   C     C_3   0.321010 0.965150 0.329317 0.093388
H88   H     H_    0.312907 0.824178 0.343286 0.132965
H89   H     H_    0.332533 0.038336 0.370424 0.131426
C95   C     C_3   0.367113 0.953714 0.297246 -0.423409
H90   H     H_    0.354107 0.896136 0.253770 0.187750
H91   H     H_    0.383447 0.092932 0.292538 0.197918
C96   C     C_3   0.411318 0.833993 0.329339 -0.746871
H92   H     H_    0.422024 0.877662 0.374472 0.261352
H93   H     H_    0.446138 0.846842 0.309555 0.229965
H94   H     H_    0.399193 0.687304 0.327523 0.227123
C97   C     C_2   0.274940 0.260618 0.696475 0.301922
H95   H     H_    0.245617 0.368451 0.686806 0.077126
O33   O     O_2   0.319408 0.293899 0.690743 -0.524981
C98   C     C_2   0.725060 0.760624 0.303526 0.301922
H96   H     H_    0.754383 0.868458 0.313195 0.077123
O34   O     O_2   0.680592 0.793903 0.309259 -0.524980

loop_
_geom_bond_atom_site_label_1
_geom_bond_atom_site_label_2
_ccdc_geom_bond_type
C55   C61   S    
C36   C38   A    
O25   C81   S    
C33   C35   A    
C48   H28   S    
C9    C11   A    
C22   C98   S    
C2    C65   S    
C24   C42   S    
C96   H92   S    
O4    C4    A    
C70   C71   S    
C69   H35   S    
C20   C30   A    
C71   H41   S    
C58   C60   S    
C74   H46   S    
C96   H94   S    
C82   H66   S    
C47   C55   S    
O31   C91   S    
V4    O17   S    
C94   C95   S    
O14   V4    S    
C3    C50   S    
C57   H29   S    
O7    V1    S    
C26   C28   A    
C90   O30   D    
O11   V2    S    
C53   O31   S    
C52   C64   S    
C14   C16   A    
C79   H58   S    
C15   H3    S    
O3    C3    A    
O10   V4    S    
C21   C97   S    
C56   C58   S    
C72   C73   S    
C91   H82   S    
O19   C67   A    
C47   H25   S    
C2    O14   A    
C1    O17   A    
C92   C93   S    
C48   H26   S    
C32   H12   S    
O12   V1    S    
C20   C22   A    
C21   C23   A    
C86   H75   S    
O5    C5    A    
O26   C84   S    
C33   O23   S    
C70   H38   S    
C78   H57   S    
C12   C30   S    
C77   H54   S    
O5    V1    S    
C60   O26   S    
C82   H65   S    
O6    V2    S    
C87   O27   D    
O9    C68   A    
C44   C52   S    
C26   H8    S    
C13   H1    S    
C56   C62   S    
C9    C87   S    
C76   H52   S    
O10   C67   A    
C94   H89   S    
C81   C82   S    
C40   C42   A    
C51   C59   S    
C44   H20   S    
C24   C26   A    
C50   C62   T    
C43   H19   S    
C89   H79   S    
C55   C57   S    
C17   C68   S    
H17   C53   S    
C46   H22   S    
C11   C13   A    
C19   H5    S    
C73   C74   S    
O8    V2    S    
C57   H33   S    
C4    C49   S    
C20   H6    S    
C45   H21   S    
C95   H90   S    
C74   H47   S    
C81   H64   S    
C83   H67   S    
C82   C83   S    
C58   H34   S    
C5    C36   S    
C27   H9    S    
C3    O8    A    
C28   H10   S    
C31   H11   S    
C90   H80   S    
H18   C54   S    
C16   C18   A    
O32   C94   S    
C40   H16   S    
O6    C6    A    
C84   C85   S    
O15   V4    S    
C45   C47   S    
C27   C29   A    
C91   H81   S    
C71   H40   S    
C35   C37   A    
C94   H88   S    
C32   C42   A    
C25   H7    S    
C80   H61   S    
C37   H13   S    
C14   H2    S    
C86   H76   S    
C15   C17   A    
C84   H70   S    
C60   C90   S    
C84   H71   S    
C47   H27   S    
C97   H95   S    
C93   H87   S    
C38   C40   A    
O3    V1    S    
C34   O24   S    
C54   C56   S    
C92   H83   S    
C48   C56   S    
C1    O13   A    
C57   C59   S    
C76   C77   S    
C98   O34   D    
C75   C76   S    
C49   C61   T    
C58   H30   S    
C80   H62   S    
C46   C48   S    
C97   O33   D    
C93   H86   S    
C44   C54   S    
C75   H50   S    
C7    C9    A    
C2    O18   A    
C85   H73   S    
C70   H37   S    
C69   C70   S    
C31   C41   A    
C80   H60   S    
C78   C79   S    
C81   H63   S    
O16   V3    S    
O20   C68   A    
C28   C30   A    
V3    O18   S    
C86   H74   S    
C77   H53   S    
O1    V2    S    
C19   C21   A    
C59   O25   S    
C53   C55   S    
O2    V1    S    
C73   H44   S    
C8    C10   A    
C88   O28   D    
C45   C51   S    
C77   H55   S    
C44   H32   S    
C39   C41   A    
C11   C29   S    
C88   H78   S    
C8    O22   S    
C69   H36   S    
C83   H68   S    
C72   H42   S    
C96   H93   S    
C71   H39   S    
C1    C66   S    
V3    O19   S    
C23   C25   A    
C31   C33   A    
C52   C60   S    
C95   H91   S    
C32   C34   A    
O24   C78   S    
C85   C86   S    
C79   H59   S    
C51   C63   S    
C7    O21   S    
C19   C29   A    
O13   V3    S    
C78   H56   S    
O23   C75   S    
C7    C17   A    
C16   H4    S    
C12   C14   A    
C72   H43   S    
C91   C92   S    
C8    C18   A    
C46   C52   S    
C4    O7    A    
C25   C27   A    
C18   C67   S    
C63   C65   T    
C13   C15   A    
C10   C12   A    
C10   C88   S    
C6    C35   S    
O9    V3    S    
C43   C53   S    
C37   C39   A    
C79   C80   S    
C46   H24   S    
C98   H96   S    
O2    C6    A    
C64   C66   T    
C45   H23   S    
C83   H69   S    
O22   C72   S    
C23   C41   S    
O4    V2    S    
C22   C24   A    
V4    O20   S    
C59   C89   S    
O1    C5    A    
C93   H85   S    
C74   H48   S    
C54   O32   S    
C87   H77   S    
C39   H15   S    
C89   O29   D    
C38   H14   S    
C92   H84   S    
C75   H49   S    
C43   C51   S    
C85   H72   S    
C43   H31   S    
C95   C96   S    
C73   H45   S    
O21   C69   S    
C34   C36   A    
C76   H51   S    
