data_mof_unit_65640.cif
_audit_creation_date              2012-12-10T18:51:25-0500
_audit_creation_method            fapswitch 2.2
_symmetry_space_group_name_H-M    P1
_symmetry_Int_Tables_number       1
_space_group_crystal_system       triclinic
_cell_length_a                    19.418969
_cell_length_b                    18.11428
_cell_length_c                    19.463892
_cell_angle_alpha                 89.055551
_cell_angle_beta                  90.089218
_cell_angle_gamma                 89.562128
_cell_volume                      6845.49139065

loop_
_atom_site_label
_atom_site_type_symbol
_atom_type_description
_atom_site_fract_x
_atom_site_fract_y
_atom_site_fract_z
_atom_type_partial_charge
C1    C     C_R   0.367679 0.500182 0.500708 0.966824
C2    C     C_R   0.632330 0.499734 0.501098 0.919848
C3    C     C_R   0.852237 0.507754 0.505443 -0.029482
C4    C     C_R   0.147624 0.505960 0.506004 -0.023868
C5    C     C_R   0.707978 0.499551 0.501102 -0.319700
C6    C     C_R   0.292034 0.500759 0.502365 -0.321326
C7    C     C_R   0.963950 0.544730 0.557339 0.580411
C8    C     C_R   0.035874 0.469617 0.454871 0.576161
C9    C     C_R   0.035808 0.543981 0.557661 0.577027
C10   C     C_R   0.964146 0.470363 0.454544 0.575465
C11   C     C_R   0.072007 0.506522 0.506335 -0.281439
C12   C     C_R   0.927868 0.508016 0.505681 -0.282604
C13   C     C_R   0.444798 0.721203 0.525632 -0.033020
C14   C     C_R   0.451242 0.278850 0.536550 0.036942
C15   C     C_R   0.554948 0.721297 0.473885 0.025006
C16   C     C_R   0.549004 0.278924 0.464217 -0.008712
C17   C     C_R   0.443369 0.798701 0.525482 0.539286
C18   C     C_R   0.450532 0.201326 0.537956 0.547851
C19   C     C_R   0.556217 0.798782 0.473931 0.554491
C20   C     C_R   0.549628 0.201470 0.463332 0.531405
C21   C     C_R   0.499787 0.838453 0.499762 -0.153702
C22   C     C_R   0.500001 0.161672 0.500679 -0.140530
C23   C     C_R   0.529878 0.959301 0.555560 -0.060366
C24   C     C_R   0.470887 0.040801 0.444462 -0.061263
C25   C     C_R   0.469931 0.962208 0.444753 -0.055388
C26   C     C_R   0.528899 0.037910 0.556317 -0.057713
C27   C     C_R   0.499800 0.078783 0.500566 0.089063
C28   C     C_R   0.499831 0.921328 0.500049 0.089934
C29   C     C_R   0.502817 0.500899 0.367150 0.892183
C30   C     C_R   0.497865 0.499249 0.632896 0.849900
C31   C     C_R   0.486994 0.567556 0.252147 -0.050091
C32   C     C_R   0.515943 0.434503 0.748467 -0.046820
C33   C     C_R   0.470507 0.561104 0.745307 -0.018307
C34   C     C_R   0.531574 0.440715 0.254298 -0.009248
C35   C     C_R   0.483561 0.565072 0.180603 -0.146993
C36   C     C_R   0.520661 0.438304 0.819848 -0.157642
C37   C     C_R   0.475926 0.562862 0.816951 -0.150377
C38   C     C_R   0.527298 0.440065 0.182598 -0.146317
C39   C     C_R   0.503374 0.501828 0.145393 0.005557
C40   C     C_R   0.500834 0.501847 0.854549 0.009219
C41   C     C_R   0.508036 0.503520 0.290713 -0.150253
C42   C     C_R   0.493609 0.497612 0.709378 -0.145717
C43   C     C_R   0.502453 0.502495 0.930277 0.447964
C44   C     C_R   0.502417 0.501799 0.069654 0.448454
C45   C     C_R   0.744841 0.467920 0.557480 -0.195039
C46   C     C_R   0.254822 0.535708 0.448189 -0.203921
C47   C     C_R   0.256248 0.466917 0.557968 -0.187083
C48   C     C_R   0.744060 0.536836 0.447593 -0.186272
C49   C     C_R   0.816763 0.472501 0.558943 0.641617
C50   C     C_R   0.182860 0.539287 0.451276 0.632244
C51   C     C_R   0.184020 0.469534 0.558775 0.638436
C52   C     C_R   0.816089 0.540463 0.450526 0.639031
Cu1   Cu    Cu3+1 0.500000 0.573360 0.500000 1.030595
Cu2   Cu    Cu3+1 0.500000 0.426640 0.500000 1.061202
H1    H     H_    0.466732 0.613936 0.152152 0.189827
H2    H     H_    0.538154 0.389974 0.848699 0.190515
H3    H     H_    0.458137 0.611431 0.843674 0.196636
H4    H     H_    0.545316 0.391776 0.155590 0.196134
H5    H     H_    0.401417 0.691279 0.546314 0.209407
H6    H     H_    0.412847 0.309068 0.565114 0.192261
H7    H     H_    0.598122 0.691476 0.452606 0.187361
H8    H     H_    0.588075 0.309063 0.436482 0.208989
N1    N     N_R   0.524324 0.441771 0.034891 -0.198930
N2    N     N_R   0.480608 0.562587 0.965026 -0.198678
N3    N     N_R   0.524264 0.442105 0.966605 -0.200668
N4    N     N_R   0.480679 0.562260 0.033348 -0.199507
N5    N     N_R   0.500000 0.683620 0.500000 -0.257256
N6    N     N_R   0.500000 0.316380 0.500000 -0.256844
O1    O     O_R   0.400190 0.561980 0.499990 -0.578638
O2    O     O_R   0.599810 0.438020 0.500010 -0.528597
O3    O     O_R   0.599810 0.561980 0.500010 -0.602456
O4    O     O_R   0.400190 0.438020 0.499990 -0.575510
O5    O     O_R   0.499990 0.561970 0.400150 -0.550987
O6    O     O_R   0.500010 0.438030 0.599850 -0.543165
O7    O     O_R   0.500010 0.561970 0.599850 -0.575477
O8    O     O_R   0.499990 0.438030 0.400150 -0.570731
C53   C     C_2   0.468988 0.639290 0.282958 0.872661
O9    O     O_2   0.512482 0.673705 0.314389 -0.540028
O10   O     O_R   0.403612 0.669909 0.271605 -0.722289
H9    H     H_    0.397266 0.719106 0.294894 0.357064
C54   C     C_2   0.532700 0.361878 0.718853 0.913580
O11   O     O_2   0.488995 0.328390 0.686899 -0.552640
O12   O     O_R   0.596390 0.328674 0.733255 -0.733016
H10   H     H_    0.601247 0.278226 0.711963 0.359875
C55   C     C_2   0.435723 0.624961 0.711102 0.895609
O13   O     O_2   0.390698 0.614851 0.668353 -0.544232
O14   O     O_R   0.452391 0.696756 0.730103 -0.727420
H11   H     H_    0.425070 0.735642 0.703445 0.376143
C56   C     C_2   0.566562 0.376995 0.288141 0.881863
O15   O     O_2   0.612473 0.387348 0.329851 -0.544302
O16   O     O_R   0.549413 0.305158 0.269717 -0.722956
H12   H     H_    0.577307 0.266338 0.295846 0.371891
C57   C     C_2   0.710118 0.432887 0.617380 0.944657
O17   O     O_2   0.665881 0.386288 0.609046 -0.560613
O18   O     O_R   0.730090 0.451744 0.683836 -0.655689
H13   H     H_    0.703323 0.424180 0.720677 0.367472
C58   C     C_2   0.289502 0.562501 0.384908 0.983511
O19   O     O_2   0.272439 0.621453 0.358229 -0.461247
O20   O     O_R   0.339410 0.518220 0.353972 -0.778446
H14   H     H_    0.354620 0.538722 0.307815 0.346519
C59   C     C_2   0.292591 0.429148 0.616092 0.966040
O21   O     O_2   0.345681 0.454669 0.639221 -0.595450
O22   O     O_R   0.265201 0.364797 0.645390 -0.636245
H15   H     H_    0.294476 0.344282 0.684546 0.363847
C60   C     C_2   0.708169 0.571591 0.387575 0.972605
O23   O     O_2   0.657988 0.542093 0.362280 -0.586449
O24   O     O_R   0.732597 0.637765 0.359154 -0.639343
H16   H     H_    0.703907 0.655914 0.318621 0.364360
F1    F     F_    0.852768 0.440201 0.611526 -0.554058
F2    F     F_    0.146593 0.572848 0.399548 -0.553157
F3    F     F_    0.148690 0.437264 0.611378 -0.549686
F4    F     F_    0.851637 0.574627 0.399101 -0.548089
F5    F     F_    0.929486 0.581974 0.606732 -0.520191
F6    F     F_    0.070230 0.431991 0.405638 -0.526268
F7    F     F_    0.070157 0.580613 0.607278 -0.522013
F8    F     F_    0.929940 0.433286 0.405104 -0.524365
F9    F     F_    0.387731 0.834654 0.551080 -0.583378
F10   F     F_    0.401579 0.165283 0.574829 -0.580710
F11   F     F_    0.611721 0.834830 0.448162 -0.575811
F12   F     F_    0.598755 0.165584 0.426972 -0.591753
C61   C     C_2   0.564527 0.916439 0.611845 0.930385
O25   O     O_2   0.622788 0.932671 0.629798 -0.504824
O26   O     O_R   0.530658 0.857554 0.644111 -0.726256
H17   H     H_    0.559728 0.832557 0.681157 0.365160
C62   C     C_2   0.443218 0.083686 0.384442 0.935346
O27   O     O_2   0.460112 0.067138 0.326145 -0.507295
O28   O     O_R   0.398215 0.143108 0.394634 -0.721587
H18   H     H_    0.383552 0.168151 0.349944 0.365003
C63   C     C_2   0.435957 0.922408 0.387843 0.929365
O29   O     O_2   0.377401 0.939442 0.370221 -0.504977
O30   O     O_R   0.471011 0.865795 0.354321 -0.706558
H19   H     H_    0.442794 0.843743 0.316044 0.351944
C64   C     C_2   0.557275 0.077781 0.616204 0.939911
O31   O     O_2   0.540403 0.059664 0.674563 -0.509827
O32   O     O_R   0.603187 0.135960 0.605797 -0.712959
H20   H     H_    0.619035 0.158317 0.650457 0.352702

loop_
_geom_bond_atom_site_label_1
_geom_bond_atom_site_label_2
_ccdc_geom_bond_type
O14   H11   S    
N1    N3    A    
C59   O21   D    
C47   C59   S    
C14   C18   A    
C44   N4    A    
O18   H13   S    
C24   C27   A    
Cu1   O1    S    
C43   N3    A    
C58   O19   D    
C3    C49   A    
O26   H17   S    
C23   C61   S    
C29   O8    A    
C53   O9    D    
C25   C28   A    
C15   C19   A    
C32   C54   S    
C60   O24   S    
C26   C27   A    
C57   O17   D    
O12   H10   S    
C33   C42   A    
C32   C36   A    
C19   C21   A    
C37   C40   A    
C38   C39   A    
C30   O6    A    
C29   O5    A    
C52   F4    S    
C50   F2    S    
C23   C26   A    
C33   C55   S    
C57   O18   S    
C36   C40   A    
C3    C12   S    
C54   O12   S    
Cu2   O6    S    
C40   C43   S    
C48   C60   S    
O24   H16   S    
C16   N6    A    
C56   O16   S    
C6    C46   A    
C18   F10   S    
C8    F6    S    
C55   O14   S    
C25   C63   S    
C59   O22   S    
C38   H4    S    
Cu1   O7    S    
C34   C41   A    
C16   H8    S    
C58   O20   S    
C43   N2    A    
C31   C53   S    
C53   O10   S    
C44   N1    A    
C32   C42   A    
C7    C12   A    
C5    C48   A    
C1    O4    A    
C6    C47   A    
C4    C51   A    
C35   H1    S    
C1    C6    S    
C9    F7    S    
O32   H20   S    
C24   C25   A    
O16   H12   S    
C34   C38   A    
C47   C51   A    
C54   O11   D    
C55   O13   D    
C5    C45   A    
C1    O1    A    
C4    C50   A    
N2    N4    A    
C35   C39   A    
C36   H2    S    
C64   O31   D    
O20   H14   S    
Cu2   O2    S    
C45   C49   A    
C16   C20   A    
Cu2   N6    S    
C15   N5    A    
C15   H7    S    
C23   C28   A    
C4    C11   S    
C62   O28   S    
C9    C11   A    
C61   O25   D    
C10   C12   A    
Cu2   O8    S    
C21   C28   S    
C20   C22   A    
C45   C57   S    
C22   C27   S    
C62   O27   D    
C31   C35   A    
C2    C5    S    
O28   H18   S    
Cu1   O3    S    
C20   F12   S    
C10   F8    S    
C49   F1    S    
C63   O29   D    
C13   N5    A    
C7    C9    A    
C51   F3    S    
C31   C41   A    
C29   C41   S    
C18   C22   A    
C46   C58   S    
Cu1   O5    S    
C3    C52   A    
Cu1   Cu2   S    
C39   C44   S    
C13   H5    S    
C17   F9    S    
C14   H6    S    
C60   O23   D    
C46   C50   A    
C13   C17   A    
C7    F5    S    
C34   C56   S    
C26   C64   S    
C30   O7    A    
C24   C62   S    
C8    C11   A    
O30   H19   S    
Cu1   N5    S    
C33   C37   A    
C61   O26   S    
C19   F11   S    
O10   H9    S    
C48   C52   A    
Cu2   O4    S    
C8    C10   A    
O22   H15   S    
C64   O32   S    
C14   N6    A    
C30   C42   S    
C56   O15   D    
C2    O2    A    
C37   H3    S    
C2    O3    A    
C63   O30   S    
C17   C21   A    
