data_mof_unit_21226.cif
_audit_creation_date              2012-12-10T16:55:12-0500
_audit_creation_method            fapswitch 2.2
_symmetry_space_group_name_H-M    P1
_symmetry_Int_Tables_number       1
_space_group_crystal_system       triclinic
_cell_length_a                    18.502488
_cell_length_b                    18.53168
_cell_length_c                    51.313822
_cell_angle_alpha                 89.995502
_cell_angle_beta                  90.000237
_cell_angle_gamma                 89.944258
_cell_volume                      17594.5871204

loop_
_atom_site_label
_atom_site_type_symbol
_atom_type_description
_atom_site_fract_x
_atom_site_fract_y
_atom_site_fract_z
_atom_type_partial_charge
C1    C     C_R   0.000034 0.500000 0.070820 0.541688
C2    C     C_R   0.116623 0.561524 0.264251 0.281660
C3    C     C_R   0.862449 0.639758 0.501019 0.512293
C4    C     C_2   0.681290 0.261781 0.996786 0.109545
C5    C     C_2   0.738106 0.681207 0.997839 0.109975
C6    C     C_2   0.318705 0.738222 0.996779 0.109554
C7    C     C_2   0.261912 0.318813 0.997856 0.110050
C8    C     C_2   0.316467 0.262777 0.992658 0.140664
C9    C     C_2   0.262102 0.684280 0.991671 0.145098
C10   C     C_2   0.683555 0.737251 0.992641 0.140588
C11   C     C_2   0.737888 0.315732 0.991679 0.145187
C12   C     C_2   0.181275 0.761703 0.497222 0.110825
C13   C     C_R   0.436784 0.115999 0.264096 0.262317
C14   C     C_2   0.238064 0.181185 0.497592 0.110464
C15   C     C_2   0.818720 0.238303 0.497235 0.110750
C16   C     C_2   0.761958 0.818843 0.497620 0.110519
C17   C     C_2   0.816449 0.762676 0.492513 0.137372
C18   C     C_2   0.762375 0.184088 0.492094 0.137738
C19   C     C_2   0.183587 0.237365 0.492483 0.137485
C20   C     C_2   0.237628 0.815912 0.492080 0.137993
C21   C     C_2   0.698024 0.190327 0.996355 0.319665
C22   C     C_2   0.809523 0.697432 0.995936 0.321453
C23   C     C_2   0.301967 0.809676 0.996365 0.319703
C24   C     C_R   0.882295 0.439107 0.264215 0.281737
C25   C     C_2   0.190498 0.302571 0.995956 0.321920
C26   C     C_2   0.312470 0.199501 0.005600 0.321353
C27   C     C_2   0.200522 0.686134 0.005770 0.322918
C28   C     C_2   0.687581 0.800533 0.005577 0.321365
C29   C     C_2   0.799493 0.313838 0.005764 0.322730
C30   C     C_2   0.197759 0.690261 0.496102 0.321273
C31   C     C_2   0.309540 0.197509 0.496065 0.321577
C32   C     C_2   0.802242 0.309746 0.496103 0.321203
C33   C     C_2   0.690485 0.802499 0.496095 0.322096
C34   C     C_2   0.812669 0.699617 0.505614 0.319910
C35   C     C_R   0.048270 0.454709 0.778434 0.006505
C36   C     C_2   0.699689 0.187247 0.505510 0.319550
C37   C     C_2   0.187383 0.300416 0.505587 0.319748
C38   C     C_2   0.300293 0.812767 0.505511 0.319468
C39   C     C_R   0.472166 0.058194 0.195217 0.421041
C40   C     C_R   0.941674 0.472043 0.195271 0.414322
C41   C     C_R   0.527915 0.942075 0.195220 0.421028
C42   C     C_R   0.057430 0.528565 0.195290 0.412944
C43   C     C_R   0.953241 0.544276 0.695616 0.420342
C44   C     C_R   0.437342 0.984647 0.695212 0.421066
C45   C     C_R   0.046220 0.455016 0.695614 0.421237
C46   C     C_R   0.563791 0.017176 0.777952 0.007575
C47   C     C_R   0.562426 0.015808 0.695222 0.419515
C48   C     C_R   0.529140 0.940539 0.222748 0.023240
C49   C     C_R   0.059759 0.528390 0.222844 0.013639
C50   C     C_R   0.470994 0.059755 0.222745 0.023264
C51   C     C_R   0.939245 0.472282 0.222825 0.013092
C52   C     C_R   0.047769 0.453845 0.723161 0.023271
C53   C     C_R   0.564283 0.016207 0.722733 0.024041
C54   C     C_R   0.951646 0.545383 0.723162 0.023815
C55   C     C_R   0.435452 0.984262 0.722724 0.023601
C56   C     C_R   0.500073 0.000150 0.236552 -0.114603
C57   C     C_R   0.951247 0.544597 0.778435 0.006451
C58   C     C_R   0.999489 0.500326 0.236620 -0.109722
C59   C     C_R   0.999714 0.499617 0.736970 -0.113851
C60   C     C_R   0.499864 0.000222 0.736524 -0.114281
C61   C     C_R   0.559419 0.881998 0.236755 0.102707
C62   C     C_R   0.119651 0.556655 0.236857 0.108729
C63   C     C_R   0.440769 0.118321 0.236750 0.102715
C64   C     C_R   0.879302 0.444057 0.236821 0.108585
C65   C     C_R   0.096286 0.409126 0.737187 0.102756
C66   C     C_R   0.628035 0.033115 0.736734 0.103052
C67   C     C_R   0.903117 0.590082 0.737189 0.102962
C68   C     C_R   0.435929 0.983155 0.777945 0.007612
C69   C     C_R   0.371690 0.967345 0.736718 0.102895
C70   C     C_3   0.786672 0.097621 0.991587 0.029485
C71   C     C_3   0.811592 0.083741 0.019681 -0.242289
C72   C     C_3   0.837737 0.006311 0.023147 -0.486464
C73   C     C_3   0.902438 0.782479 0.986401 0.023728
C74   C     C_3   0.921879 0.814273 0.013075 -0.242675
C75   C     C_3   0.000459 0.838665 0.013942 -0.483837
C76   C     C_3   0.213274 0.902371 0.991672 0.029602
C77   C     C_3   0.188486 0.916137 0.019789 -0.242304
C78   C     C_3   0.162363 0.993556 0.023308 -0.486568
C79   C     C_R   0.530515 0.941461 0.278004 0.007667
C80   C     C_3   0.097621 0.217446 0.986480 0.023503
C81   C     C_3   0.078301 0.185728 0.013179 -0.241934
C82   C     C_3   0.999704 0.161404 0.014109 -0.482730
C83   C     C_3   0.286038 0.210895 0.048892 -0.007447
C84   C     C_3   0.223580 0.212185 0.068356 -0.259089
C85   C     C_3   0.249298 0.233385 0.095545 -0.472319
C86   C     C_3   0.216553 0.704327 0.049369 -0.007812
C87   C     C_3   0.219467 0.762601 0.070395 -0.260261
C88   C     C_3   0.242587 0.731438 0.096628 -0.472046
C89   C     C_3   0.714328 0.788925 0.048850 -0.006576
C90   C     C_R   0.058985 0.528920 0.278034 -0.000978
C91   C     C_3   0.777289 0.785828 0.068078 -0.260181
C92   C     C_3   0.751954 0.764201 0.095271 -0.472734
C93   C     C_3   0.783412 0.295462 0.049353 -0.006921
C94   C     C_3   0.780160 0.237021 0.070316 -0.260082
C95   C     C_3   0.756899 0.268025 0.096555 -0.469676
C96   C     C_3   0.283913 0.596850 0.488279 0.022391
C97   C     C_3   0.312389 0.577586 0.515477 -0.241502
C98   C     C_3   0.337119 0.499234 0.516695 -0.482609
C99   C     C_3   0.402883 0.282897 0.487369 0.021718
C100  C     C_3   0.423040 0.312458 0.514314 -0.242468
C101  C     C_R   0.469677 0.058856 0.278002 0.007658
C102  C     C_3   0.501606 0.336820 0.515110 -0.483074
C103  C     C_3   0.716140 0.403180 0.488236 0.022624
C104  C     C_3   0.687661 0.422547 0.515423 -0.242286
C105  C     C_3   0.663010 0.500927 0.516607 -0.483941
C106  C     C_3   0.597176 0.717015 0.487483 0.021539
C107  C     C_3   0.577146 0.687585 0.514461 -0.241773
C108  C     C_3   0.498592 0.663191 0.515315 -0.481957
C109  C     C_3   0.787237 0.711885 0.548949 -0.005833
C110  C     C_3   0.725310 0.713041 0.568632 -0.260419
C111  C     C_3   0.751614 0.734869 0.595683 -0.472327
C112  C     C_R   0.500000 0.000006 0.070819 0.527549
C113  C     C_R   0.939951 0.471610 0.278018 -0.000979
C114  C     C_3   0.713155 0.211337 0.548893 -0.004495
C115  C     C_3   0.715295 0.272703 0.568752 -0.259742
C116  C     C_3   0.738088 0.245704 0.595614 -0.475733
C117  C     C_3   0.213107 0.287901 0.548901 -0.004141
C118  C     C_3   0.275491 0.285191 0.568380 -0.260870
C119  C     C_3   0.249538 0.262919 0.595428 -0.469937
C120  C     C_3   0.286642 0.788748 0.548893 -0.004310
C121  C     C_3   0.284065 0.727344 0.568734 -0.259229
C122  C     C_3   0.261099 0.754368 0.595572 -0.473658
C123  C     C_3   0.211242 0.414369 0.782620 0.030328
C124  C     C_R   0.999739 0.499636 0.764596 -0.134327
C125  C     C_3   0.267068 0.369377 0.797391 -0.235637
C126  C     C_3   0.335341 0.412795 0.803019 -0.499166
C127  C     C_3   0.685205 0.133625 0.781544 0.025161
C128  C     C_3   0.757907 0.159125 0.792202 -0.238393
C129  C     C_3   0.757061 0.239797 0.798120 -0.498335
C130  C     C_3   0.788285 0.584941 0.782675 0.030324
C131  C     C_3   0.732510 0.629987 0.797448 -0.235647
C132  C     C_3   0.664259 0.586588 0.803134 -0.499188
C133  C     C_3   0.314522 0.866705 0.781500 0.025217
C134  C     C_3   0.241865 0.841190 0.792195 -0.238396
C135  C     C_R   0.499860 0.000188 0.764127 -0.134687
C136  C     C_3   0.242726 0.760503 0.798093 -0.498248
C137  C     C_3   0.671252 0.847800 0.280936 0.021373
C138  C     C_3   0.713594 0.780685 0.289094 -0.237698
C139  C     C_3   0.793393 0.797645 0.293438 -0.494256
C140  C     C_3   0.148523 0.665924 0.285579 0.038453
C141  C     C_3   0.173645 0.723909 0.266375 -0.280919
C142  C     C_3   0.156015 0.799440 0.276398 -0.490698
C143  C     C_3   0.329044 0.152692 0.280953 0.021430
C144  C     C_3   0.286851 0.219840 0.289170 -0.237673
C145  C     C_3   0.207045 0.202994 0.293558 -0.494048
C146  C     C_R   0.500087 0.000155 0.264174 -0.135274
C147  C     C_3   0.850290 0.334618 0.285471 0.038422
C148  C     C_3   0.824960 0.276763 0.266255 -0.280716
C149  C     C_3   0.842493 0.201155 0.276229 -0.490555
C150  C     C_3   0.144912 0.580918 0.839862 0.029217
C151  C     C_3   0.202605 0.626243 0.853526 -0.253205
C152  C     C_3   0.278530 0.604335 0.844998 -0.504010
C153  C     C_3   0.502078 0.171448 0.843912 0.022169
C154  C     C_3   0.475466 0.231882 0.826072 -0.260467
C155  C     C_3   0.532635 0.290474 0.822744 -0.499871
C156  C     C_3   0.854817 0.418716 0.839996 0.029295
C157  C     C_R   0.999472 0.500290 0.264194 -0.137544
C158  C     C_3   0.797155 0.373403 0.853685 -0.253240
C159  C     C_3   0.721205 0.395417 0.845219 -0.504024
C160  C     C_3   0.497688 0.828676 0.843867 0.022157
C161  C     C_3   0.524337 0.768227 0.826045 -0.260402
C162  C     C_3   0.467151 0.709664 0.822691 -0.499796
C163  C     C_3   0.668496 0.033063 0.343827 0.025561
C164  C     C_3   0.720954 0.070478 0.325233 -0.260720
C165  C     C_3   0.789897 0.026350 0.321558 -0.500731
C166  C     C_3   0.970250 0.657678 0.335278 0.033847
C167  C     C_3   0.947545 0.733804 0.343275 -0.254846
C168  C     C_R   0.044319 0.453214 0.805894 0.422998
C169  C     C_3   0.989579 0.790903 0.328130 -0.503662
C170  C     C_3   0.331601 0.967277 0.343792 0.025482
C171  C     C_3   0.279221 0.930051 0.325122 -0.260677
C172  C     C_3   0.210294 0.974218 0.321466 -0.500731
C173  C     C_3   0.028529 0.342462 0.335165 0.033781
C174  C     C_3   0.051117 0.266244 0.343094 -0.254884
C175  C     C_3   0.008864 0.209318 0.327946 -0.503490
C176  C     C_3   0.021622 0.661571 0.910445 0.024671
C177  C     C_3   0.012808 0.723802 0.891078 -0.246386
C178  C     C_3   0.964497 0.783097 0.902217 -0.495198
C179  C     C_R   0.562932 0.013101 0.805380 0.430520
C180  C     C_3   0.370210 0.103992 0.908033 0.042443
C181  C     C_3   0.316231 0.137599 0.888940 -0.251687
C182  C     C_3   0.239037 0.132962 0.899306 -0.495124
C183  C     C_3   0.978336 0.338323 0.910575 0.024677
C184  C     C_3   0.987096 0.275985 0.891254 -0.246405
C185  C     C_3   0.035424 0.216745 0.902425 -0.495194
C186  C     C_3   0.629691 0.896023 0.907979 0.042460
C187  C     C_3   0.683622 0.862419 0.888869 -0.251658
C188  C     C_3   0.760840 0.867040 0.899212 -0.495122
C189  C     C_3   0.578401 0.147912 0.406044 0.034973
C190  C     C_R   0.955298 0.546186 0.805892 0.423034
C191  C     C_3   0.634166 0.188496 0.422401 -0.250040
C192  C     C_3   0.605425 0.261528 0.431455 -0.489291
C193  C     C_3   0.852810 0.580654 0.406361 0.035866
C194  C     C_3   0.812672 0.638040 0.422128 -0.250731
C195  C     C_3   0.739372 0.610757 0.431523 -0.488129
C196  C     C_3   0.421533 0.852211 0.405986 0.034966
C197  C     C_3   0.365762 0.811661 0.422353 -0.250156
C198  C     C_3   0.394434 0.738572 0.431380 -0.489301
C199  C     C_3   0.146809 0.418765 0.406041 0.035774
C200  C     C_3   0.186744 0.361410 0.421892 -0.251054
C201  C     C_R   0.436792 0.987130 0.805375 0.430487
C202  C     C_3   0.260688 0.388064 0.430856 -0.488380
C203  C     C_R   0.526582 0.941509 0.305453 0.430859
C204  C     C_R   0.500059 0.999997 0.570803 0.541873
C205  C     C_R   0.059353 0.523616 0.305460 0.410656
C206  C     C_R   0.473608 0.058795 0.305452 0.430903
C207  C     C_R   0.939608 0.476748 0.305450 0.410667
C208  C     C_R   0.038496 0.553152 0.860467 0.265126
C209  C     C_R   0.474253 0.060541 0.859812 0.255499
C210  C     C_R   0.961347 0.446490 0.860520 0.265162
C211  C     C_R   0.525523 0.939542 0.859795 0.255496
C212  C     C_R   0.554296 0.037298 0.359991 0.254974
C213  C     C_R   0.962495 0.554566 0.360141 0.266779
C214  C     C_R   0.445782 0.962929 0.359970 0.254995
C215  C     C_R   0.999999 0.500078 0.570883 0.540076
C216  C     C_R   0.036639 0.445437 0.360084 0.266621
C217  C     C_R   0.035500 0.555521 0.887734 0.203041
C218  C     C_R   0.470598 0.059300 0.887102 0.194682
C219  C     C_R   0.964432 0.444252 0.887786 0.203014
C220  C     C_R   0.529252 0.940745 0.887085 0.194728
C221  C     C_R   0.552838 0.039673 0.387328 0.184198
C222  C     C_R   0.960392 0.552984 0.387405 0.198321
C223  C     C_R   0.447193 0.960485 0.387307 0.184159
C224  C     C_R   0.039008 0.446969 0.387348 0.198361
C225  C     C_R   0.999987 0.499920 0.901448 -0.057043
C226  C     C_R   0.098945 0.412364 0.764549 0.260453
C227  C     C_R   0.499948 0.000015 0.901014 -0.063879
C228  C     C_R   0.500009 0.000054 0.401135 -0.054097
C229  C     C_R   0.999813 0.499996 0.401177 -0.062029
C230  C     C_R   0.999900 0.499787 0.846839 0.143102
C231  C     C_R   0.499869 0.000051 0.846256 0.157457
C232  C     C_R   0.500055 0.000124 0.346389 0.158631
C233  C     C_R   0.999526 0.500033 0.346409 0.135824
C234  C     C_R   0.447903 0.960707 0.140788 -0.056723
C235  C     C_R   0.038829 0.447600 0.140882 -0.056218
C236  C     C_R   0.552101 0.039493 0.140772 -0.056703
C237  C     C_R   0.626685 0.037166 0.764073 0.260774
C238  C     C_R   0.960920 0.552518 0.140756 -0.069703
C239  C     C_R   0.943817 0.466645 0.640990 -0.069083
C240  C     C_R   0.536696 0.945896 0.640774 -0.055730
C241  C     C_R   0.056042 0.533355 0.641102 -0.056187
C242  C     C_R   0.463475 0.054144 0.640683 -0.069436
C243  C     C_R   0.447333 0.960028 0.113462 0.056540
C244  C     C_R   0.039655 0.446941 0.113532 0.053145
C245  C     C_R   0.552665 0.040103 0.113446 0.056533
C246  C     C_R   0.960835 0.553011 0.113476 0.048323
C247  C     C_R   0.943413 0.466334 0.613702 0.048523
C248  C     C_R   0.900521 0.586894 0.764553 0.260388
C249  C     C_R   0.537635 0.945347 0.613454 0.052302
C250  C     C_R   0.056629 0.534419 0.613744 0.053355
C251  C     C_R   0.463162 0.054558 0.613432 0.047631
C252  C     C_R   0.999999 0.499997 0.929972 0.533731
C253  C     C_R   0.499992 0.000003 0.929817 0.517924
C254  C     C_R   0.500001 0.000007 0.429854 0.530231
C255  C     C_R   0.999990 0.500000 0.429877 0.526621
C256  C     C_R   0.500000 0.000044 0.099598 0.081873
C257  C     C_R   0.000234 0.500013 0.099616 0.092630
C258  C     C_R   0.999987 0.500344 0.599769 0.089989
C259  C     C_R   0.373034 0.963217 0.764057 0.260840
C260  C     C_R   0.500348 0.999998 0.599565 0.091544
C261  C     C_R   0.500005 0.000115 0.154355 0.192980
C262  C     C_R   0.999727 0.500102 0.154417 0.200235
C263  C     C_R   0.999892 0.499837 0.654673 0.195096
C264  C     C_R   0.499972 0.000057 0.654331 0.191877
C265  C     C_R   0.861899 0.639042 0.999722 0.477095
C266  C     C_R   0.360711 0.862019 0.999741 0.476716
C267  C     C_R   0.138104 0.360956 0.999725 0.474336
C268  C     C_R   0.639286 0.137984 0.999740 0.476679
C269  C     C_R   0.139892 0.637401 0.001021 0.519112
C270  C     C_R   0.563433 0.884336 0.264100 0.262387
C271  C     C_R   0.637580 0.860256 0.001019 0.515552
C272  C     C_R   0.860110 0.362594 0.001021 0.520285
C273  C     C_R   0.362426 0.139751 0.001021 0.515477
C274  C     C_R   0.361889 0.139042 0.499746 0.479018
C275  C     C_R   0.860878 0.361937 0.499756 0.478757
C276  C     C_R   0.638116 0.860958 0.499751 0.476220
C277  C     C_R   0.139125 0.638064 0.499755 0.475825
C278  C     C_R   0.639761 0.137550 0.500980 0.511632
C279  C     C_R   0.137559 0.360250 0.501016 0.513547
C280  C     C_R   0.360236 0.862449 0.500980 0.512924
H1    H     H_    0.408078 0.930240 0.151656 0.123714
H2    H     H_    0.592596 0.265074 0.020364 0.219250
H3    H     H_    0.270324 0.586516 0.530489 0.193769
H4    H     H_    0.291470 0.462522 0.512067 0.204664
H5    H     H_    0.356933 0.486789 0.536624 0.142810
H6    H     H_    0.381799 0.489787 0.502633 0.131311
H7    H     H_    0.412253 0.326563 0.472924 0.132885
H8    H     H_    0.438740 0.238056 0.481038 0.123736
H9    H     H_    0.387634 0.358905 0.519023 0.187178
H10   H     H_    0.414420 0.271154 0.529595 0.192121
H11   H     H_    0.538146 0.290884 0.510620 0.204451
H12   H     H_    0.514568 0.357382 0.534889 0.140677
H13   H     H_    0.724761 0.573338 0.991528 0.260835
H14   H     H_    0.510864 0.380779 0.500771 0.132271
H15   H     H_    0.671736 0.412890 0.474083 0.132733
H16   H     H_    0.760663 0.439176 0.481759 0.124551
H17   H     H_    0.641489 0.386998 0.520287 0.186946
H18   H     H_    0.729696 0.413615 0.530446 0.192311
H19   H     H_    0.708694 0.537581 0.511962 0.204512
H20   H     H_    0.643213 0.513444 0.536531 0.140927
H21   H     H_    0.618338 0.510381 0.502541 0.132071
H22   H     H_    0.587788 0.673259 0.473077 0.132620
H23   H     H_    0.561258 0.761790 0.481133 0.124325
H24   H     H_    0.737252 0.596924 0.023371 0.220026
H25   H     H_    0.612591 0.641179 0.519185 0.186987
H26   H     H_    0.585819 0.728966 0.529709 0.193879
H27   H     H_    0.462015 0.709093 0.510816 0.204492
H28   H     H_    0.485712 0.642705 0.535113 0.142505
H29   H     H_    0.489296 0.619167 0.501008 0.131609
H30   H     H_    0.810879 0.767174 0.547910 0.125534
H31   H     H_    0.829401 0.673365 0.555781 0.152187
H32   H     H_    0.683530 0.752171 0.562075 0.171532
H33   H     H_    0.700261 0.658609 0.569706 0.171162
H34   H     H_    0.792628 0.695836 0.602877 0.164466
H35   H     H_    0.425381 0.724890 0.987860 0.264653
H36   H     H_    0.705295 0.735321 0.609443 0.152275
H37   H     H_    0.775627 0.789767 0.595120 0.151468
H38   H     H_    0.768384 0.187398 0.547535 0.126256
H39   H     H_    0.674613 0.169331 0.555765 0.151485
H40   H     H_    0.754387 0.314350 0.562123 0.171979
H41   H     H_    0.660922 0.297996 0.570169 0.169685
H42   H     H_    0.699065 0.204881 0.602894 0.161242
H43   H     H_    0.739340 0.291655 0.609495 0.148116
H44   H     H_    0.792914 0.221344 0.594704 0.152794
H45   H     H_    0.188512 0.233034 0.547776 0.126141
H46   H     H_    0.407453 0.734895 0.020331 0.219278
H47   H     H_    0.171754 0.326940 0.555979 0.157233
H48   H     H_    0.316490 0.245624 0.561532 0.172027
H49   H     H_    0.301415 0.339189 0.569584 0.172072
H50   H     H_    0.209376 0.302389 0.602925 0.169403
H51   H     H_    0.296212 0.261234 0.609021 0.150751
H52   H     H_    0.224592 0.208451 0.594722 0.152796
H53   H     H_    0.231520 0.812913 0.547480 0.125545
H54   H     H_    0.325289 0.830584 0.555819 0.156269
H55   H     H_    0.244878 0.685864 0.562043 0.169790
H56   H     H_    0.338325 0.701840 0.570216 0.173358
H57   H     H_    0.275240 0.426675 0.991521 0.261013
H58   H     H_    0.300163 0.795078 0.602902 0.166236
H59   H     H_    0.259602 0.708406 0.609446 0.149172
H60   H     H_    0.206346 0.778873 0.594598 0.150539
H61   H     H_    0.641208 0.813598 0.227111 0.233968
H62   H     H_    0.559252 0.773881 0.230652 0.258140
H63   H     H_    0.209220 0.532369 0.216308 0.249500
H64   H     H_    0.221474 0.603807 0.235464 0.258557
H65   H     H_    0.359034 0.186792 0.227106 0.234001
H66   H     H_    0.441029 0.226436 0.230636 0.258138
H67   H     H_    0.789857 0.468480 0.216220 0.249393
H68   H     H_    0.262747 0.403129 0.023369 0.216444
H69   H     H_    0.777374 0.397142 0.235406 0.258652
H70   H     H_    0.196532 0.372802 0.727526 0.232296
H71   H     H_    0.133164 0.307440 0.731044 0.259409
H72   H     H_    0.733711 0.009497 0.730569 0.257896
H73   H     H_    0.712531 0.098060 0.727157 0.234986
H74   H     H_    0.802822 0.626313 0.727548 0.231942
H75   H     H_    0.866148 0.691730 0.731027 0.259410
H76   H     H_    0.287180 0.902450 0.727119 0.235274
H77   H     H_    0.266023 0.991008 0.730556 0.257887
H78   H     H_    0.196634 0.462020 0.794790 0.132695
H79   H     H_    0.402163 0.322780 0.981372 0.247539
H80   H     H_    0.236010 0.433929 0.764152 0.105079
H81   H     H_    0.243349 0.350772 0.816127 0.198117
H82   H     H_    0.281651 0.321134 0.785630 0.173752
H83   H     H_    0.361267 0.429999 0.784512 0.145938
H84   H     H_    0.374193 0.378933 0.814089 0.145825
H85   H     H_    0.322119 0.461212 0.814834 0.144200
H86   H     H_    0.642290 0.146121 0.796066 0.146815
H87   H     H_    0.673391 0.164113 0.763300 0.103496
H88   H     H_    0.770782 0.129031 0.810364 0.196379
H89   H     H_    0.800864 0.147718 0.777622 0.173440
H90   H     H_    0.350497 0.291241 0.956748 0.231381
H91   H     H_    0.742978 0.271113 0.780370 0.145442
H92   H     H_    0.811417 0.256936 0.804857 0.163304
H93   H     H_    0.717187 0.251670 0.813711 0.143123
H94   H     H_    0.802937 0.537334 0.794864 0.132683
H95   H     H_    0.763455 0.565316 0.764228 0.104883
H96   H     H_    0.756296 0.648669 0.816161 0.198100
H97   H     H_    0.717878 0.678180 0.785665 0.173673
H98   H     H_    0.638273 0.569293 0.784651 0.145860
H99   H     H_    0.625441 0.620500 0.814198 0.145859
H100  H     H_    0.677527 0.538229 0.814976 0.144217
H101  H     H_    0.320588 0.600845 0.977492 0.244061
H102  H     H_    0.357501 0.854161 0.795993 0.146739
H103  H     H_    0.326246 0.836265 0.763240 0.103760
H104  H     H_    0.229077 0.871245 0.810372 0.196409
H105  H     H_    0.198844 0.852636 0.777643 0.173477
H106  H     H_    0.256739 0.729226 0.780330 0.145647
H107  H     H_    0.188391 0.743356 0.804852 0.163217
H108  H     H_    0.282652 0.748586 0.813663 0.143109
H109  H     H_    0.675358 0.889039 0.296618 0.150050
H110  H     H_    0.696502 0.870087 0.262907 0.102174
H111  H     H_    0.690315 0.758497 0.307385 0.198512
H112  H     H_    0.068896 0.407515 0.151785 0.120880
H113  H     H_    0.285578 0.656309 0.954619 0.236147
H114  H     H_    0.708817 0.739008 0.273607 0.174604
H115  H     H_    0.817509 0.821471 0.275582 0.145433
H116  H     H_    0.822857 0.747054 0.298090 0.161088
H117  H     H_    0.799862 0.835887 0.309936 0.142338
H118  H     H_    0.173699 0.676864 0.304836 0.181581
H119  H     H_    0.088875 0.670334 0.288555 0.099720
H120  H     H_    0.233007 0.719340 0.263475 0.181755
H121  H     H_    0.146415 0.715849 0.247301 0.178630
H122  H     H_    0.096704 0.805986 0.278757 0.144419
H123  H     H_    0.175610 0.840319 0.262250 0.155184
H124  H     H_    0.597814 0.677243 0.981403 0.247568
H125  H     H_    0.182946 0.809002 0.295430 0.146309
H126  H     H_    0.324915 0.111379 0.296610 0.150050
H127  H     H_    0.303701 0.130545 0.262920 0.102203
H128  H     H_    0.310255 0.241910 0.307458 0.198502
H129  H     H_    0.291621 0.261577 0.273703 0.174626
H130  H     H_    0.182798 0.179296 0.275704 0.145549
H131  H     H_    0.177693 0.253613 0.298260 0.161301
H132  H     H_    0.200596 0.164684 0.310038 0.142207
H133  H     H_    0.825202 0.323636 0.304740 0.181632
H134  H     H_    0.909948 0.330088 0.288402 0.099687
H135  H     H_    0.649416 0.708733 0.956752 0.231364
H136  H     H_    0.765593 0.281460 0.263396 0.181903
H137  H     H_    0.852111 0.284851 0.247167 0.179063
H138  H     H_    0.901803 0.194482 0.278544 0.144446
H139  H     H_    0.822744 0.160374 0.262074 0.155414
H140  H     H_    0.815642 0.191564 0.295274 0.146287
H141  H     H_    0.150605 0.587761 0.818442 0.136960
H142  H     H_    0.154937 0.522579 0.844161 0.137975
H143  H     H_    0.193881 0.684220 0.848992 0.171186
H144  H     H_    0.197946 0.619042 0.874949 0.212213
H145  H     H_    0.289642 0.547672 0.850805 0.151453
H146  H     H_    0.679378 0.399213 0.977543 0.244238
H147  H     H_    0.318855 0.639922 0.854546 0.149767
H148  H     H_    0.284385 0.609581 0.823535 0.140988
H149  H     H_    0.552265 0.148077 0.835331 0.139362
H150  H     H_    0.514757 0.194668 0.863404 0.170074
H151  H     H_    0.461946 0.209071 0.806635 0.176051
H152  H     H_    0.425727 0.256259 0.834471 0.172922
H153  H     H_    0.546469 0.314645 0.841910 0.150022
H154  H     H_    0.511467 0.333632 0.809812 0.146685
H155  H     H_    0.582187 0.267558 0.813763 0.137591
H156  H     H_    0.849048 0.411885 0.818579 0.136840
H157  H     H_    0.714337 0.343817 0.954642 0.236057
H158  H     H_    0.844819 0.477056 0.844301 0.138060
H159  H     H_    0.805798 0.315433 0.849123 0.171122
H160  H     H_    0.801939 0.380529 0.875107 0.212278
H161  H     H_    0.710171 0.452061 0.851066 0.151528
H162  H     H_    0.680898 0.359817 0.854774 0.149790
H163  H     H_    0.715236 0.390286 0.823758 0.140878
H164  H     H_    0.447535 0.852059 0.835265 0.139383
H165  H     H_    0.484948 0.805466 0.863357 0.169974
H166  H     H_    0.537942 0.791028 0.806612 0.176150
H167  H     H_    0.574032 0.743823 0.834470 0.172904
H168  H     H_    0.073908 0.775158 0.489494 0.263369
H169  H     H_    0.453218 0.685514 0.841853 0.149966
H170  H     H_    0.488353 0.666486 0.809779 0.146747
H171  H     H_    0.417652 0.732603 0.813679 0.137647
H172  H     H_    0.655547 0.978763 0.335729 0.139420
H173  H     H_    0.695177 0.026459 0.363138 0.171097
H174  H     H_    0.694430 0.078049 0.305979 0.175915
H175  H     H_    0.735254 0.124464 0.333135 0.177471
H176  H     H_    0.817774 0.018685 0.340530 0.152148
H177  H     H_    0.826969 0.055119 0.308099 0.147324
H178  H     H_    0.776999 0.972815 0.313045 0.137422
H179  H     H_    0.094464 0.764002 0.521699 0.217629
H180  H     H_    0.964833 0.652127 0.313797 0.140200
H181  H     H_    0.028621 0.650597 0.340338 0.133956
H182  H     H_    0.888825 0.741200 0.339633 0.177486
H183  H     H_    0.957475 0.741053 0.364479 0.191169
H184  H     H_    0.048545 0.784807 0.331601 0.147350
H185  H     H_    0.972607 0.845496 0.334629 0.150453
H186  H     H_    0.978478 0.785865 0.306932 0.141302
H187  H     H_    0.344593 0.021653 0.335764 0.139393
H188  H     H_    0.304835 0.973707 0.363094 0.171144
H189  H     H_    0.305826 0.922678 0.305873 0.175885
H190  H     H_    0.224685 0.073716 0.490417 0.262290
H191  H     H_    0.264887 0.875985 0.332947 0.177539
H192  H     H_    0.182323 0.981663 0.340431 0.152139
H193  H     H_    0.173291 0.945609 0.307941 0.147311
H194  H     H_    0.223232 0.027852 0.313039 0.137411
H195  H     H_    0.033838 0.348121 0.313684 0.140315
H196  H     H_    0.970202 0.349633 0.340274 0.134114
H197  H     H_    0.109796 0.258738 0.339397 0.177263
H198  H     H_    0.041308 0.258901 0.364301 0.191033
H199  H     H_    0.949930 0.215541 0.331460 0.147282
H200  H     H_    0.025735 0.154654 0.334403 0.150416
H201  H     H_    0.236581 0.095405 0.522477 0.220911
H202  H     H_    0.019866 0.214431 0.306744 0.141359
H203  H     H_    0.043876 0.683353 0.928954 0.147782
H204  H     H_    0.967508 0.638628 0.915287 0.113394
H205  H     H_    0.066734 0.746823 0.886408 0.183871
H206  H     H_    0.988176 0.703314 0.872776 0.212639
H207  H     H_    0.909976 0.761330 0.906719 0.153598
H208  H     H_    0.958690 0.827214 0.887723 0.157379
H209  H     H_    0.988639 0.805683 0.920281 0.139387
H210  H     H_    0.362692 0.129472 0.927454 0.174014
H211  H     H_    0.358130 0.045360 0.910614 0.099484
H212  H     H_    0.926090 0.224844 0.489513 0.263190
H213  H     H_    0.330277 0.195205 0.885661 0.184112
H214  H     H_    0.319147 0.108805 0.869985 0.216995
H215  H     H_    0.223583 0.075747 0.902536 0.150413
H216  H     H_    0.201238 0.157028 0.884911 0.158876
H217  H     H_    0.234069 0.163112 0.917938 0.159274
H218  H     H_    0.956115 0.316648 0.929108 0.147681
H219  H     H_    0.032465 0.361282 0.915385 0.113493
H220  H     H_    0.933156 0.252945 0.886619 0.183894
H221  H     H_    0.011687 0.296369 0.872929 0.212558
H222  H     H_    0.089957 0.238531 0.906896 0.153657
H223  H     H_    0.591932 0.069983 0.151627 0.123830
H224  H     H_    0.905525 0.236013 0.521716 0.220864
H225  H     H_    0.041196 0.172549 0.887964 0.157345
H226  H     H_    0.011319 0.194260 0.920514 0.139345
H227  H     H_    0.637251 0.870532 0.927397 0.173965
H228  H     H_    0.641786 0.954651 0.910556 0.099497
H229  H     H_    0.669561 0.804817 0.885594 0.184085
H230  H     H_    0.680665 0.891223 0.869915 0.217035
H231  H     H_    0.776310 0.924251 0.902438 0.150430
H232  H     H_    0.798603 0.842975 0.884805 0.158857
H233  H     H_    0.765848 0.836880 0.917843 0.159213
H234  H     H_    0.526984 0.144786 0.417324 0.114386
H235  H     H_    0.775312 0.926300 0.490410 0.262564
H236  H     H_    0.568706 0.178472 0.387666 0.168980
H237  H     H_    0.648329 0.155733 0.439777 0.213757
H238  H     H_    0.684057 0.196770 0.410712 0.170488
H239  H     H_    0.590884 0.295549 0.414419 0.149889
H240  H     H_    0.647713 0.289706 0.442930 0.186414
H241  H     H_    0.557090 0.254174 0.444028 0.134490
H242  H     H_    0.855522 0.530191 0.418155 0.113095
H243  H     H_    0.822048 0.569877 0.388098 0.167986
H244  H     H_    0.845670 0.653340 0.439323 0.213906
H245  H     H_    0.804679 0.686913 0.409897 0.169271
H246  H     H_    0.763413 0.904673 0.522477 0.217418
H247  H     H_    0.705267 0.594736 0.414680 0.148661
H248  H     H_    0.711317 0.654303 0.442407 0.188258
H249  H     H_    0.746493 0.563765 0.444733 0.136711
H250  H     H_    0.472979 0.855265 0.417252 0.114446
H251  H     H_    0.431155 0.821673 0.387600 0.169084
H252  H     H_    0.351692 0.844404 0.439742 0.213610
H253  H     H_    0.315827 0.803477 0.410681 0.170530
H254  H     H_    0.408873 0.704566 0.414331 0.149996
H255  H     H_    0.352146 0.710428 0.442868 0.186369
H256  H     H_    0.442822 0.745836 0.443933 0.134523
H257  H     H_    0.902271 0.822339 0.481111 0.249831
H258  H     H_    0.144678 0.469500 0.417697 0.112895
H259  H     H_    0.177345 0.428900 0.387681 0.168843
H260  H     H_    0.154113 0.347114 0.439291 0.213460
H261  H     H_    0.193725 0.312031 0.409850 0.169613
H262  H     H_    0.294502 0.402895 0.413795 0.149147
H263  H     H_    0.288467 0.344591 0.441874 0.187843
H264  H     H_    0.254614 0.435701 0.443827 0.136943
H265  H     H_    0.357439 0.894935 0.112754 0.218359
H266  H     H_    0.421699 0.874698 0.090908 0.223108
H267  H     H_    0.103851 0.356367 0.112903 0.218795
H268  H     H_    0.850233 0.791024 0.456559 0.227006
H269  H     H_    0.124900 0.420163 0.091027 0.220784
H270  H     H_    0.642551 0.105205 0.112710 0.218452
H271  H     H_    0.578287 0.125378 0.090857 0.223037
H272  H     H_    0.865292 0.601562 0.105838 0.224165
H273  H     H_    0.937541 0.657286 0.105599 0.229121
H274  H     H_    0.886059 0.375873 0.606248 0.221509
H275  H     H_    0.837229 0.453008 0.605906 0.230869
H276  H     H_    0.598161 0.852251 0.612828 0.218963
H277  H     H_    0.622048 0.915345 0.591069 0.223426
H278  H     H_    0.153062 0.589447 0.613209 0.218268
H279  H     H_    0.821944 0.099015 0.479884 0.249720
H280  H     H_    0.091178 0.617319 0.591568 0.221437
H281  H     H_    0.369521 0.106843 0.605913 0.227082
H282  H     H_    0.443927 0.159675 0.605572 0.227207
H283  H     H_    0.789357 0.151983 0.455803 0.227555
H284  H     H_    0.097758 0.177703 0.481089 0.250033
H285  H     H_    0.149770 0.209045 0.456532 0.226847
H286  H     H_    0.178082 0.900962 0.479830 0.249880
H287  H     H_    0.930553 0.592937 0.151391 0.123064
H288  H     H_    0.210714 0.847951 0.455773 0.227448
H289  H     H_    0.833371 0.086677 0.978558 0.137401
H290  H     H_    0.744096 0.059419 0.985084 0.130517
H291  H     H_    0.856273 0.121184 0.024560 0.190511
H292  H     H_    0.767193 0.094213 0.033660 0.193264
H293  H     H_    0.793510 0.967824 0.018592 0.203082
H294  H     H_    0.855061 0.997737 0.043632 0.143385
H295  H     H_    0.884500 0.995577 0.010125 0.131620
H296  H     H_    0.911854 0.824997 0.971519 0.135646
H297  H     H_    0.938663 0.737350 0.980637 0.121684
H298  H     H_    0.900615 0.440402 0.651623 0.125872
H299  H     H_    0.886354 0.861186 0.017118 0.187595
H300  H     H_    0.912807 0.774046 0.028708 0.191163
H301  H     H_    0.037114 0.792240 0.010301 0.201875
H302  H     H_    0.012550 0.861295 0.033496 0.140902
H303  H     H_    0.010443 0.881096 0.999079 0.132594
H304  H     H_    0.166505 0.913343 0.978678 0.137376
H305  H     H_    0.255801 0.940615 0.985156 0.130596
H306  H     H_    0.143828 0.878676 0.024676 0.190322
H307  H     H_    0.232945 0.905601 0.033737 0.193261
H308  H     H_    0.206572 0.032059 0.018747 0.203015
H309  H     H_    0.564932 0.904446 0.651650 0.128729
H310  H     H_    0.145133 0.002045 0.043808 0.143254
H311  H     H_    0.115542 0.004348 0.010319 0.131697
H312  H     H_    0.088183 0.174868 0.971624 0.135495
H313  H     H_    0.061342 0.262528 0.980708 0.122118
H314  H     H_    0.113810 0.138794 0.017214 0.187326
H315  H     H_    0.087497 0.225986 0.028791 0.193038
H316  H     H_    0.963072 0.207851 0.010474 0.202070
H317  H     H_    0.987684 0.138828 0.033677 0.142477
H318  H     H_    0.989611 0.118950 0.999266 0.131971
H319  H     H_    0.310095 0.266033 0.048059 0.125358
H320  H     H_    0.098872 0.559358 0.651996 0.123521
H321  H     H_    0.327743 0.171990 0.055801 0.155063
H322  H     H_    0.182280 0.251741 0.061737 0.172103
H323  H     H_    0.198101 0.157923 0.069222 0.172639
H324  H     H_    0.289863 0.193970 0.102795 0.165862
H325  H     H_    0.202615 0.233909 0.109144 0.150984
H326  H     H_    0.273679 0.288135 0.095188 0.150149
H327  H     H_    0.271691 0.680569 0.047294 0.125790
H328  H     H_    0.178141 0.661413 0.055584 0.149308
H329  H     H_    0.258701 0.804949 0.064498 0.169038
H330  H     H_    0.165284 0.787960 0.072452 0.172608
H331  H     H_    0.434997 0.095920 0.651315 0.130791
H332  H     H_    0.203426 0.689829 0.103195 0.164051
H333  H     H_    0.244409 0.775210 0.111390 0.152248
H334  H     H_    0.297225 0.706897 0.095096 0.151156
H335  H     H_    0.689135 0.734297 0.047933 0.125671
H336  H     H_    0.673599 0.828467 0.056029 0.155688
H337  H     H_    0.817638 0.745718 0.061141 0.172672
H338  H     H_    0.803825 0.839562 0.069076 0.171010
H339  H     H_    0.712438 0.804185 0.102857 0.165655
H340  H     H_    0.799031 0.762218 0.108677 0.148747
H341  H     H_    0.726428 0.709984 0.094768 0.152018
H342  H     H_    0.574593 0.275114 0.987900 0.264592
H343  H     H_    0.728363 0.319415 0.047258 0.125904
H344  H     H_    0.821918 0.338203 0.055644 0.154036
H345  H     H_    0.740857 0.194833 0.064331 0.168566
H346  H     H_    0.834253 0.211494 0.072406 0.175005
H347  H     H_    0.796109 0.309482 0.103208 0.168621
H348  H     H_    0.754844 0.224136 0.111270 0.152297
H349  H     H_    0.702335 0.292714 0.094990 0.150849
H350  H     H_    0.328332 0.587125 0.474134 0.132609
H351  H     H_    0.239418 0.560805 0.481814 0.125275
H352  H     H_    0.358524 0.613195 0.520331 0.187010
N1    N     N_R   0.500026 0.000128 0.182316 -0.412079
N2    N     N_3   0.712275 0.611404 0.005849 -0.671158
N3    N     N_3   0.389794 0.711566 0.002904 -0.670704
N4    N     N_3   0.287731 0.388629 0.005851 -0.671678
N5    N     N_3   0.373876 0.277689 0.974639 -0.617939
N6    N     N_3   0.274517 0.630058 0.972202 -0.611116
N7    N     N_3   0.626091 0.722319 0.974648 -0.617941
N8    N     N_3   0.725436 0.370014 0.972231 -0.611110
N9    N     N_3   0.110679 0.788040 0.504214 -0.669975
N10   N     N_3   0.212014 0.110951 0.504999 -0.669658
N11   N     N_3   0.889314 0.211969 0.504233 -0.669728
N12   N     N_R   0.999589 0.500263 0.182391 -0.405151
N13   N     N_3   0.787988 0.889098 0.505005 -0.670392
N14   N     N_3   0.873737 0.777359 0.474418 -0.624994
N15   N     N_3   0.776517 0.127714 0.473600 -0.624341
N16   N     N_3   0.126282 0.222690 0.474395 -0.624850
N17   N     N_3   0.223521 0.872252 0.473566 -0.624289
N18   N     N_3   0.586007 0.819292 0.223376 -0.540957
N19   N     N_3   0.183945 0.579104 0.223211 -0.557717
N20   N     N_3   0.414227 0.181046 0.223367 -0.540937
N21   N     N_3   0.815004 0.421710 0.223156 -0.557449
N22   N     N_3   0.142743 0.359296 0.723797 -0.540454
N23   N     N_R   0.999756 0.499676 0.682680 -0.411002
N24   N     N_3   0.695060 0.045533 0.723356 -0.540159
N25   N     N_3   0.856592 0.639854 0.723799 -0.540882
N26   N     N_3   0.304666 0.954981 0.723333 -0.540008
N27   N     N_3   0.394476 0.917690 0.099743 -0.602270
N28   N     N_3   0.081516 0.393575 0.099859 -0.602211
N29   N     N_3   0.605515 0.082412 0.099709 -0.602193
N30   N     N_3   0.919146 0.606336 0.099907 -0.612060
N31   N     N_3   0.886295 0.429788 0.600233 -0.608708
N32   N     N_3   0.577507 0.890445 0.599795 -0.601685
N33   N     N_3   0.113667 0.571313 0.600152 -0.599352
N34   N     N_R   0.499900 0.000195 0.682302 -0.411006
N35   N     N_3   0.423468 0.109486 0.599915 -0.610222
N36   N     N_R   0.999838 0.499728 0.818850 -0.377396
N37   N     N_R   0.499864 0.000089 0.818305 -0.369618
N38   N     N_R   0.500085 0.000145 0.318404 -0.370903
N39   N     N_R   0.999492 0.500130 0.318422 -0.390000
N40   N     N_3   0.610213 0.288425 0.002934 -0.670517
O1    O     O_3   0.000000 0.500000 0.000300 -0.447783
O2    O     O_R   0.060090 0.500000 0.558350 -0.519056
O3    O     O_3   0.075640 0.392856 0.347054 -0.524261
O4    O     O_3   0.071607 0.610049 0.900823 -0.544419
O5    O     O_3   0.441953 0.118559 0.899932 -0.535095
O6    O     O_3   0.928341 0.389802 0.900927 -0.544425
O7    O     O_3   0.557928 0.881468 0.899898 -0.535070
O8    O     O_3   0.605452 0.078331 0.400426 -0.538007
O9    O     O_3   0.922774 0.606397 0.400493 -0.526016
O10   O     O_3   0.394537 0.921826 0.400384 -0.538132
O11   O     O_3   0.076567 0.393424 0.400390 -0.526141
O12   O     O_R   0.500000 0.060090 0.558350 -0.518124
O13   O     O_R   0.939910 0.500000 0.558350 -0.516444
O14   O     O_R   0.939640 0.500000 0.942260 -0.518739
O15   O     O_R   0.500000 0.939640 0.942260 -0.507778
O16   O     O_R   0.060360 0.500000 0.942260 -0.518475
O17   O     O_R   0.500000 0.060360 0.942260 -0.507766
O18   O     O_R   0.439640 0.000000 0.442260 -0.507106
O19   O     O_R   0.000000 0.439640 0.442260 -0.506387
O20   O     O_R   0.560360 0.000000 0.442260 -0.506775
O21   O     O_3   0.500000 0.000000 0.000300 -0.446455
O22   O     O_R   0.000000 0.560360 0.442260 -0.506166
O23   O     O_R   0.915140 0.644610 0.015520 -0.560567
O24   O     O_R   0.355390 0.915140 0.015520 -0.564455
O25   O     O_R   0.084860 0.355390 0.015520 -0.563279
O26   O     O_R   0.644610 0.084860 0.015520 -0.564450
O27   O     O_R   0.084860 0.644610 0.015520 -0.547733
O28   O     O_R   0.644610 0.915140 0.015520 -0.546425
O29   O     O_R   0.915140 0.355390 0.015520 -0.544988
O30   O     O_R   0.355390 0.084860 0.015520 -0.546423
O31   O     O_R   0.415140 0.144610 0.515520 -0.561109
O32   O     O_3   0.500000 0.000000 0.500300 -0.446615
O33   O     O_R   0.855390 0.415140 0.515520 -0.561554
O34   O     O_R   0.584860 0.855390 0.515520 -0.564203
O35   O     O_R   0.144610 0.584860 0.515520 -0.565080
O36   O     O_R   0.584860 0.144610 0.515520 -0.546246
O37   O     O_R   0.144610 0.415140 0.515520 -0.543856
O38   O     O_R   0.415140 0.855390 0.515520 -0.543315
O39   O     O_R   0.855390 0.584860 0.515520 -0.546889
O40   O     O_R   0.144340 0.415480 0.985090 -0.562449
O41   O     O_R   0.584520 0.144340 0.985090 -0.556025
O42   O     O_R   0.855660 0.584520 0.985090 -0.562280
O43   O     O_3   1.000000 0.500000 0.500300 -0.446654
O44   O     O_R   0.415480 0.855660 0.985090 -0.556016
O45   O     O_R   0.855660 0.415480 0.985090 -0.521146
O46   O     O_R   0.415480 0.144340 0.985090 -0.531229
O47   O     O_R   0.144340 0.584520 0.985090 -0.521379
O48   O     O_R   0.584520 0.855660 0.985090 -0.531181
O49   O     O_R   0.644340 0.915480 0.485090 -0.559090
O50   O     O_R   0.084520 0.644340 0.485090 -0.558316
O51   O     O_R   0.355660 0.084520 0.485090 -0.559047
O52   O     O_R   0.915480 0.355660 0.485090 -0.558390
O53   O     O_R   0.355660 0.915480 0.485090 -0.533970
O54   O     O_R   0.000000 0.439910 0.058350 -0.519321
O55   O     O_R   0.915480 0.644340 0.485090 -0.533745
O56   O     O_R   0.644340 0.084520 0.485090 -0.534130
O57   O     O_R   0.084520 0.355660 0.485090 -0.533654
O58   O     O_2   0.445065 0.113610 0.181230 -0.456923
O59   O     O_2   0.887443 0.442879 0.181221 -0.468613
O60   O     O_2   0.554989 0.886646 0.181236 -0.456907
O61   O     O_2   0.111707 0.557708 0.181256 -0.471917
O62   O     O_2   0.908826 0.587194 0.681653 -0.459599
O63   O     O_2   0.377687 0.968637 0.681250 -0.457312
O64   O     O_2   0.090662 0.412136 0.681650 -0.455442
O65   O     O_R   0.560090 0.000000 0.058350 -0.519563
O66   O     O_2   0.622093 0.031840 0.681269 -0.460288
O67   O     O_2   0.084228 0.405710 0.819695 -0.467529
O68   O     O_2   0.624390 0.021659 0.819190 -0.463495
O69   O     O_2   0.915434 0.593733 0.819688 -0.467564
O70   O     O_2   0.375337 0.978529 0.819184 -0.463506
O71   O     O_2   0.548537 0.883511 0.319249 -0.457300
O72   O     O_2   0.118808 0.541551 0.319221 -0.459045
O73   O     O_2   0.451667 0.116791 0.319248 -0.457362
O74   O     O_2   0.880162 0.458747 0.319204 -0.458897
O75   O     O_3   0.767645 0.170870 0.987970 -0.577520
O76   O     O_R   1.000000 0.560090 0.058350 -0.518992
O77   O     O_3   0.828162 0.764744 0.985319 -0.581273
O78   O     O_3   0.232321 0.829146 0.988009 -0.577515
O79   O     O_3   0.171875 0.235242 0.985353 -0.581214
O80   O     O_3   0.259208 0.189225 0.024337 -0.573750
O81   O     O_3   0.192932 0.735967 0.025815 -0.573462
O82   O     O_3   0.740916 0.810829 0.024284 -0.573674
O83   O     O_3   0.807118 0.263945 0.025791 -0.573784
O84   O     O_3   0.266470 0.671036 0.486754 -0.586303
O85   O     O_3   0.328505 0.265663 0.486260 -0.587066
O86   O     O_3   0.733538 0.328977 0.486748 -0.586390
O87   O     O_R   0.439910 0.000000 0.058350 -0.519610
O88   O     O_3   0.671534 0.734313 0.486321 -0.587059
O89   O     O_3   0.759864 0.689676 0.524539 -0.570728
O90   O     O_3   0.690166 0.239390 0.524674 -0.570227
O91   O     O_3   0.240255 0.310365 0.524486 -0.571053
O92   O     O_3   0.309764 0.760667 0.524696 -0.570689
O93   O     O_3   0.149959 0.371008 0.777485 -0.527188
O94   O     O_3   0.688866 0.058418 0.776947 -0.527894
O95   O     O_3   0.849548 0.628286 0.777492 -0.527187
O96   O     O_3   0.310851 0.941924 0.776923 -0.527924
O97   O     O_3   0.598084 0.828462 0.276947 -0.525605
O98   O     O_R   0.500000 0.939910 0.558350 -0.519528
O99   O     O_3   0.171945 0.596522 0.277396 -0.532617
O100  O     O_3   0.402230 0.171928 0.276943 -0.525655
O101  O     O_3   0.826942 0.404095 0.277340 -0.532605
O102  O     O_3   0.075459 0.606280 0.847059 -0.535708
O103  O     O_3   0.447306 0.118826 0.846085 -0.538007
O104  O     O_3   0.924287 0.393333 0.847164 -0.535671
O105  O     O_3   0.552465 0.881288 0.846054 -0.537999
O106  O     O_3   0.605739 0.075914 0.346330 -0.527872
O107  O     O_3   0.923310 0.607121 0.347167 -0.523722
O108  O     O_3   0.394335 0.924385 0.346285 -0.527910
Zn1   Zn    Zn3+2 0.913860 0.500000 0.978560 0.937643
Zn2   Zn    Zn3+2 0.414170 0.000000 0.022050 0.916089
Zn3   Zn    Zn3+2 1.000000 0.414170 0.022050 0.919777
Zn4   Zn    Zn3+2 0.585830 0.000000 0.022050 0.916147
Zn5   Zn    Zn3+2 0.500000 0.085830 0.522050 0.918183
Zn6   Zn    Zn3+2 0.914170 0.500000 0.522050 0.918251
Zn7   Zn    Zn3+2 0.500000 0.914170 0.522050 0.919521
Zn8   Zn    Zn3+2 0.085830 0.500000 0.522050 0.919068
Zn9   Zn    Zn3+2 0.500000 0.913860 0.978560 0.934514
Zn10  Zn    Zn3+2 0.086140 0.500000 0.978560 0.934857
Zn11  Zn    Zn3+2 0.500000 0.086140 0.978560 0.934476
Zn12  Zn    Zn3+2 0.413860 0.000000 0.478560 0.936079
Zn13  Zn    Zn3+2 1.000000 0.413860 0.478560 0.936509
Zn14  Zn    Zn3+2 0.586140 0.000000 0.478560 0.933407
Zn15  Zn    Zn3+2 1.000000 0.586140 0.478560 0.933930
Zn16  Zn    Zn3+2 0.000000 0.585830 0.022050 0.917945

loop_
_geom_bond_atom_site_label_1
_geom_bond_atom_site_label_2
_ccdc_geom_bond_type
H73   N24   S    
C50   C63   A    
O32   Zn14  S    
C216  O3    S    
C8    C26   D    
C280  O53   A    
C91   H337  S    
H113  N6    S    
O76   Zn16  S    
C165  H178  S    
C199  H259  S    
C114  C115  S    
C184  H220  S    
C103  H16   S    
C227  C253  S    
C268  O41   A    
C95   H349  S    
C211  C220  A    
C202  H263  S    
C145  H130  S    
C215  C258  S    
C35   C124  A    
C275  O33   A    
C212  C232  A    
C61   N18   S    
C73   H296  S    
C106  C107  S    
C25   O79   S    
C1    O76   A    
C143  C144  S    
C59   C124  A    
C215  O2    A    
C196  H250  S    
C209  C231  A    
C2    C90   A    
C110  C111  S    
C100  H10   S    
H265  N27   S    
C121  H56   S    
C156  O104  S    
C142  H123  S    
C234  C261  A    
C131  H97   S    
C222  C229  A    
C161  H166  S    
C270  O97   S    
C3    O39   A    
C112  O65   A    
C73   H297  S    
C147  O101  S    
C271  O28   A    
C279  O37   A    
C47   C53   A    
C159  H161  S    
C274  O51   A    
C40   N12   A    
C214  C232  A    
C236  C261  A    
C144  H128  S    
C30   O84   S    
C89   H335  S    
C216  C233  A    
C84   H322  S    
C213  C233  A    
C115  H40   S    
C14   C19   S    
C162  H169  S    
C104  C105  S    
C25   C267  S    
H281  N35   S    
C81   H314  S    
C192  H241  S    
C94   H346  S    
C103  O86   S    
C252  O14   A    
C143  O100  S    
C191  C192  S    
C15   C32   D    
C140  C141  S    
C132  H100  S    
C74   C75   S    
C75   H302  S    
C23   O78   S    
C78   H311  S    
C196  C197  S    
H273  N30   S    
C3    C34   S    
O1    Zn1   S    
C181  C182  S    
C158  H160  S    
C5    N2    S    
C206  N38   A    
C172  H193  S    
C155  H153  S    
C220  C227  A    
C71   H291  S    
C185  H222  S    
C224  O11   S    
C246  N30   S    
C183  C184  S    
C122  H58   S    
C200  H260  S    
C251  C260  A    
C90   C205  A    
C266  O24   A    
C213  C222  A    
C72   H293  S    
C92   H339  S    
C13   C63   A    
C95   H348  S    
C234  H1    S    
C120  H54   S    
C12   C20   S    
C110  H32   S    
C105  H21   S    
C76   C77   S    
H257  N14   S    
C154  C155  S    
C148  H137  S    
C77   H307  S    
C201  O70   S    
H157  N8    S    
C235  C262  A    
C70   H290  S    
C158  C159  S    
C215  O13   A    
C17   C34   D    
C242  C251  A    
H24   N2    S    
C10   N7    S    
C61   C270  A    
H275  N31   S    
C208  C217  A    
O37   Zn8   S    
O19   Zn13  S    
C175  H199  S    
C49   C62   A    
O98   Zn7   S    
C145  H132  S    
C46   C179  A    
O29   Zn3   S    
C51   C64   A    
O15   Zn9   S    
C180  H211  S    
C144  C145  S    
C155  H154  S    
H2    N40   S    
C149  H139  S    
C33   C276  S    
C213  O107  S    
C186  H228  S    
C45   C52   A    
H277  N32   S    
C171  H191  S    
C97   H352  S    
C156  C158  S    
C130  C131  S    
C280  O38   A    
C155  H155  S    
C224  C229  A    
C65   N22   S    
C44   C55   A    
C4    N40   S    
C143  H127  S    
H269  N28   S    
H35   N3    S    
C274  O31   A    
C112  C256  S    
C119  H52   S    
C275  O52   A    
C193  H243  S    
C167  H182  S    
O26   Zn4   S    
C108  H28   S    
C104  H18   S    
C193  C194  S    
C241  C263  A    
C242  C264  A    
C89   O82   S    
C31   O85   S    
C205  O72   S    
C114  H39   S    
C113  C157  A    
C186  C187  S    
C31   C274  S    
C153  H150  S    
C52   C65   A    
C207  O74   S    
C102  H11   S    
C181  H214  S    
C112  O87   A    
C240  C249  A    
C252  O16   A    
H72   N24   S    
C96   H351  S    
C43   N23   A    
C147  C148  S    
C48   C56   A    
C14   C31   D    
C128  C129  S    
C6    C9    S    
C97   C98   S    
C115  H41   S    
C7    C8    S    
C167  C169  S    
C166  H180  S    
C99   H8    S    
O1    Zn3   S    
C187  H230  S    
C220  O7    S    
H276  N32   S    
O50   Zn15  S    
C80   O79   S    
C129  H92   S    
C13   O100  S    
C190  N36   A    
O16   Zn10  S    
H101  N6    S    
C92   H341  S    
C66   N24   S    
C170  C171  S    
C3    O55   A    
C115  C116  S    
C147  H133  S    
C211  O105  S    
C208  O102  S    
C184  C185  S    
C76   H304  S    
C189  C191  S    
C174  C175  S    
C129  H91   S    
C126  H85   S    
O2    Zn8   S    
C188  H231  S    
O54   Zn3   S    
C107  C108  S    
C266  O44   A    
C89   C91   S    
C42   O61   S    
C19   C37   D    
C219  O6    S    
C189  H236  S    
C87   H330  S    
C130  H94   S    
C192  H239  S    
C212  O106  S    
C178  H207  S    
C152  H145  S    
C239  C263  A    
C94   C95   S    
C28   O82   S    
C240  C264  A    
C27   O81   S    
C80   H312  S    
C53   C60   A    
C111  H37   S    
C79   C146  A    
C54   C59   A    
C107  H26   S    
O23   Zn16  S    
C173  H195  S    
C12   N9    S    
C170  O108  S    
C171  H189  S    
C243  N27   S    
C237  O94   S    
C198  H256  S    
C93   O83   S    
C91   C92   S    
H272  N30   S    
O38   Zn7   S    
C241  H320  S    
C19   N16   S    
C82   H318  S    
H61   N18   S    
C50   C56   A    
C210  C219  A    
O56   Zn14  S    
C20   N17   S    
C24   O101  S    
C279  O57   A    
O65   Zn4   S    
C9    N6    S    
C278  O56   A    
O57   Zn13  S    
C83   C84   S    
C174  H198  S    
C151  C152  S    
C195  H247  S    
C169  H184  S    
C263  N23   S    
C35   C168  A    
C29   O83   S    
C194  H244  S    
C44   O63   S    
H274  N31   S    
C175  H202  S    
C36   C278  S    
C55   C69   A    
C86   H328  S    
C154  H151  S    
C150  O102  S    
C189  H234  S    
C200  C202  S    
C27   C269  S    
C93   H343  S    
O40   Zn10  S    
C177  H205  S    
O55   Zn15  S    
C249  C260  A    
O20   Zn14  S    
C151  H144  S    
C35   C226  A    
H342  N40   S    
C277  O50   A    
C127  H86   S    
O21   Zn2   S    
C148  H136  S    
C144  H129  S    
H279  N15   S    
C185  H226  S    
C189  O8    S    
H46   N3    S    
C68   C135  A    
C170  H187  S    
H179  N9    S    
C193  O9    S    
H212  N11   S    
C58   C157  A    
C188  H233  S    
C26   C273  S    
C88   H334  S    
C175  H200  S    
C269  O47   A    
C103  H15   S    
C183  H218  S    
C137  O97   S    
O43   Zn8   S    
C40   C51   A    
C82   H316  S    
C39   N1    A    
C141  H121  S    
C190  O69   S    
C44   N34   A    
O21   Zn4   S    
C90   C157  A    
C106  H22   S    
C180  H210  S    
C71   C72   S    
C40   O59   S    
C246  C257  A    
C129  H93   S    
C117  C118  S    
O21   Zn9   S    
C126  H83   S    
C236  H223  S    
C278  O36   A    
C111  H36   S    
C21   O75   S    
C47   O66   S    
C205  N39   A    
C86   O81   S    
C152  H148  S    
C276  O34   A    
O46   Zn11  S    
C2    O99   S    
C34   O89   S    
H267  N28   S    
C197  C198  S    
C250  N33   S    
C123  O93   S    
C118  H49   S    
C101  C206  A    
C200  H261  S    
H57   N4    S    
O13   Zn6   S    
H70   N22   S    
C191  H238  S    
O43   Zn15  S    
C160  O105  S    
O39   Zn6   S    
C117  H45   S    
C141  H120  S    
C1    O54   A    
C117  O91   S    
C152  H147  S    
C74   H299  S    
C116  H43   S    
C2    C62   A    
O31   Zn5   S    
C232  N38   S    
C167  H183  S    
C20   C38   D    
H280  N33   S    
H64   N19   S    
C136  H108  S    
C176  O4    S    
C140  O99   S    
C15   C18   S    
C73   C74   S    
C72   H295  S    
C198  H254  S    
C249  N32   S    
C7    N4    S    
C130  H95   S    
H65   N20   S    
C169  H185  S    
C162  H170  S    
C161  C162  S    
C173  O3    S    
C134  H104  S    
C102  H14   S    
C77   C78   S    
C120  C121  S    
C85   H326  S    
O34   Zn7   S    
C119  H50   S    
C211  C231  A    
C134  H105  S    
C265  O23   A    
C113  C207  A    
C96   H350  S    
C164  C165  S    
C177  H206  S    
C238  H287  S    
O1    Zn10  S    
C97   H3    S    
C98   H4    S    
C123  C125  S    
H286  N17   S    
C125  H81   S    
C169  H186  S    
C114  O90   S    
C172  H194  S    
C33   O88   S    
C239  C247  A    
O51   Zn12  S    
C46   C237  A    
C41   N1    A    
C176  H203  S    
C122  H59   S    
H190  N10   S    
C21   C268  S    
C229  C255  S    
C46   C135  A    
C267  O25   A    
C85   H325  S    
C92   H340  S    
C38   O92   S    
C95   H347  S    
C16   C17   S    
C109  H30   S    
C67   N25   S    
C178  H209  S    
C139  H116  S    
C110  H33   S    
C70   C71   S    
H74   N25   S    
C273  O30   A    
C272  O29   A    
H270  N29   S    
C98   H5    S    
C69   C259  A    
C22   O77   S    
C77   H306  S    
C210  O104  S    
C194  C195  S    
C242  H331  S    
C255  O19   A    
C24   C64   A    
C55   C60   A    
C137  H110  S    
C136  H106  S    
C116  H42   S    
C156  H156  S    
C91   H338  S    
C6    N3    S    
C57   C248  A    
H79   N5    S    
C16   N13   S    
C133  O96   S    
C81   H315  S    
C85   H324  S    
O14   Zn1   S    
C1    C257  S    
C143  H126  S    
O43   Zn6   S    
C207  N39   A    
C83   H321  S    
O1    Zn16  S    
C202  H262  S    
C145  H131  S    
C201  N37   A    
C84   C85   S    
H76   N26   S    
O22   Zn15  S    
O21   Zn11  S    
C160  H164  S    
H62   N18   S    
C86   C87   S    
C111  H34   S    
C149  H138  S    
C70   H289  S    
C276  O49   A    
C196  O10   S    
C107  H25   S    
C243  C256  A    
C221  O8    S    
C32   O86   S    
H67   N21   S    
C73   O77   S    
C100  H9    S    
O32   Zn5   S    
C142  H122  S    
C117  H47   S    
C140  H119  S    
H146  N8    S    
H168  N9    S    
C161  H167  S    
C238  C246  A    
C210  C230  A    
C18   N15   S    
C51   C58   A    
O12   Zn5   S    
C75   H303  S    
C4    C11   S    
C121  C122  S    
C37   C279  S    
O47   Zn10  S    
C193  H242  S    
C159  H162  S    
C38   C280  S    
H246  N13   S    
C240  H309  S    
C225  C252  S    
H68   N4    S    
C89   H336  S    
C247  N31   S    
C133  C134  S    
H288  N17   S    
C238  C262  A    
C127  C128  S    
C153  H149  S    
C218  C227  A    
C247  C258  A    
C180  C181  S    
C9    C27   D    
C102  H12   S    
C10   C28   D    
H278  N33   S    
C83   O80   S    
C138  H114  S    
C12   C30   D    
C68   C201  A    
C236  C245  A    
C179  N37   A    
C241  C250  A    
C132  H99   S    
C80   H313  S    
C137  H109  S    
C195  H249  S    
C68   C259  A    
O27   Zn16  S    
C78   H310  S    
C127  H87   S    
C125  H82   S    
C166  H181  S    
C99   H7    S    
C180  O5    S    
C187  H229  S    
H224  N11   S    
C158  H159  S    
C271  O48   A    
C7    C25   D    
C164  H175  S    
C214  O108  S    
C71   H292  S    
C197  H253  S    
C202  H264  S    
C11   N8    S    
C187  C188  S    
C32   C275  S    
C172  H192  S    
C109  C110  S    
O41   Zn11  S    
C57   C124  A    
C204  C260  S    
C22   C265  S    
C133  H103  S    
C183  H219  S    
O44   Zn9   S    
C116  H44   S    
C120  H53   S    
C203  N38   A    
C65   C226  A    
C56   C146  A    
C75   H301  S    
C153  O103  S    
C235  C244  A    
C138  C139  S    
O25   Zn3   S    
C239  H298  S    
C26   O80   S    
C188  H232  S    
C15   N11   S    
C87   C88   S    
C262  N12   S    
C177  C178  S    
C165  H176  S    
C103  C104  S    
C197  H252  S    
C156  H158  S    
C199  H258  S    
C18   C36   D    
C123  H80   S    
C87   H329  S    
C83   H319  S    
C171  C172  S    
C192  H240  S    
C178  H208  S    
C93   C94   S    
C186  O7    S    
C127  O94   S    
C39   O58   S    
C163  C164  S    
C268  O26   A    
C168  O67   S    
C216  C224  A    
C81   C82   S    
C259  O96   S    
C248  O95   S    
H69   N21   S    
C194  H245  S    
C173  C174  S    
C277  O35   A    
C254  O20   A    
C128  H89   S    
C221  C228  A    
C109  O89   S    
C186  H227  S    
C196  H251  S    
C206  O73   S    
C209  C218  A    
C72   H294  S    
O42   Zn1   S    
C254  O18   A    
O32   Zn7   S    
C223  O10   S    
O49   Zn14  S    
C231  N37   S    
C131  H96   S    
C195  H248  S    
C182  H217  S    
C119  H51   S    
C138  H111  S    
C76   O78   S    
H266  N27   S    
O17   Zn11  S    
C181  H213  S    
C179  O68   S    
C255  O22   A    
O43   Zn13  S    
C118  C119  S    
C96   O84   S    
C245  N29   S    
C43   C54   A    
C183  O6    S    
C76   H305  S    
H283  N15   S    
C226  O93   S    
C168  N36   A    
C5    C22   D    
C108  H27   S    
H63   N19   S    
C104  H17   S    
H201  N10   S    
H66   N20   S    
C166  O107  S    
C235  H112  S    
C114  H38   S    
C84   H323  S    
C62   N19   S    
C99   O85   S    
H135  N7    S    
C234  C243  A    
C118  H48   S    
C130  O95   S    
C136  H107  S    
C222  O9    S    
O53   Zn12  S    
C24   C113  A    
C230  N36   S    
C251  N35   S    
O28   Zn4   S    
C69   N26   S    
C139  H117  S    
C109  H31   S    
H285  N16   S    
C204  O98   A    
O30   Zn2   S    
C151  H143  S    
C78   H308  S    
C209  O103  S    
C233  N39   S    
C199  O11   S    
C212  C221  A    
O48   Zn9   S    
C245  C256  A    
O45   Zn1   S    
C101  C146  A    
C79   C270  A    
C265  O42   A    
C182  H216  S    
H13   N2    S    
C43   O62   S    
C170  H188  S    
C148  C149  S    
C163  H173  S    
H71   N22   S    
C214  C223  A    
C204  O12   A    
O87   Zn2   S    
C121  H55   S    
C223  C228  A    
C134  C136  S    
C54   C67   A    
C42   C49   A    
O33   Zn6   S    
C37   O91   S    
C147  H134  S    
C49   C58   A    
H235  N13   S    
C133  H102  S    
C106  H23   S    
C269  O27   A    
C52   C59   A    
C16   C33   D    
C128  H88   S    
C126  H84   S    
O52   Zn13  S    
C217  O4    S    
C36   O90   S    
C99   C100  S    
H282  N35   S    
C96   C97   S    
C100  C102  S    
C219  C225  A    
C149  H140  S    
C53   C66   A    
C60   C135  A    
C94   H345  S    
C88   H332  S    
C123  H78   S    
O32   Zn12  S    
C185  H225  S    
C228  C254  S    
C191  H237  S    
C142  H125  S    
C176  C177  S    
C140  H118  S    
C244  C257  A    
C79   C203  A    
C66   C237  A    
C88   H333  S    
C166  C167  S    
H284  N16   S    
C74   H300  S    
C63   N20   S    
C13   C101  A    
C150  H142  S    
C105  H20   S    
C261  N1    S    
O35   Zn8   S    
C41   O60   S    
H124  N7    S    
C45   N23   A    
C14   N10   S    
C159  H163  S    
C244  N28   S    
C173  H196  S    
C165  H177  S    
C267  O40   A    
C273  O46   A    
C30   C277  S    
C150  C151  S    
C29   C272  S    
C198  H255  S    
C120  O92   S    
C57   C190  A    
C80   C81   S    
H268  N14   S    
C162  H171  S    
C160  H165  S    
C47   N34   A    
C154  H152  S    
C82   H317  S    
C264  N34   S    
C137  C138  S    
H271  N29   S    
C23   C266  S    
O24   Zn2   S    
C160  C161  S    
C45   O64   S    
C67   C248  A    
H75   N25   S    
C132  H98   S    
C5    C10   S    
C163  O106  S    
C141  C142  S    
C203  O71   S    
C4    C21   D    
C150  H141  S    
C48   C61   A    
C125  C126  S    
C174  H197  S    
C108  H29   S    
C6    C23   D    
C163  H172  S    
C41   C48   A    
C164  H174  S    
C199  C200  S    
C70   O75   S    
C182  H215  S    
C218  O5    S    
C253  O17   A    
C131  C132  S    
C176  H204  S    
C122  H60   S    
H77   N26   S    
C86   H327  S    
C93   H344  S    
C253  O15   A    
O18   Zn12  S    
C8    N5    S    
C39   C50   A    
C11   C29   D    
C272  O45   A    
C217  C225  A    
C17   N14   S    
C28   C271  S    
H90   N5    S    
C139  H115  S    
C64   N21   S    
C42   N12   A    
C105  H19   S    
C184  H221  S    
C106  O88   S    
C153  C154  S    
C250  C258  A    
O36   Zn5   S    
C98   H6    S    
C208  C230  A    
