data_mof_unit_45427.cif
_audit_creation_date              2012-12-10T17:48:58-0500
_audit_creation_method            fapswitch 2.2
_symmetry_space_group_name_H-M    P1
_symmetry_Int_Tables_number       1
_space_group_crystal_system       triclinic
_cell_length_a                    10.738836
_cell_length_b                    14.690747
_cell_length_c                    14.852793
_cell_angle_alpha                 64.066553
_cell_angle_beta                  104.221661
_cell_angle_gamma                 102.907222
_cell_volume                      2024.51923779

loop_
_atom_site_label
_atom_site_type_symbol
_atom_type_description
_atom_site_fract_x
_atom_site_fract_y
_atom_site_fract_z
_atom_type_partial_charge
C1    C     C_R   0.481312 0.120249 0.312294 0.880482
C2    C     C_3   0.878067 0.999465 0.501284 0.019596
C3    C     C_3   0.916802 0.891339 0.571979 -0.462703
C4    C     C_3   0.965699 0.077247 0.542835 -0.414958
C5    C     C_R   0.489796 0.187734 0.205640 -0.052614
C6    C     C_R   0.555415 0.808682 0.795575 -0.093149
C7    C     C_R   0.490717 0.212571 0.033446 -0.181267
C8    C     C_R   0.472723 0.147838 0.132521 -0.168569
C9    C     C_R   0.527496 0.292488 0.178857 -0.128452
C10   C     C_R   0.556707 0.357478 0.082264 0.113466
C11   C     C_R   0.529622 0.317365 0.007246 0.161108
C12   C     C_R   0.260936 0.998255 0.503165 0.848765
C13   C     C_R   0.600112 0.463271 0.055467 -0.019078
C14   C     C_R   0.578543 0.529446 0.951153 0.044360
C15   C     C_R   0.559685 0.487839 0.878416 -0.145353
C16   C     C_R   0.538750 0.382923 0.906651 -0.226894
C17   C     C_R   0.667216 0.506126 0.126398 0.249511
C18   C     C_R   0.692041 0.612006 0.094762 -0.229060
C19   C     C_R   0.648552 0.676958 0.994913 0.061601
C20   C     C_R   0.585371 0.635784 0.922855 0.087277
C21   C     C_R   0.669242 0.782791 0.966012 -0.177785
C22   C     C_R   0.626973 0.848076 0.866425 -0.224946
C23   C     C_R   0.523575 0.879019 0.687983 0.764093
C24   C     C_R   0.525775 0.701274 0.826694 0.097907
C25   C     C_R   0.738534 0.289474 0.655432 -0.311334
C26   C     C_R   0.694802 0.205656 0.629820 0.032719
C27   C     C_R   0.510595 0.283130 0.519973 0.446011
C28   C     C_R   0.541548 0.363109 0.555187 -0.044175
C29   C     C_R   0.664235 0.369991 0.615674 0.114308
C30   C     C_R   0.461433 0.441283 0.525583 0.095749
C31   C     C_R   0.518394 0.536770 0.531451 0.023172
C32   C     C_R   0.645216 0.542845 0.586559 -0.223858
C33   C     C_R   0.713575 0.458870 0.632399 -0.169151
C34   C     C_R   0.739969 0.999198 0.501137 0.840504
C35   C     C_R   0.324775 0.424924 0.499339 0.175797
C36   C     C_R   0.254486 0.507772 0.449661 -0.225381
C37   C     C_R   0.314115 0.605826 0.437664 0.128332
C38   C     C_R   0.444148 0.620928 0.484696 -0.026106
C39   C     C_R   0.241064 0.687463 0.386291 -0.287339
C40   C     C_R   0.293820 0.782428 0.387292 0.075707
C41   C     C_R   0.491135 0.719091 0.484958 0.013022
C42   C     C_3   0.047774 0.030589 0.393415 -0.143496
C43   C     C_3   0.900839 0.028126 0.391822 0.060623
C44   C     C_3   0.057667 0.886550 0.567255 -0.020276
C45   C     C_3   0.109948 0.073538 0.549108 0.015314
C46   C     C_3   0.123351 0.997146 0.505428 0.064381
Cu1   Cu    Cu3+1 0.465900 0.918260 0.475680 0.933486
Cu2   Cu    Cu3+1 0.534100 0.081740 0.524320 1.007231
H1    H     H_    0.053950 0.972804 0.365441 0.132523
H2    H     H_    0.943682 0.061769 0.617999 0.158013
H3    H     H_    0.905001 0.872652 0.650815 0.180003
H4    H     H_    0.523246 0.353455 0.848822 0.147704
H5    H     H_    0.650317 0.929700 0.844998 0.161614
H6    H     H_    0.745724 0.643766 0.148851 0.172215
H7    H     H_    0.473007 0.180939 0.977111 0.133990
H8    H     H_    0.444908 0.066856 0.151639 0.158522
H9    H     H_    0.529263 0.323535 0.232858 0.215984
H10   H     H_    0.566303 0.535727 0.799727 0.155250
H11   H     H_    0.720894 0.815247 0.019960 0.142163
H12   H     H_    0.808822 0.465487 0.677111 0.147124
H13   H     H_    0.585265 0.734979 0.525542 0.116364
H14   H     H_    0.234936 0.843928 0.352643 0.122054
H15   H     H_    0.150854 0.494297 0.424968 0.165204
H16   H     H_    0.830705 0.291835 0.705157 0.147077
H17   H     H_    0.751636 0.143056 0.661898 0.128541
H18   H     H_    0.692661 0.610560 0.598322 0.129579
H19   H     H_    0.141743 0.676731 0.349506 0.146722
H20   H     H_    0.845539 0.966632 0.367468 0.127438
H21   H     H_    0.051582 0.839338 0.524211 0.157144
H22   H     H_    0.850699 0.832374 0.548745 0.160940
H23   H     H_    0.151311 0.150755 0.499804 0.188818
H24   H     H_    0.943230 0.156032 0.491864 0.215079
N1    N     N_R   0.585360 0.204570 0.560800 -0.195703
N2    N     N_R   0.414550 0.795430 0.439160 -0.180087
O1    O     O_R   0.455060 0.022100 0.338110 -0.590115
O2    O     O_R   0.512640 0.160150 0.379180 -0.518256
O3    O     O_R   0.288900 0.930980 0.479450 -0.618819
O4    O     O_R   0.346480 0.069030 0.520520 -0.531279
O5    O     O_R   0.487360 0.839850 0.620820 -0.597256
O6    O     O_R   0.544940 0.977900 0.661890 -0.587334
O7    O     O_R   0.653520 0.930970 0.479480 -0.599054
O8    O     O_R   0.711100 0.069020 0.520550 -0.575669
N3    N     N_3   0.129490 0.832081 0.669099 -0.581573
H25   H     H_    0.228834 0.844147 0.668646 0.216153
H26   H     H_    0.114349 0.854355 0.722756 0.242738
N4    N     N_3   0.421239 0.657804 0.769586 -0.591842
H27   H     H_    0.448520 0.664410 0.704001 0.237866
H28   H     H_    0.340136 0.694948 0.750279 0.239252
N5    N     N_3   0.108783 0.128844 0.325138 -0.561435
H29   H     H_    0.070341 0.139377 0.249898 0.261612
H30   H     H_    0.089983 0.189647 0.336122 0.286247
Br1   Br    Br    0.757458 0.429490 0.259710 -0.499814
Br2   Br    Br    0.388486 0.300602 0.395975 -0.518424
Br3   Br    Br    0.825867 0.151703 0.291118 -0.535682
N6    N     N_3   0.254975 0.324076 0.535992 -0.603157
H31   H     H_    0.181180 0.317905 0.477319 0.244610
H32   H     H_    0.209389 0.316984 0.593796 0.205276
N7    N     N_3   0.184213 0.050345 0.652473 -0.581796
H33   H     H_    0.125365 0.008998 0.707733 0.210181
H34   H     H_    0.220659 0.118914 0.660842 0.234717

loop_
_geom_bond_atom_site_label_1
_geom_bond_atom_site_label_2
_ccdc_geom_bond_type
C45   H23   S    
Cu2   O2    S    
N6    H31   S    
Cu1   O5    S    
C44   N3    S    
C8    H8    S    
C7    C8    A    
C45   C46   S    
C7    C11   A    
C30   C35   A    
N3    H25   S    
C1    C5    S    
C36   C37   A    
C19   C21   A    
C21   H11   S    
C45   N7    S    
C30   C31   A    
N4    H28   S    
C15   C16   A    
C6    C22   A    
C29   C33   A    
C26   N1    A    
C40   H14   S    
C18   C19   A    
C42   C46   S    
Cu2   O4    S    
C20   C24   A    
C13   C14   A    
C41   N2    A    
C19   C20   A    
C40   N2    A    
C43   H20   S    
C12   O4    A    
C34   O7    A    
C7    H7    S    
C23   O6    A    
N5    H30   S    
C36   H15   S    
C9    C10   A    
C2    C34   S    
C21   C22   A    
C26   H17   S    
C17   Br1   S    
C44   C46   S    
C22   H5    S    
C4    C45   S    
C25   C29   A    
C3    C44   S    
C1    O1    A    
C14   C20   A    
C3    H22   S    
C38   C41   A    
C12   C46   S    
C39   C40   A    
C3    H3    S    
N4    H27   S    
C25   C26   A    
C41   H13   S    
C4    H2    S    
C35   C36   A    
C2    C4    S    
C5    C9    A    
C37   C38   A    
C11   C16   A    
Cu1   Cu2   S    
C2    C43   S    
C6    C24   A    
C12   O3    A    
C17   C18   A    
C44   H21   S    
N3    H26   S    
C33   H12   S    
N7    H34   S    
C15   H10   S    
C27   Br2   S    
C42   C43   S    
Cu1   O3    S    
C4    H24   S    
C32   H18   S    
C28   C29   A    
C1    O2    A    
C39   H19   S    
Cu2   N1    S    
C31   C32   A    
C16   H4    S    
Cu1   N2    S    
C10   C13   A    
C5    C8    A    
N6    H32   S    
C35   N6    S    
C43   Br3   S    
C31   C38   A    
C13   C17   A    
C42   N5    S    
C32   C33   A    
Cu2   O6    S    
C28   C30   A    
C2    C3    S    
Cu1   O1    S    
C37   C39   A    
C6    C23   S    
Cu2   O8    S    
C9    H9    S    
Cu1   O7    S    
C10   C11   A    
C18   H6    S    
C42   H1    S    
N7    H33   S    
C27   C28   A    
C14   C15   A    
C34   O8    A    
C23   O5    A    
N5    H29   S    
C27   N1    A    
C24   N4    S    
C25   H16   S    
