data_mof_unit_52455.cif
_audit_creation_date              2013-03-05T15:58:07-0500
_audit_creation_method            fapswitch 2.2
_symmetry_space_group_name_H-M    P1
_symmetry_Int_Tables_number       1
_space_group_crystal_system       triclinic
_cell_length_a                    15.205431
_cell_length_b                    13.798238
_cell_length_c                    10.979422
_cell_angle_alpha                 89.338614
_cell_angle_beta                  87.611366
_cell_angle_gamma                 91.314297
_cell_volume                      2300.78509389

loop_
_atom_site_label
_atom_site_type_symbol
_atom_site_description
_atom_site_fract_x
_atom_site_fract_y
_atom_site_fract_z
_atom_type_partial_charge
O1    O     O_R   0.370250 0.582280 0.500040 -0.540911
O2    O     O_R   0.370250 0.417720 0.500040 -0.544617
C1    C     C_R   0.328667 0.499420 0.500859 0.931250
O3    O     O_R   0.499970 0.582270 0.317700 -0.515494
O4    O     O_R   0.499970 0.417730 0.317700 -0.517204
C2    C     C_R   0.501522 0.500976 0.259358 0.967493
Cu1   Cu    Cu3+1 0.499990 0.597420 0.500010 1.179935
Cu2   Cu    Cu3+1 0.499990 0.402580 0.500010 1.193039
O5    O     O_R   0.629730 0.582260 0.499980 -0.544840
O6    O     O_R   0.629730 0.417740 0.499980 -0.501866
O7    O     O_R   0.500000 0.582270 0.682320 -0.543269
O8    O     O_R   0.500000 0.417730 0.682320 -0.514145
C3    C     C_R   0.671513 0.501179 0.506138 0.881730
C4    C     C_R   0.501751 0.499243 0.739885 0.906824
C5    C     C_3   0.458886 0.601630 0.065531 0.310055
C6    C     C_3   0.450768 0.405214 0.075490 0.346677
C7    C     C_3   0.472453 0.597798 0.923353 0.360227
C8    C     C_3   0.443170 0.415226 0.933904 0.353747
H1    H     H_    0.408597 0.609756 0.881292 0.195502
H2    H     H_    0.374941 0.431011 0.912191 0.208130
H3    H     H_    0.644280 0.530491 0.864584 0.238718
H4    H     H_    0.616202 0.409009 0.893238 0.279377
C9    C     C_3   0.603648 0.498478 0.062612 0.405164
C10   C     C_3   0.502592 0.502120 0.120362 -0.530853
C11   C     C_3   0.503690 0.498242 0.877541 -0.367601
C12   C     C_3   0.597699 0.483243 0.919899 -0.373062
C13   C     C_R   0.819047 0.588429 0.484997 0.268178
C14   C     C_R   0.768624 0.504736 0.522181 -0.272861
C15   C     C_R   0.811333 0.425048 0.575389 0.282221
C16   C     C_R   0.903945 0.428559 0.588653 -0.060713
C17   C     C_R   0.953753 0.506645 0.533846 -0.057934
C18   C     C_R   0.911482 0.587707 0.484536 -0.115527
C19   C     C_R   0.949440 0.355563 0.651828 0.319640
C20   C     C_R   0.041476 0.358104 0.651507 -0.118108
C21   C     C_R   0.091343 0.433206 0.593350 -0.030332
C22   C     C_R   0.046791 0.504977 0.529683 0.019817
C23   C     C_R   0.095487 0.576316 0.461957 -0.079329
C24   C     C_R   0.053556 0.657768 0.418530 -0.135870
C25   C     C_R   0.963663 0.666371 0.435607 0.687220
C26   C     C_R   0.184315 0.442293 0.600090 0.303863
C27   C     C_R   0.231551 0.499739 0.510401 -0.215117
C28   C     C_R   0.185825 0.565962 0.439702 0.305311
H5    H     H_    0.072680 0.298190 0.694755 0.233459
H6    H     H_    0.090803 0.717502 0.375150 0.231875
C29   C     C_R   0.437238 0.792487 0.568110 0.425386
C30   C     C_R   0.433319 0.203011 0.559500 0.407154
N1    N     N_R   0.499930 0.743810 0.499950 -0.316818
N2    N     N_R   0.499930 0.256190 0.499950 -0.318574
C31   C     C_R   0.561455 0.795663 0.429839 0.889651
C32   C     C_R   0.565282 0.208774 0.436095 0.886043
C33   C     C_R   0.565013 0.898671 0.429737 -0.335759
C34   C     C_R   0.566790 0.105811 0.432613 -0.331065
C35   C     C_R   0.500754 0.948406 0.498307 -0.059562
C36   C     C_R   0.501009 0.051658 0.498541 -0.055657
C37   C     C_R   0.435366 0.895038 0.565982 -0.017649
C38   C     C_R   0.434133 0.100572 0.563049 -0.018702
C39   C     C_R   0.630303 0.953351 0.362344 0.655716
C40   C     C_R   0.631595 0.055419 0.364523 0.649295
C41   C     C_R   0.368251 0.046043 0.628396 -0.052459
C42   C     C_R   0.369220 0.945316 0.630583 -0.050125
H7    H     H_    0.315394 0.080501 0.679261 0.211725
H8    H     H_    0.316806 0.907562 0.682658 0.213415
N3    N     N_R   0.500381 0.692520 0.115943 0.219715
O9    O     O_R   0.560853 0.744506 0.056634 -0.126950
O10   O     O_R   0.464972 0.733273 0.211935 -0.258868
N4    N     N_R   0.497768 0.314781 0.106925 0.207466
O11   O     O_R   0.558042 0.278387 0.034462 -0.188388
O12   O     O_R   0.466528 0.258956 0.195789 -0.262165
N5    N     N_R   0.227491 0.417940 0.710779 0.176026
O13   O     O_R   0.287084 0.477955 0.749236 -0.374410
O14   O     O_R   0.196234 0.351397 0.786531 -0.245856
N6    N     N_R   0.228209 0.617485 0.338824 0.143484
O15   O     O_R   0.194728 0.607642 0.232460 -0.214279
O16   O     O_R   0.277334 0.693651 0.358302 -0.260171
F1    F     F_    0.929866 0.752464 0.402783 -0.537024
N7    N     N_R   0.374692 0.740820 0.646644 0.139755
O17   O     O_R   0.383833 0.748557 0.763168 -0.298212
O18   O     O_R   0.295343 0.727091 0.609362 -0.317214
N8    N     N_R   0.358577 0.250010 0.611574 0.137076
O19   O     O_R   0.286132 0.247150 0.552482 -0.335540
O20   O     O_R   0.353084 0.260641 0.728836 -0.219804
F2    F     F_    0.617424 0.747117 0.356067 -0.507162
F3    F     F_    0.627751 0.261360 0.371824 -0.510053
F4    F     F_    0.693900 0.908570 0.294907 -0.467267
F5    F     F_    0.696322 0.104375 0.298888 -0.478208
N9    N     N_R   0.361532 0.609074 0.088088 0.134310
O21   O     O_R   0.329354 0.694652 0.106201 -0.160751
O22   O     O_R   0.307558 0.547867 0.039352 -0.300424
N10   N     N_R   0.360219 0.392345 0.130296 0.165713
O23   O     O_R   0.308202 0.325884 0.087280 -0.187204
O24   O     O_R   0.335206 0.433681 0.231432 -0.332220
F6    F     F_    0.529041 0.669599 0.874330 -0.538953
F7    F     F_    0.459949 0.327950 0.877954 -0.525447
N11   N     N_R   0.653262 0.588695 0.086566 0.183505
O25   O     O_R   0.707776 0.628149 0.004732 -0.214669
O26   O     O_R   0.661659 0.614223 0.198853 -0.214115
N12   N     N_R   0.656249 0.420443 0.115307 0.173456
O27   O     O_R   0.716139 0.378628 0.047219 -0.196579
O28   O     O_R   0.666497 0.417359 0.232161 -0.256201
N13   N     N_R   0.776796 0.673162 0.442574 0.214721
O29   O     O_R   0.783034 0.695875 0.327205 -0.107246
O30   O     O_R   0.753012 0.738563 0.520983 -0.247548
N14   N     N_R   0.761183 0.339062 0.610116 0.166668
O31   O     O_R   0.772190 0.259597 0.549243 -0.217354
O32   O     O_R   0.702267 0.340900 0.699415 -0.309762
N15   N     N_R   0.904293 0.282881 0.726622 0.170395
O33   O     O_R   0.859168 0.308965 0.823575 -0.207708
O34   O     O_R   0.924911 0.192353 0.715017 -0.226352

loop_
_geom_bond_atom_site_label_1
_geom_bond_atom_site_label_2
_geom_bond_distance
_ccdc_geom_bond_type
N4    O12   1.303129 A    
H3    C12   1.108762 S    
N3    O10   1.302742 A    
C26   C27   1.418011 A    
C27   C28   1.406647 A    
C21   C22   1.408025 A    
N12   O27   1.303211 A    
Cu1   Cu2   2.688447 S    
N1    C31   1.369757 A    
C35   C36   1.424644 A    
Cu1   O7    2.010150 S    
C7    F6    1.386214 S    
C15   C16   1.421508 A    
C29   N7    1.429178 S    
C22   C23   1.404968 A    
N7    O18   1.300627 A    
C30   N8    1.423813 S    
O7    C4    1.303354 A    
N9    O22   1.299376 A    
C18   C25   1.416967 A    
N15   O33   1.301063 A    
C15   N14   1.434695 S    
C42   H8    1.081452 S    
C20   C21   1.401741 A    
C9    C12   1.589382 S    
C23   C28   1.395997 A    
N5    O14   1.300027 A    
O5    C3    1.301657 A    
C1    C27   1.476156 S    
C31   C33   1.421106 A    
C32   C34   1.422354 A    
C9    C10   1.639747 S    
C3    C14   1.494105 S    
C33   C39   1.412030 A    
C25   F1    1.355989 S    
N10   O24   1.300905 A    
N2    C32   1.374537 A    
N4    O11   1.301804 A    
C41   C42   1.390212 A    
C6    C10   1.628136 S    
C37   C42   1.407077 A    
N11   O25   1.302559 A    
C8    C11   1.558751 S    
O3    Cu1   2.014955 S    
N13   O30   1.301240 A    
N12   O28   1.299181 A    
C34   C36   1.405564 A    
C32   F3    1.351817 S    
C36   C38   1.404879 A    
C35   C37   1.405390 A    
C24   C25   1.379909 A    
C30   N2    1.375289 A    
C13   N13   1.429502 S    
C41   H7    1.081734 S    
C26   N5    1.445016 S    
C19   N15   1.433108 S    
N7    O17   1.297998 A    
N6    O16   1.300275 A    
N8    O20   1.296929 A    
N9    O21   1.302728 A    
C11   C12   1.539211 S    
N8    O19   1.301576 A    
C33   C35   1.404927 A    
Cu1   N1    2.019938 S    
C31   F2    1.345438 S    
Cu2   N2    2.019911 S    
C24   H6    1.083514 S    
C23   C24   1.393849 A    
C17   C18   1.416085 A    
C16   C17   1.416402 A    
Cu2   O8    2.014949 S    
C2    C10   1.525393 S    
C28   N6    1.431362 S    
C19   C20   1.398933 A    
C39   F4    1.357737 S    
N14   O32   1.301104 A    
N11   O26   1.296676 A    
C34   C40   1.412584 A    
C5    N9    1.496729 S    
O3    C2    1.298331 A    
C5    C10   1.656958 S    
C9    N12   1.482403 S    
O8    C4    1.296779 A    
C6    N4    1.496137 S    
C40   F5    1.357722 S    
N14   O31   1.301150 A    
Cu1   O5    1.988566 S    
C14   C15   1.421839 A    
C16   C19   1.424778 A    
C13   C18   1.405582 A    
O1    Cu1   1.978998 S    
Cu2   O6    1.979022 S    
O2    Cu2   1.988529 S    
C20   H5    1.077838 S    
N6    O15   1.300556 A    
O6    C3    1.305974 A    
O4    Cu2   2.010157 S    
C38   C41   1.406224 A    
C5    C7    1.567724 S    
C9    N11   1.472723 S    
C7    C11   1.546486 S    
C21   C26   1.421441 A    
C39   C40   1.408540 A    
O4    C2    1.307965 A    
N15   O34   1.301212 A    
N13   O29   1.300452 A    
C7    H1    1.107337 S    
O2    C1    1.305056 A    
C8    H2    1.100172 S    
C4    C11   1.512811 S    
N5    O13   1.300265 A    
N3    O9    1.301194 A    
C6    N10   1.485449 S    
C29   N1    1.378903 A    
C29   C37   1.415908 A    
C6    C8    1.568351 S    
H4    C12   1.107846 S    
C30   C38   1.413906 A    
C13   C14   1.417916 A    
C8    F7    1.382319 S    
C5    N3    1.511996 S    
C17   C22   1.414244 A    
O1    C1    1.293510 A    
N10   O23   1.302873 A    
