data_mof_unit_23863.cif
_audit_creation_date              2012-12-11T15:21:38-0500
_audit_creation_method            fapswitch 2.2
_symmetry_space_group_name_H-M    P1
_symmetry_Int_Tables_number       1
_space_group_crystal_system       triclinic
_cell_length_a                    19.219707
_cell_length_b                    7.147817
_cell_length_c                    17.842694
_cell_angle_alpha                 89.995934
_cell_angle_beta                  109.093485
_cell_angle_gamma                 90.000029
_cell_volume                      2316.35991377

loop_
_atom_site_label
_atom_site_type_symbol
_atom_type_description
_atom_site_fract_x
_atom_site_fract_y
_atom_site_fract_z
_atom_type_partial_charge
O1    O     O_R   0.562310 0.505770 0.439670 -0.532366
O2    O     O_R   0.437690 0.005770 0.560330 -0.532326
O3    O     O_R   0.411650 0.169150 0.405330 -0.538235
O4    O     O_R   0.588350 0.669150 0.594670 -0.538325
C1    C     C_R   0.384523 0.345148 0.383124 0.679764
C2    C     C_R   0.615469 0.845142 0.616888 0.679463
O5    O     O_R   0.560140 0.175610 0.430010 -0.537612
O6    O     O_R   0.439860 0.675610 0.569990 -0.537730
O7    O     O_R   0.587240 0.012100 0.585200 -0.546241
O8    O     O_R   0.412760 0.512100 0.414800 -0.546333
C3    C     C_R   0.581251 0.344638 0.415479 0.712998
C4    C     C_R   0.418749 0.844631 0.584522 0.712609
O9    O     O_3   0.508720 0.341420 0.550890 -0.376959
O10   O     O_3   0.491280 0.841420 0.449110 -0.376888
V1    V     V_3+5 0.498380 0.063930 0.490560 1.488561
V2    V     V_3+5 0.501620 0.563930 0.509440 1.488264
C5    C     C_R   0.187879 0.044847 0.872870 0.019451
C6    C     C_R   0.812098 0.544893 0.127098 0.019203
C7    C     C_R   0.130923 0.911439 0.864477 -0.174640
C8    C     C_R   0.869040 0.411433 0.135482 -0.174741
C9    C     C_R   0.126030 0.755479 0.812638 -0.043334
C10   C     C_R   0.873907 0.255423 0.187300 -0.043041
C11   C     C_R   0.172508 0.745535 0.764779 0.034558
C12   C     C_R   0.827433 0.245485 0.235159 0.034599
C13   C     C_R   0.224664 0.887822 0.769401 0.022281
C14   C     C_R   0.775303 0.387826 0.230562 0.022279
C15   C     C_R   0.231433 0.039343 0.822232 0.095476
C16   C     C_R   0.768552 0.539396 0.177749 0.095556
C17   C     C_R   0.165893 0.599509 0.709641 -0.122187
C18   C     C_R   0.834032 0.099410 0.290281 -0.122282
C19   C     C_R   0.211955 0.586120 0.663135 -0.069260
C20   C     C_R   0.787981 0.086038 0.336796 -0.069255
C21   C     C_R   0.266678 0.723698 0.670301 0.018325
C22   C     C_R   0.733286 0.223673 0.329660 0.018345
C23   C     C_R   0.271261 0.877564 0.721790 0.100960
C24   C     C_R   0.728716 0.377578 0.278186 0.101024
C25   C     C_R   0.322741 0.021766 0.725869 0.119215
C26   C     C_R   0.677264 0.521832 0.274136 0.119298
C27   C     C_R   0.326426 0.175385 0.775409 -0.166778
C28   C     C_R   0.673602 0.675503 0.224620 -0.166681
C29   C     C_R   0.281607 0.184297 0.822830 -0.076981
C30   C     C_R   0.718414 0.684414 0.177191 -0.076729
C31   C     C_R   0.317231 0.711904 0.627927 -0.194534
C32   C     C_R   0.682746 0.211887 0.372048 -0.194663
C33   C     C_R   0.368407 0.855142 0.632214 -0.036232
C34   C     C_R   0.631591 0.355164 0.367785 -0.036172
C35   C     C_R   0.369814 0.011209 0.680286 -0.147906
C36   C     C_R   0.630199 0.511275 0.319729 -0.147630
C37   C     C_3   0.749533 0.848827 0.839511 -0.201148
C38   C     C_3   0.250500 0.349169 0.160503 -0.201077
C39   C     C_3   0.679884 0.790683 0.767280 -0.166124
C40   C     C_3   0.320174 0.291109 0.232713 -0.165926
C41   C     C_3   0.824579 0.766997 0.748389 -0.188630
C42   C     C_3   0.175459 0.266677 0.251545 -0.188988
C43   C     C_3   0.789376 0.100501 0.763490 -0.287771
C44   C     C_3   0.210507 0.600386 0.236641 -0.286775
C45   C     C_3   0.814128 0.915193 0.809649 -0.007738
C46   C     C_3   0.185861 0.415188 0.190366 -0.007283
C47   C     C_3   0.688178 0.861891 0.687304 -0.130002
C48   C     C_3   0.311814 0.361908 0.312713 -0.130158
C49   C     C_3   0.753637 0.751814 0.671324 -0.055741
C50   C     C_3   0.246390 0.251499 0.328622 -0.055876
C51   C     C_3   0.712309 0.074250 0.700529 -0.331587
C52   C     C_3   0.287589 0.574212 0.299592 -0.331445
H1    H     H_    0.713054 0.138205 0.644103 0.175146
H2    H     H_    0.286823 0.637892 0.356055 0.175249
O11   O     O_R   0.087220 0.271820 0.085230 -0.559211
O12   O     O_R   0.912780 0.771820 0.914770 -0.559264
O13   O     O_R   0.939860 0.595540 0.069990 -0.526392
O14   O     O_R   0.060140 0.095540 0.930010 -0.526328
C53   C     C_R   0.918634 0.425677 0.085121 0.717042
C54   C     C_R   0.081350 0.925678 0.914862 0.717337
O15   O     O_R   0.088340 0.601930 0.094680 -0.532431
O16   O     O_R   0.911660 0.101930 0.905320 -0.532454
O17   O     O_R   0.062310 0.765410 0.939660 -0.551513
O18   O     O_R   0.937690 0.265410 0.060340 -0.551551
C55   C     C_R   0.115148 0.432484 0.118500 0.703937
C56   C     C_R   0.884850 0.932489 0.881503 0.703616
O19   O     O_3   0.991270 0.429630 0.949130 -0.377615
O20   O     O_3   0.008730 0.929630 0.050870 -0.377644
V3    V     V_3+5 0.001620 0.707150 0.009440 1.457488
V4    V     V_3+5 0.998380 0.207150 0.990560 1.457522
C57   C     C_2   0.209468 0.172638 0.942074 0.330410
H3    H     H_    0.169870 0.265115 0.953947 0.085322
O21   O     O_2   0.272827 0.172854 0.987323 -0.522839
C58   C     C_2   0.790526 0.672784 0.057910 0.330847
H4    H     H_    0.830154 0.765040 0.045982 0.085385
O22   O     O_2   0.727142 0.673345 0.012733 -0.522637
C59   C     C_2   0.735454 0.993236 0.896000 0.445598
H5    H     H_    0.766957 0.987178 0.958425 0.049015
O23   O     O_2   0.693823 0.125430 0.872380 -0.531927
C60   C     C_2   0.264600 0.493696 0.104065 0.443102
H6    H     H_    0.233773 0.486458 0.041498 0.050770
O24   O     O_2   0.305516 0.627149 0.127830 -0.532373
C61   C     C_2   0.606549 0.843822 0.776181 0.459297
H7    H     H_    0.586129 0.986098 0.765315 0.076914
O25   O     O_2   0.568690 0.725799 0.793865 -0.511518
C62   C     C_2   0.393460 0.344898 0.223835 0.457552
H8    H     H_    0.413596 0.487453 0.234431 0.077568
O26   O     O_2   0.431603 0.227104 0.206477 -0.511799
H9    H     H_    0.679753 0.635385 0.766269 0.131107
H10   H     H_    0.320437 0.135800 0.233665 0.131571
H11   H     H_    0.832187 0.630790 0.780557 0.103285
H12   H     H_    0.167928 0.130571 0.219317 0.103351
C63   C     C_2   0.737944 0.543940 0.654664 0.375058
H13   H     H_    0.692483 0.475091 0.666363 0.049309
O27   O     O_2   0.778952 0.448709 0.630454 -0.539663
C64   C     C_2   0.262161 0.043636 0.345198 0.375162
H14   H     H_    0.307642 0.974977 0.333455 0.049357
O28   O     O_2   0.221170 0.948199 0.369362 -0.539841
H15   H     H_    0.829287 0.144042 0.733819 0.211002
H16   H     H_    0.170573 0.643517 0.266345 0.210763
H17   H     H_    0.787629 0.217487 0.803847 0.164944
H18   H     H_    0.212159 0.717647 0.196372 0.165735
H19   H     H_    0.671231 0.155258 0.718865 0.180792
H20   H     H_    0.328629 0.655498 0.281305 0.180852
C65   C     C_2   0.894694 0.789192 0.727371 0.282861
H21   H     H_    0.909883 0.679084 0.693800 0.106710
O29   O     O_2   0.933754 0.927770 0.745754 -0.541443
C66   C     C_2   0.105319 0.288453 0.272544 0.282866
H22   H     H_    0.090164 0.178102 0.306034 0.106795
O30   O     O_2   0.066204 0.426958 0.254238 -0.541637
C67   C     C_2   0.074225 0.599177 0.810790 0.379843
H23   H     H_    0.018250 0.627575 0.807602 0.086575
O31   O     O_2   0.095079 0.436890 0.817687 -0.547799
C68   C     C_2   0.925683 0.099061 0.189131 0.379718
H24   H     H_    0.981666 0.127386 0.192335 0.086806
O32   O     O_2   0.904798 0.936802 0.182208 -0.547921
C69   C     C_2   0.764835 0.835968 0.597164 0.389951
H25   H     H_    0.803454 0.949706 0.601970 0.075531
O33   O     O_2   0.726804 0.785223 0.531015 -0.538098
C70   C     C_2   0.235116 0.335323 0.402799 0.390127
H26   H     H_    0.196491 0.449022 0.398019 0.075419
O34   O     O_2   0.273074 0.284335 0.468939 -0.537943
H27   H     H_    0.122574 0.496828 0.699423 0.202473
H28   H     H_    0.877334 0.996679 0.300486 0.202415
C71   C     C_2   0.197967 0.432829 0.604050 0.422542
H29   H     H_    0.209539 0.452518 0.549369 0.090564
O35   O     O_2   0.171318 0.284397 0.615041 -0.508564
C72   C     C_2   0.801961 0.932706 0.395866 0.422389
H30   H     H_    0.790509 0.952502 0.450608 0.090720
O36   O     O_2   0.828466 0.784131 0.384787 -0.508607
H31   H     H_    0.317165 0.592574 0.590725 0.135526
H32   H     H_    0.682810 0.092525 0.409242 0.135776
H33   H     H_    0.408899 0.122957 0.683668 0.126612
H34   H     H_    0.591133 0.623059 0.316369 0.126592
H35   H     H_    0.364416 0.289107 0.777839 0.142154
H36   H     H_    0.635637 0.789273 0.222219 0.142088
H37   H     H_    0.286031 0.307712 0.859230 0.162306
H38   H     H_    0.714016 0.807884 0.140820 0.162479
H39   H     H_    0.768137 0.720182 0.875760 0.109858
H40   H     H_    0.231944 0.220548 0.124230 0.110008

loop_
_geom_bond_atom_site_label_1
_geom_bond_atom_site_label_2
_ccdc_geom_bond_type
C18   C20   A    
C51   H1    S    
O4    V2    S    
C68   H24   S    
C52   H20   S    
C42   C66   S    
C63   H13   S    
C31   H31   S    
C61   H7    S    
O1    C3    A    
O2    C4    A    
C2    O7    A    
C35   H33   S    
C67   H23   S    
C27   C29   A    
O5    C3    A    
C63   O27   D    
C40   H10   S    
C6    C58   S    
O12   V3    S    
C11   C17   A    
C42   H12   S    
C23   C25   A    
C72   O36   D    
C20   C72   S    
C65   O29   D    
C53   O18   A    
O20   V3    S    
C41   C65   S    
C10   C68   S    
C50   C64   S    
C37   C45   S    
C64   H14   S    
C48   C50   S    
C40   C62   S    
O13   C53   A    
O15   C55   A    
C40   C48   S    
C46   C55   S    
C5    C7    A    
C41   C49   S    
C66   O30   D    
C70   H26   S    
C37   C39   S    
C36   H34   S    
C38   C40   S    
C39   C61   S    
C44   C52   S    
C8    C53   S    
C29   H37   S    
C59   O23   D    
C49   C63   S    
C26   C36   A    
C57   O21   D    
C49   C69   S    
C51   H19   S    
O5    V1    S    
O6    V2    S    
C7    C54   S    
O16   V4    S    
C54   O17   A    
C30   H38   S    
C2    C47   S    
O15   V3    S    
C32   C34   A    
C33   C35   A    
C9    C11   A    
O12   C56   A    
C34   C36   A    
C47   C49   S    
C37   C59   S    
C37   H39   S    
C58   O22   D    
C43   H15   S    
C5    C15   A    
C50   C70   S    
C6    C16   A    
C72   H30   S    
O4    C2    A    
O18   V4    S    
C28   H36   S    
C58   H4    S    
O17   V3    S    
C43   H17   S    
C43   C51   S    
C5    C57   S    
C21   C31   A    
C9    C67   S    
O11   C55   A    
C71   O35   D    
C19   C71   S    
C15   C29   A    
C57   H3    S    
O6    C4    A    
C19   C21   A    
C38   C46   S    
C22   C32   A    
O1    V2    S    
C67   O31   D    
O2    V1    S    
C31   C33   A    
C52   H2    S    
C13   C23   A    
C70   O34   D    
C38   C60   S    
C17   H27   S    
C8    C10   A    
C18   H28   S    
C43   C45   S    
C10   C12   A    
C25   C35   A    
O3    V1    S    
C66   H22   S    
C69   H25   S    
C42   C46   S    
C14   C24   A    
C68   O32   D    
C1    C48   S    
C7    C9    A    
C14   C16   A    
C45   C56   S    
C12   C14   A    
C28   C30   A    
O3    C1    A    
C41   C45   S    
O19   V4    S    
C61   O25   D    
C4    C33   S    
C13   C15   A    
C42   C50   S    
C71   H29   S    
C47   C51   S    
C48   C52   S    
C24   C26   A    
O7    V1    S    
C1    O8    A    
C25   C27   A    
O8    V2    S    
C65   H21   S    
C26   C28   A    
C60   O24   D    
C64   O28   D    
C41   H11   S    
C16   C30   A    
C60   H6    S    
C21   C23   A    
C22   C24   A    
C44   C46   S    
C6    C8    A    
C11   C13   A    
O14   V4    S    
C62   O26   D    
C12   C18   A    
O13   V3    S    
C38   H40   S    
C39   C47   S    
O11   V4    S    
C17   C19   A    
C62   H8    S    
O16   C56   A    
O9    V2    S    
C27   H35   S    
C44   H18   S    
O10   V1    S    
C3    C34   S    
O14   C54   A    
C32   H32   S    
C59   H5    S    
C44   H16   S    
C39   H9    S    
C20   C22   A    
C69   O33   D    
