data_mof_unit_64572.cif
_audit_creation_date              2012-12-11T17:17:16-0500
_audit_creation_method            fapswitch 2.2
_symmetry_space_group_name_H-M    P1
_symmetry_Int_Tables_number       1
_space_group_crystal_system       triclinic
_cell_length_a                    8.255594
_cell_length_b                    16.40246
_cell_length_c                    18.765473
_cell_angle_alpha                 96.312096
_cell_angle_beta                  91.982043
_cell_angle_gamma                 93.184697
_cell_volume                      2519.64503527

loop_
_atom_site_label
_atom_site_type_symbol
_atom_type_description
_atom_site_fract_x
_atom_site_fract_y
_atom_site_fract_z
_atom_type_partial_charge
Ba1   Ba    Ba6+2 0.843980 0.537940 0.465850 1.656046
Ba2   Ba    Ba6+2 0.345840 0.462130 0.534150 1.649161
C1    C     C_3   0.657956 0.833525 0.264648 0.305393
C2    C     C_3   0.380873 0.586561 0.253439 -0.036169
C3    C     C_2   0.340272 0.567510 0.173878 -0.119340
C4    C     C_3   0.109010 0.726301 0.270155 0.303891
C5    C     C_2   0.206128 0.519543 0.150006 -0.077681
C6    C     C_2   0.110998 0.477531 0.204352 -0.125143
C7    C     C_1   0.159744 0.485637 0.273567 0.068786
C8    C     C_R   0.039616 0.504520 0.931709 0.501921
C9    C     C_R   0.150709 0.512390 0.072048 0.470807
C10   C     C_R   0.079131 0.528303 0.802015 -0.145341
C11   C     C_R   0.027244 0.520324 0.728986 0.072885
C12   C     C_3   0.640061 0.754364 0.299810 0.450710
C13   C     C_R   0.766725 0.462177 0.758741 0.033740
C14   C     C_R   0.814502 0.471190 0.832715 0.095051
C15   C     C_R   0.976415 0.500900 0.854844 -0.093457
C16   C     C_3   0.079278 0.753084 0.195992 -0.335500
C17   C     C_R   0.875280 0.483907 0.708271 -0.329220
C18   C     C_R   0.380761 0.730935 0.470164 -0.279258
C19   C     C_R   0.529831 0.757454 0.504339 0.046243
C20   C     C_R   0.588942 0.839449 0.504180 -0.114954
C21   C     C_R   0.498420 0.895107 0.468810 0.259481
C22   C     C_R   0.346444 0.867166 0.436011 -0.127349
C23   C     C_3   0.485061 0.354580 0.316418 0.295946
C24   C     C_R   0.286234 0.785881 0.438390 0.001401
C25   C     C_R   0.627966 0.143626 0.470375 -0.148259
C26   C     C_R   0.671751 0.227902 0.479303 0.007146
C27   C     C_R   0.729558 0.087888 0.499889 0.239981
C28   C     C_3   0.162377 0.722987 0.626007 0.254517
C29   C     C_R   0.814284 0.257673 0.516996 -0.292723
C30   C     C_R   0.920954 0.204059 0.541770 -0.011168
C31   C     C_R   0.878062 0.119158 0.534731 -0.159940
C32   C     C_3   0.079606 0.801707 0.651710 -0.082463
C33   C     C_3   0.993226 0.283725 0.374023 0.310484
C34   C     C_3   0.464052 0.338380 0.235174 -0.363485
C35   C     C_3   0.003013 0.191875 0.353103 -0.379965
C36   C     C_3   0.712265 0.650893 0.682693 0.306807
C37   C     C_3   0.729797 0.680113 0.762558 -0.367620
C38   C     C_3   0.567937 0.900467 0.170639 0.175478
C39   C     C_3   0.556515 0.168643 0.652121 0.283602
C40   C     C_3   0.001718 0.281671 0.716000 0.277739
C41   C     C_3   0.941728 0.247634 0.783316 -0.317191
C42   C     C_3   0.453690 0.259258 0.741932 0.758553
C43   C     C_3   0.390264 0.261884 0.817551 -0.241850
C44   C     C_2   0.290363 0.531209 0.299268 -0.263396
H1    H     H_    0.714124 0.761538 0.350836 0.018371
H2    H     H_    0.632289 0.593636 0.674557 0.049270
H3    H     H_    0.787202 0.844738 0.251664 0.049045
H4    H     H_    0.805812 0.738643 0.771423 0.125698
H5    H     H_    0.788658 0.634049 0.791880 0.069253
H6    H     H_    0.608299 0.690093 0.784456 0.139975
H7    H     H_    0.510536 0.745753 0.313075 -0.135796
H8    H     H_    0.622692 0.884789 0.304000 -0.042759
H9    H     H_    0.368157 0.372455 0.338679 0.012431
H10   H     H_    0.578344 0.405801 0.329744 0.082245
H11   H     H_    0.364858 0.290387 0.220130 0.123563
H12   H     H_    0.111642 0.820302 0.709446 0.126008
H13   H     H_    0.433380 0.395459 0.212444 0.077934
H14   H     H_    0.578710 0.317450 0.212061 0.137310
H15   H     H_    0.117562 0.819120 0.196283 0.121027
H16   H     H_    0.075722 0.339852 0.732214 0.033109
H17   H     H_    0.892586 0.294946 0.683642 -0.004614
H18   H     H_    0.871394 0.293819 0.814571 0.124916
H19   H     H_    0.863224 0.190730 0.768675 0.147863
H20   H     H_    0.044163 0.233459 0.818290 0.103394
H21   H     H_    0.362401 0.282269 0.705775 0.050610
H22   H     H_    0.491922 0.257775 0.857119 0.132489
H23   H     H_    0.945883 0.791000 0.645927 0.108287
H24   H     H_    0.303683 0.208539 0.821046 0.097034
H25   H     H_    0.065039 0.660814 0.268725 0.058623
H26   H     H_    0.328785 0.319520 0.832020 0.083497
H27   H     H_    0.411533 0.599903 0.137099 0.122839
H28   H     H_    0.001087 0.440285 0.186786 0.112449
H29   H     H_    0.199064 0.556006 0.817480 0.127941
H30   H     H_    0.321893 0.539388 0.356303 0.071976
H31   H     H_    0.837984 0.475572 0.651950 0.074210
H32   H     H_    0.515387 0.122437 0.441180 0.102685
H33   H     H_    0.272498 0.909555 0.411129 0.096844
H34   H     H_    0.866405 0.296968 0.384692 0.002442
H35   H     H_    0.703044 0.859572 0.532528 0.135360
H36   H     H_    0.241520 0.733518 0.282769 -0.015467
H37   H     H_    0.958423 0.077814 0.557244 0.139178
H38   H     H_    0.333633 0.668363 0.472110 0.071443
H39   H     H_    0.846384 0.323047 0.524309 0.069581
H40   H     H_    0.150510 0.716391 0.156343 0.096764
H41   H     H_    0.948646 0.743327 0.179502 0.149359
H42   H     H_    0.289262 0.739140 0.613069 0.031626
H43   H     H_    0.097327 0.691548 0.577162 0.068565
H44   H     H_    0.694128 0.914817 0.154800 0.030114
H45   H     H_    0.073276 0.302363 0.422542 0.052471
H46   H     H_    0.525370 0.952218 0.207287 0.028470
H47   H     H_    0.488286 0.893683 0.121259 0.080447
H48   H     H_    0.539122 0.220539 0.619659 0.030917
H49   H     H_    0.508053 0.111243 0.619806 0.099716
H50   H     H_    0.688361 0.163570 0.662400 0.021750
H51   H     H_    0.922891 0.171615 0.304918 0.124708
H52   H     H_    0.963924 0.156963 0.397313 0.066241
H53   H     H_    0.130009 0.177934 0.341059 0.125772
H54   H     H_    0.834086 0.639288 0.662496 -0.008140
I1    I     I_    0.151455 0.905035 0.598001 -0.476513
I2    I     I_    0.634874 0.449156 0.909108 -0.422673
N1    N     N_R   0.158204 0.561523 0.958863 -0.229758
N2    N     N_R   0.212101 0.565393 0.027273 -0.230311
N3    N     N_R   0.034814 0.454320 0.044529 -0.225474
N4    N     N_R   0.981894 0.450179 0.976013 -0.202522
N5    N     N_2   0.548569 0.980085 0.468855 -0.229717
N6    N     N_2   0.685301 0.001839 0.497822 -0.215983
O1    O     O_2   0.875590 0.454550 0.328720 -0.461421
O2    O     O_2   0.260351 0.208217 0.560173 -0.486127
O3    O     O_3   0.097955 0.224645 0.678106 -0.593677
O4    O     O_3   0.127960 0.455900 0.416100 -0.497194
O5    O     O_3   0.560420 0.597610 0.535760 -0.480886
O6    O     O_2   0.379340 0.302240 0.465940 -0.462764
O7    O     O_3   0.532882 0.282889 0.343388 -0.641784
O8    O     O_2   0.420430 0.436636 0.755932 -0.503310
O9    O     O_3   0.601711 0.306177 0.745132 -0.665107
O10   O     O_3   0.634460 0.601950 0.371690 -0.489945
O11   O     O_2   0.698763 0.526828 0.242799 -0.476081
O12   O     O_3   0.644035 0.712664 0.648131 -0.624934
O13   O     O_3   0.041709 0.324385 0.316314 -0.635732
O14   O     O_3   0.693262 0.688237 0.253617 -0.585671
O15   O     O_2   0.810360 0.697790 0.534100 -0.477134
O16   O     O_3   0.049190 0.643760 0.407000 -0.485651
O17   O     O_2   0.953103 0.791236 0.455256 -0.458422
O18   O     O_3   0.556118 0.826246 0.201987 -0.633580
O19   O     O_3   0.478129 0.176121 0.718000 -0.647469
O20   O     O_3   0.025152 0.775447 0.320660 -0.608926
O21   O     O_2   0.314110 0.545480 0.671320 -0.452071
O22   O     O_3   0.061730 0.544170 0.583900 -0.500964
O23   O     O_3   0.555240 0.398120 0.628310 -0.477772
O24   O     O_3   0.166587 0.675937 0.683960 -0.641569
O25   O     O_3   0.629280 0.402460 0.464250 -0.475188
O26   O     O_3   0.140510 0.356300 0.593010 -0.485332
P1    P     P_3+3 0.048660 0.430750 0.339650 0.984617
P2    P     P_3+3 0.638170 0.686040 0.555200 0.998175
P3    P     P_3+3 0.078803 0.750118 0.406134 0.964459
P4    P     P_3+3 0.141040 0.569320 0.660360 0.993586
P5    P     P_3+3 0.107813 0.248787 0.589668 0.964394
P6    P     P_3+3 0.602678 0.597488 0.278824 0.977205
P7    P     P_3+3 0.554736 0.301531 0.436910 0.949013
P8    P     P_3+3 0.578011 0.405862 0.722175 0.936872

loop_
_geom_bond_atom_site_label_1
_geom_bond_atom_site_label_2
_ccdc_geom_bond_type
C37   H5    S    
O7    P7    S    
C42   O19   S    
C29   H39   S    
O1    P1    D    
C39   O19   S    
C23   H10   S    
C38   H47   S    
O20   P3    S    
C34   H13   S    
C35   H51   S    
C1    H3    S    
C1    O18   S    
O3    P5    S    
C5    C6    S    
C2    C44   S    
C13   C17   A    
Ba2   O4    S    
Ba2   O26   S    
C4    H36   S    
O11   P6    D    
C8    N1    A    
C33   C35   S    
C22   C24   A    
C23   O7    S    
Ba1   O4    S    
C36   C37   S    
C1    H8    S    
O10   P6    S    
C39   H50   S    
C25   C27   A    
C8    C15   S    
O24   P4    S    
C13   C14   A    
C27   C31   A    
C33   H34   S    
Ba2   O21   S    
O23   P8    S    
Ba1   Ba2   S    
C17   H31   S    
Ba1   O1    S    
O21   P4    D    
C29   C30   A    
C14   C15   A    
O5    P2    S    
C10   C15   A    
C9    N3    A    
C21   C22   A    
C27   N6    S    
C9    N2    A    
Ba1   P2    S    
C40   H16   S    
C19   P2    S    
C36   H2    S    
C36   O12   S    
C24   P3    S    
C37   H6    S    
C21   N5    S    
C7    C44   D    
C19   C20   A    
C43   H26   S    
Ba1   O5    S    
C28   H43   S    
Ba1   O25   S    
C44   H30   S    
C35   H52   S    
C41   H18   S    
C4    H25   S    
C4    C16   S    
Ba2   O25   S    
C28   C32   S    
C32   I1    S    
C20   H35   S    
O16   P3    S    
C33   O13   S    
C30   P5    S    
C36   H54   S    
C34   H11   S    
O26   P5    S    
C3    C5    D    
C11   C17   A    
C6    C7    D    
O17   P3    D    
C25   H32   S    
O13   P1    S    
O12   P2    S    
Ba2   P4    S    
C5    C9    S    
C40   O3    S    
Ba1   O15   S    
C2    P6    S    
C13   P8    S    
C22   H33   S    
C39   H48   S    
Ba2   O22   S    
C41   H19   S    
C38   O18   S    
C37   H4    S    
C43   H22   S    
C6    H28   S    
Ba2   O23   S    
C16   H40   S    
C38   H46   S    
C31   H37   S    
C32   H23   S    
C1    C12   S    
C12   O14   S    
O8    P8    D    
C7    P1    S    
C14   I2    S    
Ba1   O22   S    
C18   H38   S    
C8    N4    A    
C40   C41   S    
N5    N6    D    
C28   H42   S    
O22   P4    S    
C35   H53   S    
C42   C43   S    
O2    P5    D    
C43   H24   S    
C26   C29   A    
C23   H9    S    
C2    C3    S    
C34   H14   S    
C16   H15   S    
C12   H1    S    
N3    N4    A    
O25   P7    S    
C16   H41   S    
O15   P2    D    
C30   C31   A    
O9    P8    S    
Ba1   O16   S    
C4    O20   S    
C11   P4    S    
Ba2   O6    S    
C39   H49   S    
C18   C24   A    
C42   O9    S    
C41   H20   S    
C28   O24   S    
Ba2   O5    S    
Ba1   O10   S    
C3    H27   S    
C23   C34   S    
O14   P6    S    
C12   H7    S    
C10   C11   A    
C18   C19   A    
C10   H29   S    
N1    N2    A    
C32   H12   S    
C20   C21   A    
C42   H21   S    
C26   P7    S    
O4    P1    S    
C38   H44   S    
O6    P7    D    
Ba1   P1    S    
C40   H17   S    
C25   C26   A    
C33   H45   S    
