data_mof_unit_32890.cif
_audit_creation_date              2013-03-05T15:51:48-0500
_audit_creation_method            fapswitch 2.2
_symmetry_space_group_name_H-M    P1
_symmetry_Int_Tables_number       1
_space_group_crystal_system       triclinic
_cell_length_a                    15.828678
_cell_length_b                    10.765445
_cell_length_c                    9.630468
_cell_angle_alpha                 90.772469
_cell_angle_beta                  88.672552
_cell_angle_gamma                 90.666685
_cell_volume                      1640.36358353

loop_
_atom_site_label
_atom_site_type_symbol
_atom_site_description
_atom_site_fract_x
_atom_site_fract_y
_atom_site_fract_z
_atom_type_partial_charge
O1    O     O_R   0.499990 0.319640 0.618810 -0.571097
O2    O     O_R   0.500000 0.319660 0.381240 -0.539826
C1    C     C_R   0.499266 0.262792 0.499349 0.842190
O3    O     O_R   0.379070 0.499980 0.618770 -0.575575
O4    O     O_R   0.379080 0.500000 0.381190 -0.586566
C2    C     C_R   0.340010 0.499942 0.501325 0.781695
Cu1   Cu    Cu3+1 0.499990 0.499990 0.640660 0.969773
Cu2   Cu    Cu3+1 0.500010 0.500010 0.359340 0.998444
O5    O     O_R   0.500000 0.680340 0.618760 -0.605930
O6    O     O_R   0.500010 0.680360 0.381190 -0.571913
O7    O     O_R   0.620920 0.500000 0.618810 -0.588202
O8    O     O_R   0.620930 0.500020 0.381230 -0.546356
C3    C     C_R   0.498399 0.737031 0.500804 0.772582
C4    C     C_R   0.659987 0.500518 0.498832 0.847259
C5    C     C_3   0.969291 0.399582 0.567063 -0.136509
C6    C     C_3   0.028655 0.397358 0.436705 -0.158607
H1    H     H_    0.053606 0.312687 0.383858 0.178125
H2    H     H_    0.943057 0.317060 0.621705 0.185986
H3    H     H_    0.952867 0.496424 0.259963 0.186397
C7    C     C_1   0.250206 0.500254 0.504023 -0.114567
C8    C     C_1   0.749809 0.500864 0.496748 -0.097945
C9    C     C_3   0.024621 0.502883 0.632136 0.331471
C10   C     C_3   0.082794 0.500528 0.503138 0.098040
C11   C     C_3   0.971074 0.604033 0.565565 -0.205011
C12   C     C_3   0.917166 0.500712 0.498983 0.093105
C13   C     C_3   0.030426 0.601472 0.435198 -0.206499
C14   C     C_3   0.974872 0.498306 0.368613 -0.108922
C15   C     C_1   0.174546 0.500448 0.504409 0.048352
C16   C     C_1   0.825462 0.500877 0.496970 0.014067
H4    H     H_    0.056811 0.684159 0.381061 0.172621
H5    H     H_    0.946257 0.688513 0.618995 0.171633
C17   C     C_R   0.351596 0.129559 0.605561 -0.246910
H6    H     H_    0.349519 0.229777 0.602333 0.163954
C18   C     C_R   0.280696 0.065333 0.659499 0.380545
C19   C     C_R   0.281684 0.935279 0.661449 -0.195201
H7    H     H_    0.227803 0.883154 0.701725 0.191268
C20   C     C_R   0.351826 0.870509 0.610605 -0.223035
H8    H     H_    0.348837 0.770132 0.612637 0.160529
C21   C     C_R   0.423552 0.934312 0.556992 0.106127
C22   C     C_R   0.423647 0.065368 0.554529 -0.002568
C23   C     C_R   0.495385 0.128673 0.498510 -0.139544
C24   C     C_R   0.564921 0.062988 0.444040 0.259002
H9    H     H_    0.617794 0.884344 0.403533 0.166845
C25   C     C_R   0.563694 0.934697 0.445107 -0.229217
C26   C     C_R   0.494632 0.870680 0.502322 -0.116112
H10   H     H_    0.383970 0.403633 0.131306 0.150623
C27   C     C_R   0.649982 0.563053 0.122130 0.288060
C28   C     C_R   0.702444 0.655579 0.066208 -0.197696
H11   H     H_    0.763344 0.675529 0.110913 0.178627
C29   C     C_R   0.685073 0.702261 0.936146 -0.219220
H12   H     H_    0.728268 0.768049 0.887414 0.180107
C30   C     C_R   0.618300 0.651148 0.861437 -0.138018
H13   H     H_    0.613416 0.681351 0.756894 0.193710
C31   C     C_R   0.561089 0.566130 0.924718 0.199912
C32   C     C_R   0.568347 0.547241 0.069788 0.154566
N1    N     N_R   0.500800 0.501210 0.147910 -0.195359
C33   C     C_R   0.436089 0.447411 0.075492 -0.021892
H14   H     H_    0.388059 0.393941 0.873766 0.163005
C34   C     C_R   0.438164 0.442356 0.927472 -0.026968
N2    N     N_R   0.500830 0.501290 0.852040 -0.196324
Br1   Br    Br    0.711832 0.412205 0.146842 -0.419417
Br2   Br    Br    0.061322 0.506170 0.822581 -0.439403
Br3   Br    Br    0.665438 0.144294 0.373940 -0.439859
N3    N     N_R   0.207831 0.131962 0.711211 0.125640
O9    O     O_R   0.207458 0.252862 0.712957 -0.354927
O10   O     O_R   0.141212 0.072332 0.757663 -0.339066

loop_
_geom_bond_atom_site_label_1
_geom_bond_atom_site_label_2
_geom_bond_distance
_ccdc_geom_bond_type
C9    Br2   1.936407 S    
C27   Br1   1.926257 S    
C5    H2    1.110168 S    
C29   C30   1.395913 A    
H9    C25   1.084664 S    
C22   C23   1.417181 A    
C20   H8    1.081503 S    
C12   C14   1.535532 S    
H3    C14   1.110285 S    
C23   C24   1.402872 A    
C19   H7    1.082645 S    
C21   C26   1.411760 A    
Cu2   O8    1.930425 S    
C17   H6    1.080661 S    
Cu2   N1    2.036133 S    
C6    C14   1.549966 S    
C18   N3    1.440745 S    
C29   H12   1.082665 S    
C11   H5    1.110191 S    
C30   C31   1.413973 A    
C34   N2    1.370595 A    
C20   C21   1.411239 A    
C31   N2    1.374478 A    
C10   C15   1.452666 S    
C30   H13   1.066932 S    
Cu1   O7    1.920839 S    
C17   C18   1.404276 A    
C13   C14   1.549886 S    
C24   C25   1.381196 A    
O3    Cu1   1.930427 S    
C4    C8    1.421399 S    
C28   C29   1.390398 A    
C28   H11   1.082881 S    
C19   C20   1.393648 A    
O8    C4    1.302741 A    
C13   H4    1.110143 S    
C6    C10   1.536670 S    
O2    C1    1.298737 A    
C17   C22   1.415257 A    
H10   C33   1.081143 S    
C12   C16   1.452152 S    
O4    C2    1.299181 A    
C18   C19   1.400738 A    
O7    C4    1.297869 A    
C9    C11   1.542942 S    
C32   N1    1.383902 A    
C33   C34   1.425446 A    
O4    Cu2   1.920841 S    
C5    C12   1.536590 S    
N1    C33   1.370904 A    
C5    C6    1.550675 S    
Cu1   N2    2.035899 S    
Cu1   Cu2   2.709239 S    
C2    C7    1.421147 S    
C11   C12   1.536397 S    
C3    C26   1.440576 S    
Cu2   O6    1.950095 S    
O3    C2    1.301500 A    
C10   C13   1.536678 S    
C21   C22   1.411379 A    
Cu1   O5    1.955792 S    
C27   C32   1.405545 A    
O5    C3    1.297665 A    
C31   C32   1.421993 A    
C1    C23   1.444366 S    
C7    C15   1.197546 T    
O1    Cu1   1.950095 S    
H14   C34   1.081801 S    
C9    C10   1.529232 S    
C8    C16   1.197532 T    
C24   Br3   1.920183 S    
O6    C3    1.296099 A    
C5    C9    1.542876 S    
O2    Cu2   1.955792 S    
C25   C26   1.392261 A    
C27   C28   1.395094 A    
C11   C13   1.550686 S    
C6    H1    1.110155 S    
O1    C1    1.296033 A    
N3    O9    1.301510 A    
N3    O10   1.301659 A    
