data_mof_unit_57589.cif
_audit_creation_date              2012-12-11T14:49:56-0500
_audit_creation_method            fapswitch 2.2
_symmetry_space_group_name_H-M    P1
_symmetry_Int_Tables_number       1
_space_group_crystal_system       triclinic
_cell_length_a                    16.961411
_cell_length_b                    16.717067
_cell_length_c                    19.480639
_cell_angle_alpha                 117.831412
_cell_angle_beta                  62.152918
_cell_angle_gamma                 101.003797
_cell_volume                      4316.41711124

loop_
_atom_site_label
_atom_site_type_symbol
_atom_type_description
_atom_site_fract_x
_atom_site_fract_y
_atom_site_fract_z
_atom_type_partial_charge
Br1   Br    Br    0.482736 0.221120 0.251445 -0.540850
Br2   Br    Br    0.276700 0.693856 0.016059 -0.611503
C1    C     C_R   0.041879 0.759412 0.009907 -0.116822
C2    C     C_R   0.250848 0.518701 0.828537 -0.087988
C3    C     C_R   0.183225 0.493523 0.089241 -0.099873
C4    C     C_R   0.764298 0.418553 0.164955 -0.195100
C5    C     C_R   0.986293 0.340386 0.759979 -0.221175
C6    C     C_R   0.255214 0.547550 0.068753 -0.025120
C7    C     C_R   0.934501 0.265638 0.761607 -0.077946
C8    C     C_R   0.257724 0.457134 0.747140 0.042837
C9    C     C_R   0.017739 0.221747 0.011728 -0.121367
C10   C     C_R   0.862302 0.123120 0.700963 -0.281926
C11   C     C_R   0.900993 0.204172 0.697758 0.127850
C12   C     C_R   0.769334 0.434918 0.239610 -0.097168
C13   C     C_R   0.915850 0.221065 0.628391 -0.229188
C14   C     C_R   0.902418 0.153322 0.558219 0.127880
C15   C     C_R   0.867847 0.070506 0.560610 0.036556
C16   C     C_R   0.805847 0.560559 0.961039 -0.120667
C17   C     C_R   0.842557 0.057869 0.634658 0.138088
C18   C     C_R   0.930418 0.163767 0.482826 -0.194186
C19   C     C_R   0.933530 0.089412 0.407480 -0.187397
C20   C     C_R   0.907144 0.004671 0.407613 0.137682
C21   C     C_R   0.868468 0.996743 0.485781 0.026618
C22   C     C_R   0.840048 0.912321 0.487087 0.136691
C23   C     C_R   0.724659 0.549831 0.022324 0.046302
C24   C     C_R   0.803802 0.904014 0.564335 -0.193023
C25   C     C_R   0.806365 0.976296 0.637701 -0.192804
C26   C     C_R   0.928158 0.926189 0.330283 -0.239207
C27   C     C_R   0.911859 0.841054 0.331446 0.121245
C28   C     C_R   0.951302 0.672457 0.248124 -0.107232
C29   C     C_R   0.858808 0.835462 0.409823 -0.242554
C30   C     C_R   0.340084 0.355893 0.589900 -0.207892
C31   C     C_R   0.340809 0.413003 0.670210 0.110545
C32   C     C_R   0.422662 0.438102 0.674712 -0.246480
C33   C     C_R   0.500998 0.422839 0.599945 0.152919
C34   C     C_R   0.959096 0.759081 0.253977 0.018100
C35   C     C_R   0.498456 0.375894 0.519200 0.034056
C36   C     C_R   0.418893 0.337438 0.513942 0.078444
C37   C     C_R   0.579503 0.462754 0.605505 -0.199411
C38   C     C_R   0.651990 0.465183 0.532753 -0.198036
C39   C     C_R   0.647220 0.425403 0.453650 0.169086
C40   C     C_R   0.738701 0.484671 0.040854 -0.105959
C41   C     C_R   0.572753 0.375445 0.445128 -0.002727
C42   C     C_R   0.569017 0.333215 0.364688 0.006598
C43   C     C_R   0.492478 0.285491 0.358490 0.333298
C44   C     C_R   0.417711 0.288857 0.433243 -0.258769
C45   C     C_R   0.245138 0.577644 0.017916 0.257276
C46   C     C_R   0.711963 0.442223 0.385476 -0.208447
C47   C     C_R   0.707717 0.404523 0.306162 0.127970
C48   C     C_R   0.638824 0.345900 0.294754 -0.162510
C49   C     C_R   0.639350 0.593557 0.055372 0.091908
C50   C     C_R   0.325445 0.572576 0.098521 0.132657
C51   C     C_R   0.400230 0.553715 0.171131 0.508221
C52   C     C_R   0.021808 0.753008 0.173574 -0.054712
C53   C     C_R   0.323305 0.547588 0.158957 -0.350843
C54   C     C_R   0.401244 0.612338 0.057418 -0.211619
C55   C     C_R   0.475791 0.622468 0.071141 0.079350
C56   C     C_R   0.915072 0.265400 0.839232 0.504803
C57   C     C_R   0.478417 0.586546 0.122708 0.076600
C58   C     C_R   0.561412 0.574218 0.115787 -0.195875
C59   C     C_R   0.633293 0.643963 0.017131 -0.157840
C60   C     C_R   0.551508 0.658103 0.024813 -0.153778
C61   C     C_R   0.825133 0.179622 0.152473 0.109660
C62   C     C_R   0.963290 0.863705 0.995158 0.119607
C63   C     C_R   0.888208 0.950430 0.969664 -0.179556
C64   C     C_R   0.846698 0.482523 0.236944 0.477603
C65   C     C_R   0.929060 0.869912 0.944458 -0.178054
C66   C     C_R   0.958988 0.941033 0.070158 -0.220943
C67   C     C_R   0.172371 0.449659 0.751696 -0.123408
C68   C     C_R   0.916882 0.021793 0.096599 0.159420
C69   C     C_R   0.879990 0.026018 0.046525 0.177983
C70   C     C_R   0.833936 0.105131 0.075202 -0.360765
C71   C     C_R   0.862166 0.176799 0.202073 0.540221
C72   C     C_R   0.908292 0.097453 0.173875 -0.414694
C73   C     C_R   0.964049 0.690501 0.933810 -0.124067
C74   C     C_R   0.992103 0.774693 0.977028 0.043210
C75   C     C_R   0.043611 0.306932 0.057327 0.554930
C76   C     C_R   0.967497 0.238747 0.979856 -0.176295
H1    H     H_    0.084226 0.807637 0.036116 0.118875
H2    H     H_    0.720526 0.372452 0.139152 0.144731
H3    H     H_    0.961728 0.096849 0.348167 0.127891
H4    H     H_    0.964200 0.931623 0.269935 0.114995
H5    H     H_    0.840592 0.770832 0.411965 0.120325
H6    H     H_    0.780703 0.839636 0.566165 0.135364
H7    H     H_    0.784882 0.966769 0.695170 0.138833
H8    H     H_    0.277882 0.331952 0.585580 0.120932
H9    H     H_    0.425451 0.477996 0.735926 0.123042
H10   H     H_    0.582477 0.498051 0.667107 0.135522
H11   H     H_    0.709953 0.502082 0.539248 0.135413
H12   H     H_    0.152489 0.406937 0.700904 0.104385
H13   H     H_    0.761228 0.490989 0.397833 0.147809
H14   H     H_    0.818140 0.601634 0.928434 0.090311
H15   H     H_    0.636423 0.315578 0.233291 0.164879
H16   H     H_    0.357254 0.257151 0.428634 0.173021
H17   H     H_    0.565626 0.540782 0.149990 0.171624
H18   H     H_    0.691527 0.665392 0.974712 0.115492
H19   H     H_    0.548796 0.689380 0.988100 0.139940
H20   H     H_    0.264308 0.518528 0.192792 0.140050
H21   H     H_    0.408097 0.625783 0.006078 0.175509
H22   H     H_    0.804494 0.109492 0.038222 0.171545
H23   H     H_    0.933127 0.188933 0.944291 0.182400
H24   H     H_    0.908574 0.650307 0.297268 0.140199
H25   H     H_    0.860938 0.952814 0.930203 0.132779
H26   H     H_    0.936353 0.094430 0.212516 0.140005
H27   H     H_    0.931916 0.811891 0.886172 0.119703
H28   H     H_    0.983864 0.937172 0.110680 0.114755
H29   H     H_    0.690553 0.457715 0.084538 0.110829
H30   H     H_    0.047170 0.808535 0.156943 0.100013
H31   H     H_    0.933989 0.675521 0.891291 0.086723
H32   H     H_    0.792971 0.230413 0.870773 0.313442
H33   H     H_    0.098450 0.266346 0.102662 0.316825
H34   H     H_    0.302945 0.539343 0.849640 0.127515
H35   H     H_    0.341945 0.502050 0.253545 0.328232
H36   H     H_    0.881223 0.239661 0.305366 0.317405
H37   H     H_    0.886962 0.426303 0.282116 0.349456
H38   H     H_    0.161823 0.471303 0.138944 0.181792
H39   H     H_    0.003199 0.369868 0.716101 0.124202
H40   H     H_    0.854182 0.105950 0.750816 0.166389
H41   H     H_    0.944418 0.283558 0.625204 0.119391
H42   H     H_    0.955890 0.227453 0.480439 0.135371
N1    N     N_R   0.036080 0.671900 0.995420 -0.036985
N2    N     N_R   0.867430 0.509300 0.948100 -0.046414
N3    N     N_R   0.003360 0.617250 0.167070 -0.040163
N4    N     N_R   0.825450 0.461270 0.995400 -0.036608
N5    N     N_R   0.045340 0.665280 0.119770 -0.035843
N6    N     N_R   0.883740 0.497640 0.167070 -0.077622
N7    N     N_R   0.987050 0.628910 0.948110 -0.044079
N8    N     N_R   0.174550 0.538730 0.004600 -0.076547
N9    N     N_R   0.954660 0.334720 0.880230 -0.067697
N10   N     N_R   0.116260 0.502360 0.832930 -0.044892
N11   N     N_R   0.012950 0.371090 0.051890 -0.077836
N12   N     N_R   0.963920 0.328100 0.004580 -0.070460
N13   N     N_R   0.165290 0.545350 0.880240 -0.033104
N14   N     N_R   0.132570 0.490700 0.051900 -0.061882
N15   N     N_R   0.996640 0.382750 0.832930 -0.067486
N16   N     N_R   0.834710 0.454650 0.119760 -0.065976
Ni1   Ni    Ni4+2 0.104370 0.604370 0.000010 0.269272
Ni2   Ni    Ni4+2 0.895630 0.395630 0.999990 0.242601
Ni3   Ni    Ni4+2 0.991920 0.505780 0.891500 0.203177
Ni4   Ni    Ni4+2 0.008080 0.494220 0.108500 0.282600
O1    O     O_3   0.841641 0.229043 0.884884 -0.795144
O2    O     O_3   0.086142 0.325100 0.107876 -0.771654
O3    O     O_3   0.401848 0.523339 0.225390 -0.751534
O4    O     O_3   0.851534 0.252163 0.277793 -0.770436
O5    O     O_3   0.897961 0.482860 0.274831 -0.773636

loop_
_geom_bond_atom_site_label_1
_geom_bond_atom_site_label_2
_ccdc_geom_bond_type
N13   Ni1   S    
C71   C72   A    
C5    H39   S    
C49   C59   A    
C41   C42   A    
C1    H1    S    
C51   C57   A    
C59   H18   S    
C40   N4    A    
C55   C60   A    
C28   N3    A    
C43   C44   A    
N15   Ni3   S    
C27   C34   S    
N6    Ni4   S    
C24   C25   A    
C15   C21   A    
N7    Ni3   S    
C62   C66   A    
N4    Ni2   S    
C26   C27   A    
C33   C35   A    
C22   C24   A    
N2    Ni3   S    
N1    N7    A    
N14   Ni4   S    
N3    N5    A    
C12   C47   S    
C56   N9    A    
N12   Ni2   S    
C13   C14   A    
C29   H5    S    
C54   C55   A    
C53   H20   S    
C32   C33   A    
C75   N11   A    
N1    Ni1   S    
C25   H7    S    
C76   N12   A    
C75   O2    S    
C64   O5    S    
C7    C11   S    
N11   Ni4   S    
C9    C75   A    
H33   O2    S    
N9    N15   A    
N9    Ni2   S    
C67   N10   A    
C63   C65   A    
C46   H13   S    
C68   C72   A    
C4    N16   A    
C21   C22   A    
C68   C69   A    
C30   C36   A    
C38   H11   S    
C17   C25   A    
C40   H29   S    
C6    C50   S    
C50   C53   A    
C2    H34   S    
N6    N16   A    
C57   C58   A    
C20   C26   A    
C19   C20   A    
C76   H23   S    
C39   C41   A    
C16   C23   A    
C66   H28   S    
C37   H10   S    
N10   Ni3   S    
C51   C53   A    
C62   C74   S    
C3    N14   A    
C52   N5    A    
C73   H31   S    
C36   C44   A    
C26   H4    S    
C62   C65   A    
C45   N8    A    
C34   C52   A    
N16   Ni2   S    
C37   C38   A    
C8    C67   A    
C65   H27   S    
C61   C71   A    
N5    Ni1   S    
C63   C69   A    
N3    Ni4   S    
C64   N6    A    
C51   O3    S    
H36   O4    S    
C35   C41   A    
H32   O1    S    
C33   C37   A    
C73   C74   A    
C23   C49   S    
C5    N15   A    
C35   C36   A    
C9    C76   A    
N8    N14   A    
C4    C12   A    
C60   H19   S    
C4    H2    S    
C44   H16   S    
H35   O3    S    
C14   C18   A    
C30   H8    S    
C28   H24   S    
C31   C32   A    
C12   C64   A    
C18   C19   A    
C1    C74   A    
C16   N2    A    
N8    Ni1   S    
C10   H40   S    
C46   C47   A    
C19   H3    S    
C11   C13   A    
C3    H38   S    
N10   N13   A    
C63   H25   S    
C2    C8    A    
C67   H12   S    
C18   H42   S    
C42   C43   A    
C72   H26   S    
C70   H22   S    
C42   C48   A    
C5    C7    A    
C7    C56   A    
C24   H6    S    
C23   C40   A    
C3    C6    A    
C48   H15   S    
C52   H30   S    
Br2   C45   S    
H37   O5    S    
C28   C34   A    
C16   H14   S    
C30   C31   A    
C22   C29   A    
C69   C70   A    
C27   C29   A    
C56   O1    S    
Br1   C43   S    
C14   C15   A    
C50   C54   A    
C10   C17   A    
C61   C70   A    
C15   C17   A    
C39   C46   A    
C13   H41   S    
C8    C31   S    
C73   N7    A    
C32   H9    S    
C59   C60   A    
C6    C45   A    
C55   C57   A    
C58   H17   S    
C1    N1    A    
C10   C11   A    
C66   C68   A    
C47   C48   A    
C20   C21   A    
C38   C39   A    
C49   C58   A    
C54   H21   S    
N2    N4    A    
N11   N12   A    
C2    N13   A    
C71   O4    S    
