data_mof_unit_68475.cif
_audit_creation_date              2012-12-10T16:47:18-0500
_audit_creation_method            fapswitch 2.2
_symmetry_space_group_name_H-M    P1
_symmetry_Int_Tables_number       1
_space_group_crystal_system       triclinic
_cell_length_a                    12.208403
_cell_length_b                    11.950319
_cell_length_c                    7.77337
_cell_angle_alpha                 89.409287
_cell_angle_beta                  94.966804
_cell_angle_gamma                 89.054931
_cell_volume                      1129.5998507

loop_
_atom_site_label
_atom_site_type_symbol
_atom_type_description
_atom_site_fract_x
_atom_site_fract_y
_atom_site_fract_z
_atom_type_partial_charge
C1    C     C_R   0.356272 0.849430 0.456709 0.886173
C2    C     C_2   0.688414 0.732620 0.564947 -0.111982
C3    C     C_2   0.706792 0.249384 0.551907 -0.080590
C4    C     C_2   0.291148 0.753007 0.447468 -0.063924
C5    C     C_2   0.732611 0.685477 0.427299 -0.090823
C6    C     C_2   0.188414 0.232620 0.564947 -0.111982
C7    C     C_2   0.206792 0.749385 0.551907 -0.080589
C8    C     C_2   0.791147 0.253007 0.447468 -0.063927
C9    C     C_3   0.668593 0.679868 0.251064 -0.401124
C10   C     C_3   0.653140 0.559452 0.190289 -0.911902
C11   C     C_3   0.203353 0.188429 0.751147 -0.345656
C12   C     C_R   0.642544 0.151821 0.542899 0.978042
C13   C     C_3   0.288268 0.257495 0.859112 -0.792176
C14   C     C_3   0.164960 0.852585 0.646522 -0.406406
C15   C     C_3   0.044230 0.852259 0.682545 -0.905796
C16   C     C_3   0.841713 0.152079 0.360958 -0.397205
C17   C     C_3   0.817364 0.156090 0.164608 -0.790050
C18   C     C_3   0.168594 0.179868 0.251064 -0.401124
C19   C     C_3   0.153140 0.059452 0.190288 -0.911902
C20   C     C_3   0.703353 0.688428 0.751147 -0.345657
C21   C     C_3   0.788267 0.757495 0.859113 -0.792175
C22   C     C_3   0.664960 0.352584 0.646524 -0.406404
C23   C     C_R   0.632398 0.839156 0.541522 0.915130
C24   C     C_3   0.544230 0.352259 0.682546 -0.905796
C25   C     C_3   0.341715 0.652078 0.360963 -0.397207
C26   C     C_3   0.317368 0.656087 0.164612 -0.790053
C27   C     C_R   0.342399 0.135395 0.452270 0.939388
C28   C     C_R   0.856272 0.349430 0.456709 0.886173
C29   C     C_R   0.142543 0.651821 0.542899 0.978042
C30   C     C_R   0.132398 0.339156 0.541522 0.915130
C31   C     C_R   0.842399 0.635395 0.452270 0.939388
C32   C     C_2   0.232611 0.185477 0.427299 -0.090823
H1    H     H_    0.616067 0.000211 0.003493 0.189635
H2    H     H_    0.347315 0.295159 0.776839 0.257581
H3    H     H_    0.247386 0.327867 0.921924 0.232928
H4    H     H_    0.334751 0.203968 0.958457 0.248637
H5    H     H_    0.123423 0.193890 0.809388 0.194703
H6    H     H_    0.223829 0.097612 0.759151 0.215395
H7    H     H_    0.991336 0.830449 0.564563 0.257136
H8    H     H_    0.032776 0.792762 0.789642 0.286900
H9    H     H_    0.019154 0.936837 0.724358 0.233288
H10   H     H_    0.214697 0.861389 0.772214 0.231398
H11   H     H_    0.174645 0.929134 0.567260 0.209961
H12   H     H_    0.383964 0.998404 0.996252 0.181091
H13   H     H_    0.727842 0.166228 0.128127 0.269608
H14   H     H_    0.860575 0.226646 0.107782 0.255657
H15   H     H_    0.846735 0.077068 0.108720 0.227479
H16   H     H_    0.932330 0.151187 0.391682 0.182253
H17   H     H_    0.815881 0.070736 0.412919 0.208602
H18   H     H_    0.233053 0.017693 0.173560 0.272380
H19   H     H_    0.109178 0.010956 0.284760 0.259091
H20   H     H_    0.103075 0.059358 0.064043 0.248905
H21   H     H_    0.084528 0.216272 0.251500 0.240677
H22   H     H_    0.212089 0.228521 0.158804 0.228183
H23   H     H_    0.116067 0.500211 0.003493 0.189634
H24   H     H_    0.847315 0.795159 0.776839 0.257580
H25   H     H_    0.747386 0.827867 0.921924 0.232927
H26   H     H_    0.834750 0.703968 0.958458 0.248637
H27   H     H_    0.623423 0.693890 0.809388 0.194703
H28   H     H_    0.723829 0.597612 0.759151 0.215395
H29   H     H_    0.491336 0.330450 0.564563 0.257136
H30   H     H_    0.532775 0.292762 0.789642 0.286900
H31   H     H_    0.519154 0.436837 0.724359 0.233288
H32   H     H_    0.714697 0.361388 0.772216 0.231397
H33   H     H_    0.674646 0.429134 0.567262 0.209961
H34   H     H_    0.883964 0.498404 0.996252 0.181090
H35   H     H_    0.227846 0.666223 0.128128 0.269607
H36   H     H_    0.360579 0.726643 0.107786 0.255659
H37   H     H_    0.346741 0.577065 0.108727 0.227480
H38   H     H_    0.432331 0.651186 0.391689 0.182253
H39   H     H_    0.315881 0.570735 0.412923 0.208602
H40   H     H_    0.733053 0.517693 0.173559 0.272380
H41   H     H_    0.609179 0.510955 0.284762 0.259091
H42   H     H_    0.603074 0.559357 0.064044 0.248905
H43   H     H_    0.584528 0.716271 0.251500 0.240678
H44   H     H_    0.712089 0.728521 0.158804 0.228183
N1    N     N_2   0.541470 1.000000 0.055820 -0.180019
N2    N     N_2   0.458530 1.000000 0.944180 -0.182447
N3    N     N_2   0.041470 0.500000 0.055820 -0.180019
N4    N     N_2   0.958530 0.500000 0.944180 -0.182447
O1    O     O_R   0.375700 0.885870 0.609240 -0.649351
O2    O     O_R   0.597720 0.114130 0.675960 -0.615860
O3    O     O_R   0.597720 0.885870 0.675960 -0.613405
O4    O     O_R   0.402280 0.114130 0.324040 -0.621700
O5    O     O_R   0.902280 0.385870 0.324040 -0.635017
O6    O     O_R   0.097720 0.614130 0.675960 -0.615861
O7    O     O_R   0.097720 0.385870 0.675960 -0.613405
O8    O     O_R   0.902280 0.614130 0.324040 -0.621700
O9    O     O_R   0.624300 0.114130 0.390760 -0.608597
O10   O     O_R   0.624300 0.885870 0.390760 -0.636954
O11   O     O_R   0.375700 0.114130 0.609240 -0.613237
O12   O     O_R   0.875700 0.385870 0.609240 -0.649351
O13   O     O_R   0.124300 0.614130 0.390760 -0.608597
O14   O     O_R   0.124300 0.385870 0.390760 -0.636954
O15   O     O_R   0.875700 0.614130 0.609240 -0.613237
O16   O     O_R   0.402280 0.885870 0.324040 -0.635017
Zn1   Zn    Zn3+2 0.482250 1.000000 0.690430 0.899450
Zn2   Zn    Zn3+2 0.517750 1.000000 0.309570 0.904556
Zn3   Zn    Zn3+2 0.982250 0.500000 0.690430 0.899450
Zn4   Zn    Zn3+2 0.017750 0.500000 0.309570 0.904556

loop_
_geom_bond_atom_site_label_1
_geom_bond_atom_site_label_2
_ccdc_geom_bond_type
C6    C32   D    
C24   H29   S    
C7    C29   S    
C11   C13   S    
C16   H16   S    
C4    C25   S    
N1    N2    D    
C21   H25   S    
C23   O3    A    
C26   H35   S    
C27   O4    A    
C17   H13   S    
C13   H3    S    
C10   H41   S    
O15   Zn3   S    
C1    O1    A    
C18   C19   S    
C11   H5    S    
C3    C12   S    
C18   H21   S    
C19   H20   S    
C7    C14   S    
C16   C17   S    
O16   Zn2   S    
C27   O11   A    
C25   H39   S    
C9    H44   S    
C20   H28   S    
C9    C10   S    
C14   H10   S    
C8    C16   S    
C4    C7    D    
O7    Zn3   S    
C2    C20   S    
C12   O9    A    
C16   H17   S    
C15   H9    S    
C13   H4    S    
C3    C8    D    
C6    C11   S    
C25   C26   S    
C11   H6    S    
C22   H33   S    
C5    C9    S    
H23   N3    S    
N3    Zn4   S    
O14   Zn4   S    
N2    Zn1   S    
C23   O10   A    
C12   O2    A    
N1    Zn2   S    
C28   O12   A    
O11   Zn1   S    
C20   H27   S    
O6    Zn3   S    
O13   Zn4   S    
C15   H7    S    
C29   O6    A    
O8    Zn4   S    
C6    C30   S    
C24   H31   S    
N4    Zn3   S    
C8    C28   S    
O2    Zn1   S    
C22   C24   S    
C2    C5    D    
C18   C32   S    
C28   O5    A    
C24   H30   S    
C31   O8    A    
C27   C32   S    
C17   H15   S    
C21   H24   S    
C17   H14   S    
H34   N4    S    
O9    Zn2   S    
C1    C4    S    
O4    Zn2   S    
H12   N2    S    
C26   H36   S    
C13   H2    S    
C30   O14   A    
O5    Zn4   S    
C29   O13   A    
C10   H42   S    
C19   H18   S    
H1    N1    S    
O1    Zn1   S    
C1    O16   A    
C31   O15   A    
C15   H8    S    
C18   H22   S    
C22   H32   S    
N3    N4    D    
C19   H19   S    
C21   H26   S    
C20   C21   S    
O3    Zn1   S    
C2    C23   S    
C26   H37   S    
C14   C15   S    
C3    C22   S    
C25   H38   S    
C9    H43   S    
C30   O7    A    
O10   Zn2   S    
O12   Zn3   S    
C14   H11   S    
C5    C31   S    
C10   H40   S    
