data_mof_unit_50084.cif
_audit_creation_date              2012-12-11T15:43:18-0500
_audit_creation_method            fapswitch 2.2
_symmetry_space_group_name_H-M    P1
_symmetry_Int_Tables_number       1
_space_group_crystal_system       triclinic
_cell_length_a                    19.21997
_cell_length_b                    10.918865
_cell_length_c                    18.765373
_cell_angle_alpha                 89.944575
_cell_angle_beta                  89.795167
_cell_angle_gamma                 90.082327
_cell_volume                      3938.0749209

loop_
_atom_site_label
_atom_site_type_symbol
_atom_type_description
_atom_site_fract_x
_atom_site_fract_y
_atom_site_fract_z
_atom_type_partial_charge
C1    C     C_R   0.711703 0.328582 0.138909 0.567885
C2    C     C_R   0.286581 0.333490 0.861550 0.561838
C3    C     C_R   0.211703 0.828581 0.138909 0.567885
C4    C     C_R   0.786581 0.833491 0.861550 0.561837
C5    C     C_R   0.508301 0.392494 0.926341 -0.114059
C6    C     C_R   0.487990 0.388798 0.073477 -0.120405
C7    C     C_R   0.008300 0.892494 0.926341 -0.114061
C8    C     C_R   0.987990 0.888798 0.073478 -0.120406
C9    C     C_R   0.006318 0.001776 0.964506 -0.164950
C10   C     C_R   0.993441 0.000420 0.037438 -0.163135
C11   C     C_R   0.506318 0.501776 0.964505 -0.164950
C12   C     C_R   0.493441 0.500420 0.037437 -0.163136
C13   C     C_R   0.772491 0.862929 0.934989 0.013251
C14   C     C_R   0.221253 0.838271 0.061568 -0.002408
C15   C     C_R   0.272491 0.362928 0.934990 0.013250
C16   C     C_R   0.721254 0.338272 0.061568 -0.002407
C17   C     C_R   0.706615 0.851524 0.966045 0.016033
C18   C     C_R   0.282469 0.803084 0.026478 0.022599
C19   C     C_R   0.206616 0.351521 0.966046 0.016033
C20   C     C_R   0.782469 0.303083 0.026477 0.022599
C21   C     C_R   0.696983 0.877847 0.037436 0.043949
C22   C     C_R   0.292952 0.832447 0.955020 0.040947
C23   C     C_R   0.196983 0.377846 0.037437 0.043950
C24   C     C_R   0.792951 0.332445 0.955020 0.040946
C25   C     C_R   0.817707 0.934837 0.046843 -0.158166
C26   C     C_R   0.176707 0.909218 0.947980 -0.164132
C27   C     C_R   0.317707 0.434837 0.046843 -0.158165
C28   C     C_R   0.676707 0.409221 0.947980 -0.164132
C29   C     C_R   0.826953 0.909980 0.975524 -0.161008
C30   C     C_R   0.166545 0.880941 0.019727 -0.165287
C31   C     C_R   0.326953 0.409980 0.975524 -0.161008
C32   C     C_R   0.666546 0.380945 0.019728 -0.165287
C33   C     C_3   0.657738 0.745423 0.967893 -0.246396
C34   C     C_3   0.356612 0.828013 0.045032 -0.245942
C35   C     C_3   0.157740 0.245419 0.967894 -0.246395
C36   C     C_3   0.856612 0.328008 0.045031 -0.245943
C37   C     C_3   0.646468 0.774329 0.046499 -0.153196
C38   C     C_3   0.367908 0.860710 0.966887 -0.134324
C39   C     C_3   0.146469 0.274327 0.046500 -0.153197
C40   C     C_3   0.867908 0.360705 0.966885 -0.134324
C41   C     C_R   0.753307 0.914238 0.079523 0.016654
C42   C     C_R   0.242348 0.896520 0.916551 0.001845
C43   C     C_R   0.253307 0.414237 0.079523 0.016655
C44   C     C_R   0.742348 0.396520 0.916551 0.001845
C45   C     C_R   0.531652 0.155454 0.146459 0.531745
C46   C     C_R   0.469598 0.156016 0.852467 0.528394
C47   C     C_R   0.031652 0.655454 0.146459 0.531743
C48   C     C_R   0.969598 0.656016 0.852467 0.528395
C49   C     C_R   0.506015 0.159652 0.579422 0.006316
C50   C     C_R   0.512247 0.165300 0.428749 -0.005981
C51   C     C_R   0.006008 0.659651 0.579420 0.006300
C52   C     C_R   0.012237 0.665302 0.428745 -0.005976
C53   C     C_R   0.513998 0.051838 0.539163 0.002103
C54   C     C_R   0.506502 0.057380 0.467387 0.017794
C55   C     C_R   0.013971 0.551839 0.539156 0.002158
C56   C     C_R   0.006468 0.557384 0.467382 0.017822
C57   C     C_R   0.522379 0.273712 0.468646 -0.156520
C58   C     C_R   0.517956 0.271223 0.543754 -0.162085
C59   C     C_R   0.022378 0.773710 0.468644 -0.156528
C60   C     C_R   0.017957 0.771220 0.543752 -0.162092
C61   C     C_3   0.496049 0.916378 0.537591 0.172950
C62   C     C_3   0.479531 0.930711 0.458324 0.181480
C63   C     C_3   0.996039 0.416375 0.537589 0.172973
C64   C     C_3   0.979521 0.430699 0.458322 0.181485
C65   C     C_R   0.761921 0.901165 0.571894 0.020921
C66   C     C_R   0.235990 0.891539 0.430681 0.012670
C67   C     C_R   0.261924 0.401147 0.571888 0.020927
C68   C     C_R   0.735997 0.391552 0.430677 0.012664
C69   C     C_R   0.821130 0.908708 0.528709 0.052576
C70   C     C_R   0.180713 0.942547 0.468410 0.030626
C71   C     C_R   0.321135 0.408730 0.528708 0.052580
C72   C     C_R   0.680729 0.442594 0.468402 0.030600
C73   C     C_R   0.816536 0.913529 0.455672 0.021735
C74   C     C_R   0.182156 0.952040 0.541076 0.018907
C75   C     C_R   0.316546 0.413548 0.455672 0.021759
C76   C     C_R   0.682171 0.452091 0.541067 0.018899
C77   C     C_R   0.692206 0.889830 0.465724 -0.172523
C78   C     C_R   0.287397 0.834592 0.544162 -0.131283
C79   C     C_R   0.192226 0.389717 0.465706 -0.172545
C80   C     C_R   0.787393 0.334588 0.544161 -0.131271
C81   C     C_R   0.697589 0.883774 0.539733 -0.185080
C82   C     C_R   0.286780 0.827835 0.469629 -0.152179
C83   C     C_R   0.197602 0.383682 0.539717 -0.185038
C84   C     C_R   0.786776 0.327825 0.469627 -0.152181
C85   C     C_3   0.879187 0.999138 0.530853 -0.269399
C86   C     C_3   0.144500 0.061640 0.458354 -0.264877
C87   C     C_3   0.379183 0.499173 0.530859 -0.269410
C88   C     C_3   0.644536 0.561704 0.458342 -0.264865
C89   C     C_R   0.741572 0.968111 0.148470 0.535165
C90   C     C_R   0.258322 0.967442 0.852104 0.527213
C91   C     C_R   0.241572 0.468111 0.148470 0.535162
C92   C     C_R   0.758322 0.467442 0.852104 0.527213
C93   C     C_3   0.876827 0.999920 0.450395 -0.279106
C94   C     C_3   0.145480 0.073175 0.538644 -0.261815
C95   C     C_3   0.376826 0.499960 0.450400 -0.279111
C96   C     C_3   0.645518 0.573249 0.538632 -0.261783
C97   C     C_R   0.751262 0.914984 0.423351 0.009404
C98   C     C_R   0.240210 0.911108 0.579348 0.013840
C99   C     C_R   0.251276 0.414953 0.423342 0.009400
C100  C     C_R   0.740214 0.411128 0.579343 0.013854
C101  C     C_R   0.727059 0.372577 0.354849 0.553893
C102  C     C_R   0.271993 0.376235 0.646570 0.554077
C103  C     C_R   0.227057 0.872574 0.354851 0.553894
C104  C     C_R   0.771991 0.876240 0.646572 0.554075
C105  C     C_R   0.532922 0.157270 0.354301 0.550539
C106  C     C_R   0.469996 0.156236 0.647846 0.563606
C107  C     C_R   0.032919 0.657271 0.354300 0.550548
C108  C     C_R   0.969996 0.656236 0.647847 0.563591
C109  C     C_R   0.741303 0.970394 0.353996 0.547978
C110  C     C_R   0.257385 0.969118 0.646789 0.554245
C111  C     C_R   0.241306 0.470388 0.353993 0.547984
C112  C     C_R   0.757386 0.469122 0.646788 0.554241
C113  C     C_R   0.500991 0.166450 0.923431 0.003722
C114  C     C_R   0.505723 0.163264 0.072986 0.000186
C115  C     C_R   0.000990 0.666450 0.923431 0.003723
C116  C     C_R   0.005722 0.663264 0.072986 0.000187
C117  C     C_R   0.501539 0.278664 0.961389 0.028455
C118  C     C_R   0.497529 0.276719 0.036902 0.018658
C119  C     C_R   0.001539 0.778663 0.961390 0.028454
C120  C     C_R   0.997528 0.776718 0.036902 0.018657
C121  C     C_R   0.510291 0.054849 0.033280 -0.158132
C122  C     C_R   0.510928 0.057095 0.960169 -0.162222
C123  C     C_R   0.010291 0.554848 0.033280 -0.158132
C124  C     C_R   0.010927 0.557095 0.960169 -0.162222
Cr1   Cr    Cr6+3 0.772010 0.169670 0.250090 0.994857
Cr2   Cr    Cr6+3 0.227990 0.169670 0.749910 0.992847
Cr3   Cr    Cr6+3 0.272010 0.669670 0.250090 0.994874
Cr4   Cr    Cr6+3 0.727990 0.669670 0.749910 0.992847
Cr5   Cr    Cr6+3 0.615000 0.323260 0.249260 0.988354
Cr6   Cr    Cr6+3 0.385000 0.323260 0.750740 0.990890
Cr7   Cr    Cr6+3 0.115000 0.823260 0.249260 0.988350
Cr8   Cr    Cr6+3 0.885000 0.823260 0.750740 0.990888
Cr9   Cr    Cr6+3 0.616710 0.010760 0.250840 1.035248
Cr10  Cr    Cr6+3 0.383290 0.010760 0.749160 1.005893
Cr11  Cr    Cr6+3 0.116710 0.510760 0.250840 1.035240
Cr12  Cr    Cr6+3 0.883290 0.510760 0.749160 1.005898
H1    H     H_    0.516072 0.966576 0.058653 0.136033
H2    H     H_    0.514893 0.970886 0.932198 0.138426
H3    H     H_    0.016072 0.466576 0.058653 0.136033
H4    H     H_    0.014892 0.470886 0.932198 0.138426
H5    H     H_    0.533294 0.359496 0.442158 0.129563
H6    H     H_    0.521705 0.355556 0.573585 0.114872
H7    H     H_    0.033299 0.859491 0.442157 0.129563
H8    H     H_    0.021717 0.855550 0.573585 0.114868
H9    H     H_    0.543051 0.858349 0.544920 0.097704
H10   H     H_    0.423211 0.932176 0.444339 0.122946
H11   H     H_    0.043050 0.358369 0.544922 0.097712
H12   H     H_    0.923201 0.432131 0.444335 0.122924
H13   H     H_    0.641254 0.886639 0.442607 0.206854
H14   H     H_    0.326673 0.787136 0.573553 0.162755
H15   H     H_    0.141280 0.386432 0.442579 0.206845
H16   H     H_    0.826665 0.287117 0.573555 0.162749
H17   H     H_    0.652109 0.868491 0.572324 0.109449
H18   H     H_    0.326785 0.776804 0.442663 0.117821
H19   H     H_    0.152124 0.368342 0.572301 0.109444
H20   H     H_    0.826773 0.276767 0.442665 0.117834
H21   H     H_    0.927471 0.960796 0.552855 0.140516
H22   H     H_    0.091394 0.049837 0.436528 0.127097
H23   H     H_    0.427469 0.460841 0.552862 0.140503
H24   H     H_    0.591428 0.549918 0.436518 0.127115
H25   H     H_    0.863033 0.087226 0.555106 0.126866
H26   H     H_    0.177432 0.130624 0.430540 0.149988
H27   H     H_    0.363021 0.587254 0.555113 0.126865
H28   H     H_    0.677477 0.630671 0.430525 0.150002
H29   H     H_    0.863724 0.090668 0.428646 0.151391
H30   H     H_    0.178801 0.149299 0.557110 0.177013
H31   H     H_    0.363711 0.590701 0.428651 0.151401
H32   H     H_    0.678854 0.649358 0.557095 0.177022
H33   H     H_    0.922801 0.956475 0.425053 0.125195
H34   H     H_    0.092759 0.069140 0.563132 0.117024
H35   H     H_    0.422807 0.456535 0.425060 0.125183
H36   H     H_    0.592795 0.569247 0.563121 0.117033
H37   H     H_    0.519799 0.398370 0.870010 0.133231
H38   H     H_    0.476523 0.391786 0.129854 0.134556
H39   H     H_    0.019798 0.898370 0.870011 0.133231
H40   H     H_    0.976523 0.891786 0.129855 0.134555
H41   H     H_    0.015134 0.087136 0.936975 0.107785
H42   H     H_    0.989138 0.085759 0.066409 0.108226
H43   H     H_    0.515133 0.587137 0.936974 0.107785
H44   H     H_    0.489137 0.585759 0.066408 0.108228
H45   H     H_    0.860280 0.974535 0.076042 0.149798
H46   H     H_    0.136174 0.956158 0.919660 0.146482
H47   H     H_    0.360280 0.474535 0.076042 0.149799
H48   H     H_    0.636175 0.456163 0.919661 0.146482
H49   H     H_    0.876805 0.927196 0.951772 0.166681
H50   H     H_    0.118220 0.903793 0.044476 0.165825
H51   H     H_    0.376805 0.427196 0.951772 0.166682
H52   H     H_    0.618221 0.403800 0.044477 0.165824
H53   H     H_    0.184875 0.157797 0.957237 0.157030
H54   H     H_    0.883861 0.243637 0.062889 0.140644
H55   H     H_    0.684873 0.657800 0.957235 0.157030
H56   H     H_    0.383861 0.743643 0.062891 0.140645
H57   H     H_    0.610770 0.761929 0.934895 0.117022
H58   H     H_    0.362548 0.907918 0.081229 0.134501
H59   H     H_    0.110771 0.261923 0.934896 0.117022
H60   H     H_    0.862549 0.407913 0.081229 0.134499
H61   H     H_    0.592998 0.806546 0.058497 0.136039
H62   H     H_    0.380262 0.958957 0.958002 0.163283
H63   H     H_    0.092998 0.306544 0.058497 0.136039
H64   H     H_    0.880262 0.458953 0.958001 0.163283
O1    O     O_R   0.787520 0.042810 0.170440 -0.537495
O2    O     O_R   0.212480 0.042810 0.829560 -0.541593
O3    O     O_R   0.287520 0.542810 0.170440 -0.537495
O4    O     O_R   0.712480 0.542810 0.829560 -0.541592
O5    O     O_R   0.556610 0.252880 0.323980 -0.516507
O6    O     O_R   0.443390 0.252880 0.676020 -0.511508
O7    O     O_R   0.056610 0.752880 0.323980 -0.516513
O8    O     O_R   0.943390 0.752880 0.676020 -0.511504
O9    O     O_R   0.545950 0.051210 0.330860 -0.455741
O10   O     O_R   0.454050 0.051210 0.669140 -0.467440
O11   O     O_R   0.045950 0.551210 0.330860 -0.455728
O12   O     O_R   0.954050 0.551210 0.669140 -0.467452
O13   O     O_R   0.681390 0.959480 0.325510 -0.493882
O14   O     O_R   0.318610 0.959480 0.674490 -0.473846
O15   O     O_R   0.181390 0.459480 0.325510 -0.493873
O16   O     O_R   0.818610 0.459480 0.674490 -0.473836
O17   O     O_3   0.667900 0.167900 0.250060 -0.267565
O18   O     O_3   0.332100 0.167900 0.749940 -0.260829
O19   O     O_3   0.167900 0.667900 0.250060 -0.267563
O20   O     O_3   0.832100 0.667900 0.749940 -0.260830
O21   O     O_R   0.765640 0.292100 0.175020 -0.497365
O22   O     O_R   0.234360 0.292100 0.824980 -0.496914
O23   O     O_R   0.265640 0.792100 0.175020 -0.497362
O24   O     O_R   0.734360 0.792100 0.824980 -0.496915
O25   O     O_R   0.670190 0.408840 0.168540 -0.535200
O26   O     O_R   0.329810 0.408840 0.831460 -0.522916
O27   O     O_R   0.170190 0.908840 0.168540 -0.535201
O28   O     O_R   0.829810 0.908840 0.831460 -0.522918
O29   O     O_R   0.556620 0.251410 0.175160 -0.527033
O30   O     O_R   0.443380 0.251410 0.824840 -0.527429
O31   O     O_R   0.056620 0.751410 0.175160 -0.527035
O32   O     O_R   0.943380 0.751410 0.824840 -0.527429
O33   O     O_R   0.545960 0.049620 0.170320 -0.523295
O34   O     O_R   0.454040 0.049620 0.829680 -0.535940
O35   O     O_R   0.045960 0.549620 0.170320 -0.523300
O36   O     O_R   0.954040 0.549620 0.829680 -0.535938
O37   O     O_R   0.681390 0.958010 0.176690 -0.505231
O38   O     O_R   0.318610 0.958010 0.823310 -0.508362
O39   O     O_R   0.181390 0.458010 0.176690 -0.505235
O40   O     O_R   0.818610 0.458010 0.823310 -0.508362
O41   O     O_R   0.787510 0.044390 0.330970 -0.530174
O42   O     O_R   0.212490 0.044390 0.669030 -0.530024
O43   O     O_R   0.287510 0.544390 0.330970 -0.530172
O44   O     O_R   0.712490 0.544390 0.669030 -0.530022
O45   O     O_R   0.765630 0.293570 0.323840 -0.506790
O46   O     O_R   0.234370 0.293570 0.676160 -0.505393
O47   O     O_R   0.265630 0.793570 0.323840 -0.506780
O48   O     O_R   0.734370 0.793570 0.676160 -0.505395
O49   O     O_R   0.670190 0.410420 0.329080 -0.516303
O50   O     O_R   0.329810 0.410420 0.670920 -0.519062
O51   O     O_R   0.170190 0.910420 0.329080 -0.516307
O52   O     O_R   0.829810 0.910420 0.670920 -0.519064
O53   O     O_3   0.937309 0.383227 0.578303 -0.558809
C125  C     C_3   0.955760 0.289223 0.626671 -0.109311
H65   H     H_    0.999749 0.317624 0.661438 0.118394
H66   H     H_    0.969306 0.203715 0.597621 0.074591
H67   H     H_    0.910909 0.269046 0.662112 0.136352
O54   O     O_3   0.022297 0.358955 0.413806 -0.576143
C126  C     C_3   0.989558 0.245717 0.401262 -0.144284
H68   H     H_    0.939313 0.258147 0.372926 0.117280
H69   H     H_    0.981817 0.194333 0.451902 0.110637
H70   H     H_    0.023571 0.190222 0.366094 0.134178
O55   O     O_3   0.437316 0.883245 0.578302 -0.558795
C127  C     C_3   0.455758 0.789234 0.626673 -0.109310
H71   H     H_    0.499754 0.817617 0.661436 0.118377
H72   H     H_    0.469287 0.703715 0.597623 0.074577
H73   H     H_    0.410908 0.769081 0.662118 0.136368
O56   O     O_3   0.522292 0.858949 0.413803 -0.576146
C128  C     C_3   0.489557 0.745705 0.401295 -0.144259
H74   H     H_    0.439289 0.758111 0.372997 0.117256
H75   H     H_    0.481860 0.694333 0.451944 0.110651
H76   H     H_    0.523550 0.690216 0.366104 0.134197
C129  C     C_3   0.670976 0.673932 0.097295 -0.386048
H77   H     H_    0.632170 0.599014 0.096892 0.159021
H78   H     H_    0.722793 0.637625 0.081483 0.152105
H79   H     H_    0.674044 0.710206 0.152409 0.156748
C130  C     C_3   0.415576 0.772034 0.927322 -0.401195
H80   H     H_    0.468512 0.777947 0.950267 0.102803
H81   H     H_    0.396389 0.676269 0.932150 0.154260
H82   H     H_    0.418213 0.796945 0.870036 0.162862
C131  C     C_3   0.170977 0.173931 0.097297 -0.386049
H83   H     H_    0.132171 0.099014 0.096894 0.159024
H84   H     H_    0.222794 0.137624 0.081485 0.152105
H85   H     H_    0.174045 0.210207 0.152410 0.156746
C132  C     C_3   0.915574 0.272030 0.927319 -0.401191
H86   H     H_    0.968512 0.277947 0.950260 0.102804
H87   H     H_    0.896389 0.176263 0.932151 0.154259
H88   H     H_    0.918206 0.296937 0.870033 0.162863

loop_
_geom_bond_atom_site_label_1
_geom_bond_atom_site_label_2
_ccdc_geom_bond_type
Cr10  O10   S    
Cr2   O46   S    
C102  O46   A    
C73   C93   S    
Cr4   O24   S    
C75   C95   S    
Cr2   O2    S    
C131  H85   S    
C45   O29   A    
C79   C99   A    
C16   C20   A    
C111  O15   A    
C22   C38   S    
C129  H79   S    
C23   C43   A    
C1    O21   A    
C125  H66   S    
C113  C122  A    
C25   H45   S    
C70   C74   A    
C96   H32   S    
C107  O7    A    
C44   C92   S    
C34   H58   S    
C59   C60   A    
Cr10  O38   S    
C47   O35   A    
C25   C29   A    
C47   C116  S    
Cr5   O49   S    
C90   O38   A    
C27   C31   A    
C7    C119  A    
C28   C32   A    
C68   C101  S    
C25   C41   A    
C6    H38   S    
C28   C44   A    
C103  O47   A    
Cr4   O48   S    
C19   C23   A    
C66   C82   A    
C110  O42   A    
C68   C72   A    
C93   H33   S    
C26   H46   S    
C128  H75   S    
Cr4   O44   S    
C11   H43   S    
C9    H41   S    
C2    O26   A    
C111  O43   A    
C50   C57   A    
C66   C103  S    
C126  H69   S    
C106  O6    A    
C49   C106  S    
C76   C100  A    
C33   H55   S    
C103  O51   A    
C34   H56   S    
C132  H87   S    
C19   C35   S    
C76   C96   S    
C84   H20   S    
C66   C70   A    
C49   C53   A    
C87   H23   S    
C51   C55   A    
C88   H24   S    
C43   C91   S    
C112  O44   A    
Cr6   O26   S    
C8    C10   A    
C5    C117  A    
C42   C90   S    
C94   H34   S    
Cr2   O18   S    
C90   O2    A    
C106  O10   A    
C41   C89   S    
C67   C83   A    
C104  O52   A    
C116  C123  A    
Cr9   O9    S    
C108  O8    A    
Cr7   O7    S    
C123  C124  A    
C74   C98   A    
C53   C54   A    
C36   H54   S    
C46   O34   A    
C110  O14   A    
O53   C125  S    
C83   H19   S    
C123  H3    S    
C81   H17   S    
C121  H1    S    
Cr6   O18   S    
C62   O56   S    
Cr12  O12   S    
C53   C61   S    
C45   C114  S    
C127  H71   S    
C87   C95   S    
Cr2   O42   S    
C50   C105  S    
C38   H62   S    
C77   C97   A    
C9    C10   A    
Cr4   O20   S    
C59   H7    S    
C130  H80   S    
C64   H12   S    
Cr9   O37   S    
C63   H11   S    
C108  O12   A    
Cr7   O51   S    
C27   H47   S    
Cr3   O43   S    
C61   O55   S    
C125  H67   S    
C88   H28   S    
C116  C120  A    
Cr8   O20   S    
C36   H60   S    
Cr6   O6    S    
Cr7   O27   S    
C97   C109  S    
C38   C130  S    
C99   C111  S    
C75   C99   A    
Cr10  O34   S    
C78   H14   S    
C114  C118  A    
C113  C117  A    
C12   H44   S    
C26   C30   A    
C115  C119  A    
C31   H51   S    
C69   C85   S    
C26   C42   A    
Cr7   O31   S    
C39   H63   S    
C92   O40   A    
C3    O23   A    
C46   C113  S    
C18   C22   A    
C5    H37   S    
C101  O49   A    
C95   H31   S    
C8    H40   S    
C15   C31   A    
Cr1   O21   S    
C16   C32   A    
C13   C17   A    
O54   C126  S    
C28   H48   S    
C117  C118  A    
C57   C58   A    
C95   H35   S    
C127  H73   S    
Cr12  O36   S    
C129  H78   S    
C29   H49   S    
C112  O16   A    
C61   C62   S    
C63   C64   S    
C62   H10   S    
C130  H82   S    
Cr5   O25   S    
C51   C60   A    
Cr11  O11   S    
C55   C56   A    
C88   C96   S    
C98   C110  S    
C85   H25   S    
C74   C94   S    
Cr1   O45   S    
C80   C84   A    
C101  O45   A    
C94   H30   S    
Cr3   O19   S    
O55   C127  S    
C15   C19   A    
Cr1   O1    S    
C50   C54   A    
C85   H21   S    
C13   C29   A    
C45   O33   A    
C5    C11   A    
Cr8   O28   S    
C6    C12   A    
C107  O11   A    
Cr6   O30   S    
C40   C132  S    
C2    O22   A    
C105  O9    A    
C80   H16   S    
Cr4   O4    S    
C61   H9    S    
Cr5   O17   S    
C114  C121  A    
C52   C107  S    
C104  O48   A    
C69   C73   A    
C92   O4    A    
C35   H59   S    
C109  O41   A    
C33   H57   S    
C35   H53   S    
C102  O50   A    
C128  H74   S    
C46   O30   A    
C17   C33   S    
C68   C84   A    
C89   O37   A    
C86   H22   S    
C122  H2    S    
C77   H13   S    
C54   C62   S    
Cr10  O18   S    
C33   C37   S    
C35   C39   S    
C132  H86   S    
Cr5   O5    S    
C58   H6    S    
C65   C81   A    
C77   C81   A    
C1    C16   S    
Cr9   O33   S    
C2    C15   S    
C121  C122  A    
C3    C14   S    
C21   C41   A    
C100  C112  S    
C24   C44   A    
Cr11  O35   S    
C131  H84   S    
C3    O27   A    
C1    O25   A    
C115  C124  A    
C124  H4    S    
C119  C120  A    
C105  O5    A    
Cr12  O20   S    
C40   H64   S    
Cr10  O14   S    
C57   H5    S    
C60   H8    S    
C79   C83   A    
C65   C69   A    
C67   C71   A    
C4    O28   A    
C17   C21   A    
C20   C36   S    
C27   C43   A    
C21   C37   S    
O56   C128  S    
C127  H72   S    
C128  H76   S    
Cr3   O3    S    
C91   O3    A    
Cr1   O17   S    
C87   H27   S    
C14   C18   A    
C72   C76   A    
C126  H70   S    
C63   O53   S    
C73   C97   A    
C125  H65   S    
C30   H50   S    
C132  H88   S    
C109  O13   A    
C47   O31   A    
Cr5   O29   S    
Cr7   O19   S    
C4    C13   S    
C78   C82   A    
C86   C94   S    
C37   C129  S    
Cr11  O15   S    
C20   C24   A    
C51   C108  S    
C7    H39   S    
C78   C98   A    
Cr1   O41   S    
C86   H26   S    
C37   H61   S    
Cr3   O23   S    
C93   H29   S    
C80   C100  A    
C85   C93   S    
C14   C30   A    
Cr8   O32   S    
C72   C88   S    
C64   O54   S    
Cr6   O50   S    
C32   H52   S    
C10   H42   S    
C36   C40   S    
C131  H83   S    
C4    O24   A    
Cr9   O17   S    
C49   C58   A    
C55   C63   S    
C48   O32   A    
C52   C59   A    
Cr11  O19   S    
C56   C64   S    
C129  H77   S    
C18   C34   S    
C48   O36   A    
C48   C115  S    
Cr8   O8    S    
C130  H81   S    
C71   C87   S    
C126  H68   S    
C70   C86   S    
Cr8   O52   S    
C79   H15   S    
C7    C9    A    
C8    C120  A    
C34   C38   S    
C11   C12   A    
Cr2   O22   S    
C89   O1    A    
Cr9   O13   S    
Cr12  O40   S    
C71   C75   A    
C22   C42   A    
C39   C131  S    
C23   C39   S    
C24   C40   S    
Cr11  O39   S    
C82   H18   S    
Cr3   O47   S    
C96   H36   S    
C91   O39   A    
C65   C104  S    
C6    C118  A    
C52   C56   A    
C67   C102  S    
Cr12  O16   S    
