data_mof_unit_29189.cif
_audit_creation_date              2012-12-11T14:04:22-0500
_audit_creation_method            fapswitch 2.2
_symmetry_space_group_name_H-M    P1
_symmetry_Int_Tables_number       1
_space_group_crystal_system       triclinic
_cell_length_a                    19.194489
_cell_length_b                    10.898186
_cell_length_c                    18.950053
_cell_angle_alpha                 90.04841
_cell_angle_beta                  89.959962
_cell_angle_gamma                 89.869637
_cell_volume                      3964.05629713

loop_
_atom_site_label
_atom_site_type_symbol
_atom_type_description
_atom_site_fract_x
_atom_site_fract_y
_atom_site_fract_z
_atom_type_partial_charge
C1    C     C_R   0.240157 0.463411 0.649350 0.552013
C2    C     C_R   0.043659 0.647431 0.561220 -0.041708
C3    C     C_R   0.461566 0.156553 0.437983 -0.035226
C4    C     C_R   0.543668 0.147435 0.561219 -0.042092
C5    C     C_R   0.973395 0.885072 0.441304 -0.079855
C6    C     C_R   0.079938 0.857470 0.537616 -0.070646
C7    C     C_R   0.473407 0.385073 0.441298 -0.080694
C8    C     C_R   0.579945 0.357473 0.537613 -0.070630
C9    C     C_R   0.013650 0.986253 0.460158 -0.121181
C10   C     C_R   0.069260 0.971151 0.506101 -0.104668
C11   C     C_R   0.513662 0.486253 0.460150 -0.122025
C12   C     C_R   0.759078 0.460838 0.348946 0.536937
C13   C     C_R   0.569271 0.471152 0.506095 -0.104543
C14   C     C_R   0.036523 0.757705 0.523557 0.006963
C15   C     C_R   0.989186 0.766329 0.467209 0.015939
C16   C     C_R   0.536530 0.257708 0.523555 0.006851
C17   C     C_R   0.489195 0.266331 0.467205 0.015778
C18   C     C_R   0.019583 0.536706 0.529978 0.031604
C19   C     C_R   0.971724 0.543391 0.474310 0.024722
C20   C     C_R   0.519598 0.036710 0.529975 0.031194
C21   C     C_R   0.471735 0.043392 0.474309 0.024830
C22   C     C_R   0.041162 0.418427 0.553327 -0.074595
C23   C     C_R   0.740159 0.963405 0.649354 0.545627
C24   C     C_R   0.935906 0.434875 0.455626 -0.077653
C25   C     C_R   0.541183 0.918436 0.553322 -0.075031
C26   C     C_R   0.435916 0.934876 0.455630 -0.077703
C27   C     C_R   0.007294 0.312552 0.531477 -0.118433
C28   C     C_R   0.952561 0.321474 0.484477 -0.115658
C29   C     C_R   0.507313 0.812559 0.531478 -0.118635
C30   C     C_R   0.452573 0.821477 0.484485 -0.116007
C31   C     C_2   0.255181 0.927761 0.916366 0.174147
C32   C     C_2   0.758814 0.908549 0.075204 0.194895
C33   C     C_2   0.740162 0.404738 0.926150 0.203616
C34   C     C_R   0.259090 0.960877 0.348972 0.544426
C35   C     C_2   0.245599 0.424558 0.082440 0.176491
C36   C     C_2   0.252407 0.929426 0.076542 0.389694
C37   C     C_2   0.749427 0.898838 0.915174 0.362212
C38   C     C_2   0.749224 0.393877 0.086204 0.360794
C39   C     C_2   0.249146 0.427087 0.922493 0.394778
C40   C     C_R   0.231405 0.888524 0.657898 0.566173
C41   C     C_R   0.771264 0.880711 0.348132 0.564508
C42   C     C_R   0.731392 0.388485 0.657864 0.566645
C43   C     C_R   0.271276 0.380677 0.348155 0.567805
C44   C     C_2   0.229120 0.015597 0.031253 -0.080198
C45   C     C_2   0.264769 0.889682 0.538587 -0.120024
C46   C     C_2   0.805405 0.922053 0.954430 -0.103871
C47   C     C_2   0.692569 0.415628 0.047471 -0.134661
C48   C     C_2   0.273682 0.512023 0.967919 -0.095886
C49   C     C_2   0.211954 0.989519 0.958576 -0.043164
C50   C     C_2   0.808904 0.883145 0.027425 -0.071319
C51   C     C_2   0.689177 0.380443 0.973500 -0.062156
C52   C     C_2   0.289226 0.486968 0.041061 -0.051793
C53   C     C_2   0.991047 0.665688 0.916539 -0.121215
C54   C     C_2   0.986558 0.657916 0.073024 -0.139746
C55   C     C_2   0.512813 0.158212 0.926627 -0.133932
C56   C     C_2   0.723053 0.873658 0.462764 -0.120406
C57   C     C_2   0.507596 0.164473 0.082904 -0.121636
C58   C     C_2   0.960047 0.572346 0.029454 -0.181525
C59   C     C_2   0.976281 0.566118 0.954481 -0.170396
C60   C     C_2   0.520512 0.064600 0.044340 -0.165661
C61   C     C_2   0.538644 0.071795 0.970071 -0.166905
C62   C     C_R   0.062527 0.648776 0.637471 0.534244
C63   C     C_R   0.939340 0.651000 0.362936 0.530627
C64   C     C_R   0.562530 0.148777 0.637472 0.534630
C65   C     C_R   0.439344 0.151000 0.362936 0.529157
C66   C     C_R   0.238762 0.467068 0.850825 0.576123
C67   C     C_2   0.764749 0.389610 0.538552 -0.120387
C68   C     C_R   0.761096 0.463408 0.150364 0.553250
C69   C     C_R   0.738626 0.964681 0.849984 0.578307
C70   C     C_R   0.261561 0.967562 0.148807 0.577256
C71   C     C_R   0.227733 0.874336 0.852107 0.545743
C72   C     C_R   0.773526 0.872838 0.147040 0.541965
C73   C     C_R   0.726044 0.371645 0.853678 0.542991
C74   C     C_R   0.272339 0.373783 0.147688 0.552291
C75   C     C_R   0.028247 0.653114 0.850111 0.566079
C76   C     C_R   0.967385 0.651859 0.147038 0.557902
C77   C     C_R   0.532477 0.152061 0.852830 0.557263
C78   C     C_2   0.223022 0.373609 0.462771 -0.120813
C79   C     C_R   0.471400 0.152800 0.149727 0.567015
C80   C     C_2   0.258327 0.953194 0.597893 0.373420
C81   C     C_2   0.744147 0.942356 0.409198 0.370461
C82   C     C_2   0.758307 0.453138 0.597851 0.373434
C83   C     C_2   0.244165 0.442312 0.409227 0.372457
C84   C     C_2   0.246669 0.897747 0.413915 -0.111749
C85   C     C_2   0.752191 0.899273 0.584300 -0.065624
C86   C     C_2   0.746651 0.397689 0.413879 -0.112249
C87   C     C_2   0.252189 0.399272 0.584297 -0.066100
C88   C     C_2   0.267718 0.953551 0.472167 -0.146444
C89   C     C_R   0.961557 0.656552 0.437985 -0.035777
C90   C     C_2   0.712536 0.931236 0.530040 -0.116563
C91   C     C_2   0.767708 0.453475 0.472133 -0.144617
C92   C     C_2   0.212501 0.431172 0.530050 -0.117743
C93   C     C_3   0.376232 0.977695 0.905235 -0.281023
C94   C     C_3   0.688748 0.087461 0.101425 -0.290228
C95   C     C_3   0.796327 0.593310 0.963836 -0.268302
C96   C     C_3   0.126654 0.488186 0.063589 -0.277805
Cr1   Cr    Cr6+3 0.113970 0.508630 0.747920 1.042673
Cr2   Cr    Cr6+3 0.887700 0.820070 0.250200 1.031500
Cr3   Cr    Cr6+3 0.612300 0.320070 0.749800 1.044558
Cr4   Cr    Cr6+3 0.387700 0.320070 0.250200 1.027623
Cr5   Cr    Cr6+3 0.886030 0.508630 0.252080 1.044658
Cr6   Cr    Cr6+3 0.613970 0.008630 0.747920 1.044671
Cr7   Cr    Cr6+3 0.386030 0.008630 0.252080 1.043172
Cr8   Cr    Cr6+3 0.269200 0.666740 0.749850 1.021447
Cr9   Cr    Cr6+3 0.730800 0.666740 0.250150 1.018755
Cr10  Cr    Cr6+3 0.769200 0.166740 0.749850 1.032937
Cr11  Cr    Cr6+3 0.230800 0.166740 0.250150 1.019737
Cr12  Cr    Cr6+3 0.112300 0.820070 0.749800 1.039407
F1    F     F_    0.265412 0.811357 0.057158 -0.662009
F2    F     F_    0.696864 0.826894 0.939779 -0.672541
F3    F     F_    0.801279 0.320232 0.061462 -0.630092
F4    F     F_    0.236008 0.308842 0.941080 -0.649362
F5    F     F_    0.257747 0.078160 0.597959 -0.668894
F6    F     F_    0.753611 0.065539 0.416489 -0.670030
F7    F     F_    0.757724 0.578105 0.597905 -0.669582
F8    F     F_    0.253677 0.565480 0.416551 -0.667997
H1    H     H_    0.287327 0.047303 0.470339 0.168549
H2    H     H_    0.980066 0.474996 0.931471 0.171472
H3    H     H_    0.515324 0.973267 0.066650 0.168658
H4    H     H_    0.569603 0.996169 0.949454 0.201932
H5    H     H_    0.017090 0.734694 0.053868 0.108288
H6    H     H_    0.984076 0.757065 0.938442 0.104106
H7    H     H_    0.516007 0.255772 0.061561 0.101458
H8    H     H_    0.481805 0.234806 0.945680 0.106772
H9    H     H_    0.258040 0.790363 0.538455 0.116189
H10   H     H_    0.724186 0.773876 0.459841 0.110962
H11   H     H_    0.758018 0.290292 0.538425 0.116039
H12   H     H_    0.677652 0.009873 0.533385 0.143294
H13   H     H_    0.224114 0.273828 0.459833 0.110628
H14   H     H_    0.226228 0.804914 0.413910 0.172944
H15   H     H_    0.793531 0.831382 0.579736 0.151470
H16   H     H_    0.726190 0.304871 0.413865 0.171259
H17   H     H_    0.293557 0.331435 0.579721 0.152244
H18   H     H_    0.003155 0.075092 0.437121 0.118156
H19   H     H_    0.103874 0.046923 0.517450 0.147179
H20   H     H_    0.503169 0.575092 0.437111 0.117693
H21   H     H_    0.603885 0.546923 0.517444 0.147229
H22   H     H_    0.929886 0.901891 0.407276 0.175343
H23   H     H_    0.787330 0.547219 0.470308 0.168886
H24   H     H_    0.125441 0.842210 0.568043 0.136353
H25   H     H_    0.429897 0.401894 0.407270 0.175467
H26   H     H_    0.625444 0.342211 0.568043 0.135887
H27   H     H_    0.894483 0.436520 0.418773 0.163272
H28   H     H_    0.083873 0.405749 0.589319 0.157722
H29   H     H_    0.394488 0.936518 0.418781 0.163187
H30   H     H_    0.583899 0.905768 0.589309 0.157911
H31   H     H_    0.022684 0.224145 0.552256 0.121153
H32   H     H_    0.923886 0.240449 0.468936 0.136037
H33   H     H_    0.522705 0.724154 0.552258 0.121519
H34   H     H_    0.177598 0.509782 0.533399 0.143223
H35   H     H_    0.423898 0.740450 0.468950 0.136128
H36   H     H_    0.216643 0.107727 0.049355 0.130899
H37   H     H_    0.849249 0.973711 0.933797 0.111986
H38   H     H_    0.648877 0.467647 0.068461 0.102579
H39   H     H_    0.286490 0.604040 0.950180 0.123884
H40   H     H_    0.337329 0.808384 0.932730 0.280155
H41   H     H_    0.428604 0.946683 0.922052 0.163834
H42   H     H_    0.368225 0.074460 0.921947 0.179066
H43   H     H_    0.373430 0.971091 0.846750 0.153043
H44   H     H_    0.654127 0.926450 0.055245 0.283194
H45   H     H_    0.160497 0.017617 0.940920 0.131644
H46   H     H_    0.663495 0.062764 0.152247 0.132000
H47   H     H_    0.655326 0.153825 0.072865 0.161498
H48   H     H_    0.739379 0.132652 0.112380 0.212702
H49   H     H_    0.843978 0.449276 0.909485 0.252991
H50   H     H_    0.819406 0.607679 0.016745 0.154555
H51   H     H_    0.740923 0.622241 0.966574 0.214691
H52   H     H_    0.823684 0.652445 0.925016 0.140182
H53   H     H_    0.158911 0.309087 0.077636 0.272056
H54   H     H_    0.076954 0.453012 0.042345 0.166059
H55   H     H_    0.142862 0.568906 0.031855 0.174854
H56   H     H_    0.857199 0.838999 0.043655 0.096179
H57   H     H_    0.118918 0.515726 0.119544 0.152079
H58   H     H_    0.640064 0.341171 0.956038 0.104496
H59   H     H_    0.339469 0.518340 0.060222 0.134058
H60   H     H_    0.929805 0.496347 0.050343 0.208886
N1    N     N_2   0.324668 0.900005 0.937617 -0.470997
N2    N     N_2   0.698566 0.979063 0.058389 -0.486393
N3    N     N_2   0.803432 0.465433 0.944033 -0.472507
N4    N     N_2   0.177584 0.391420 0.058802 -0.465092
O1    O     O_R   0.043230 0.549300 0.667990 -0.512419
O2    O     O_R   0.832470 0.905110 0.169660 -0.519265
O3    O     O_R   0.667530 0.405110 0.830340 -0.522442
O4    O     O_R   0.332470 0.405110 0.169660 -0.523941
O5    O     O_R   0.054010 0.748440 0.822860 -0.494067
O6    O     O_R   0.945990 0.748440 0.177140 -0.489411
O7    O     O_R   0.554010 0.248440 0.822860 -0.490240
O8    O     O_R   0.445990 0.248440 0.177140 -0.493710
O9    O     O_3   0.165160 0.665150 0.749190 -0.285066
O10   O     O_3   0.834840 0.665150 0.250810 -0.283746
O11   O     O_3   0.665160 0.165150 0.749190 -0.289281
O12   O     O_R   0.956770 0.549300 0.332010 -0.503269
O13   O     O_3   0.334840 0.165150 0.250810 -0.280533
O14   O     O_R   0.178620 0.457600 0.674100 -0.529923
O15   O     O_R   0.821380 0.457600 0.325900 -0.532228
O16   O     O_R   0.678620 0.957600 0.674100 -0.532261
O17   O     O_R   0.321380 0.957600 0.325900 -0.530776
O18   O     O_R   0.284680 0.542100 0.669460 -0.495846
O19   O     O_R   0.715320 0.542100 0.330540 -0.501380
O20   O     O_R   0.784680 0.042100 0.669460 -0.499712
O21   O     O_R   0.215320 0.042100 0.330540 -0.498686
O22   O     O_R   0.262860 0.790390 0.676650 -0.529378
O23   O     O_R   0.543230 0.049300 0.667990 -0.511776
O24   O     O_R   0.737140 0.790390 0.323350 -0.531161
O25   O     O_R   0.762860 0.290390 0.676650 -0.529598
O26   O     O_R   0.237140 0.290390 0.323350 -0.530695
O27   O     O_R   0.167460 0.907030 0.670940 -0.524267
O28   O     O_R   0.832540 0.907030 0.329060 -0.520478
O29   O     O_R   0.667460 0.407030 0.670940 -0.524379
O30   O     O_R   0.332540 0.407030 0.329060 -0.519998
O31   O     O_R   0.053950 0.750220 0.675100 -0.482187
O32   O     O_R   0.946050 0.750220 0.324900 -0.501745
O33   O     O_R   0.553950 0.250220 0.675100 -0.479759
O34   O     O_R   0.456770 0.049300 0.332010 -0.506935
O35   O     O_R   0.446050 0.250220 0.324900 -0.505803
O36   O     O_R   0.043300 0.547370 0.827390 -0.503378
O37   O     O_R   0.956700 0.547370 0.172610 -0.502611
O38   O     O_R   0.543300 0.047370 0.827390 -0.507593
O39   O     O_R   0.456700 0.047370 0.172610 -0.503015
O40   O     O_R   0.178690 0.455820 0.821860 -0.475609
O41   O     O_R   0.821310 0.455820 0.178140 -0.463140
O42   O     O_R   0.678690 0.955820 0.821860 -0.459090
O43   O     O_R   0.321310 0.955820 0.178140 -0.475111
O44   O     O_R   0.284750 0.540170 0.828860 -0.555881
O45   O     O_R   0.262920 0.788600 0.824420 -0.513069
O46   O     O_R   0.715250 0.540170 0.171140 -0.549789
O47   O     O_R   0.784750 0.040170 0.828860 -0.546674
O48   O     O_R   0.215250 0.040170 0.171140 -0.557051
O49   O     O_R   0.737080 0.788600 0.175580 -0.497905
O50   O     O_R   0.762920 0.288600 0.824420 -0.495189
O51   O     O_R   0.237080 0.288600 0.175580 -0.511905
O52   O     O_R   0.167530 0.905110 0.830340 -0.524799

loop_
_geom_bond_atom_site_label_1
_geom_bond_atom_site_label_2
_ccdc_geom_bond_type
C44   C49   S    
C1    C87   S    
C21   C26   A    
Cr4   O35   S    
Cr2   O2    S    
C8    C13   A    
C37   C69   S    
C33   N3    S    
C43   C83   S    
C87   H17   S    
C68   O41   A    
C42   C82   S    
C7    H25   S    
C63   O32   A    
Cr2   O10   S    
Cr5   O12   S    
Cr2   O28   S    
C95   H52   S    
Cr10  O25   S    
Cr3   O7    S    
C53   C59   D    
C56   C81   D    
C32   C72   S    
C3    C65   S    
Cr4   O13   S    
C7    C11   A    
C44   H36   S    
C42   O25   A    
C27   C28   A    
C2    C18   A    
Cr4   O8    S    
C78   H13   S    
C70   O48   A    
C82   F7    S    
Cr11  O21   S    
Cr11  O51   S    
C86   C91   D    
C94   N2    S    
C14   C15   A    
C73   O3    A    
C68   O46   A    
C77   O38   A    
C57   H7    S    
C20   C25   A    
C24   H27   S    
Cr5   O41   S    
C63   O12   A    
C83   F8    S    
C75   O36   A    
C60   H3    S    
C18   C19   A    
Cr7   O17   S    
Cr4   O30   S    
C34   O21   A    
C93   H43   S    
C43   O30   A    
C57   C79   S    
Cr11  O26   S    
C66   O40   A    
Cr7   O43   S    
C1    O14   A    
C78   C83   D    
Cr5   O15   S    
C1    O18   A    
C45   H9    S    
Cr1   O9    S    
C7    C17   A    
C96   H55   S    
C23   O16   A    
C62   O31   A    
C40   C80   S    
C25   H30   S    
C56   H10   S    
C9    C10   A    
C94   H46   S    
H53   N4    S    
C49   H45   S    
C37   C46   D    
C9    H18   S    
C56   C90   S    
C91   H23   S    
C40   O27   A    
C36   F1    S    
C8    C16   A    
C96   H54   S    
C87   C92   D    
C43   O26   A    
C71   O45   A    
C32   N2    S    
C53   C75   S    
C34   C84   S    
Cr10  O11   S    
C31   C49   D    
Cr12  O27   S    
Cr4   O4    S    
C69   O47   A    
C73   O50   A    
C36   C70   S    
Cr6   O11   S    
C25   C29   A    
C28   H32   S    
C79   O8    A    
C24   C28   A    
C64   O33   A    
C5    H22   S    
C45   C88   S    
C10   H19   S    
C66   O44   A    
Cr5   O10   S    
C72   O49   A    
C93   N1    S    
C16   C17   A    
C57   C60   D    
C47   C51   S    
Cr3   O33   S    
C78   C92   S    
C58   C59   S    
Cr2   O32   S    
C23   O20   A    
Cr1   O36   S    
Cr10  O50   S    
C95   H51   S    
C60   C61   S    
C13   H21   S    
Cr1   O14   S    
C4    C16   A    
C51   H58   S    
Cr6   O23   S    
C5    C9    A    
C29   C30   A    
C19   C89   A    
C67   H11   S    
C15   C89   A    
C74   O4    A    
H40   N1    S    
Cr12  O5    S    
C79   O39   A    
C52   H59   S    
Cr9   O19   S    
C76   O37   A    
C71   O52   A    
C35   C74   S    
C41   C81   S    
Cr11  O48   S    
C63   C89   S    
C67   C91   S    
C70   O43   A    
C38   C47   D    
Cr1   O40   S    
Cr9   O46   S    
C96   N4    S    
C41   O24   A    
C93   H41   S    
C65   O34   A    
Cr7   O34   S    
C32   C50   D    
C37   F2    S    
C42   O29   A    
C69   O42   A    
C95   N3    S    
C39   F4    S    
C48   H39   S    
C38   C68   S    
C26   C30   A    
C59   H2    S    
C22   C27   A    
C55   C77   S    
C92   H34   S    
H49   N3    S    
C39   C66   S    
C54   C76   S    
Cr12  O9    S    
C36   C44   D    
Cr7   O39   S    
C95   H50   S    
C94   H48   S    
Cr11  O13   S    
Cr12  O31   S    
C76   O6    A    
Cr6   O42   S    
Cr10  O20   S    
Cr12  O52   S    
C33   C73   S    
C35   N4    S    
C31   N1    S    
C46   H37   S    
C46   C50   S    
C55   H8    S    
C20   C21   A    
C18   C22   A    
Cr3   O3    S    
Cr9   O10   S    
C54   H5    S    
C58   H60   S    
C84   C88   D    
C26   H29   S    
C40   O22   A    
C74   O51   A    
Cr9   O24   S    
Cr6   O16   S    
C6    C10   A    
C8    H26   S    
C85   C90   D    
Cr1   O1    S    
C47   H38   S    
C33   C51   D    
C4    C64   S    
C12   C86   S    
C53   H6    S    
C81   F6    S    
C41   O28   A    
Cr8   O22   S    
C19   C24   A    
C88   H1    S    
C72   O2    A    
C6    C14   A    
Cr2   O6    S    
C27   H31   S    
C11   H20   S    
C85   H15   S    
C62   O1    A    
Cr3   O11   S    
C11   C13   A    
C34   O17   A    
C86   H16   S    
C30   H35   S    
C64   O23   A    
C65   O35   A    
C77   O7    A    
Cr8   O9    S    
C55   C61   D    
C84   H14   S    
C12   O15   A    
C12   O19   A    
C3    C17   A    
C45   C80   D    
C6    H24   S    
C93   H42   S    
C2    C14   A    
Cr8   O18   S    
C5    C15   A    
C3    C21   A    
Cr6   O38   S    
C29   H33   S    
C4    C20   A    
Cr5   O37   S    
C48   C52   S    
C54   C58   D    
C80   F5    S    
C67   C82   D    
Cr8   O45   S    
C23   C85   S    
C22   H28   S    
C35   C52   D    
C90   H12   S    
Cr10  O47   S    
C50   H56   S    
C96   H57   S    
Cr7   O13   S    
C38   F3    S    
C2    C62   S    
C94   H47   S    
Cr8   O44   S    
C31   C71   S    
C75   O5    A    
Cr9   O49   S    
C39   C48   D    
C61   H4    S    
H44   N2    S    
Cr3   O29   S    
