data_mof_unit_50106.cif
_audit_creation_date              2013-03-05T15:51:50-0500
_audit_creation_method            fapswitch 2.2
_symmetry_space_group_name_H-M    P1
_symmetry_Int_Tables_number       1
_space_group_crystal_system       triclinic
_cell_length_a                    10.973047
_cell_length_b                    11.043806
_cell_length_c                    18.695831
_cell_angle_alpha                 90.785595
_cell_angle_beta                  89.703768
_cell_angle_gamma                 60.575207
_cell_volume                      1973.0049643

loop_
_atom_site_label
_atom_site_type_symbol
_atom_site_description
_atom_site_fract_x
_atom_site_fract_y
_atom_site_fract_z
_atom_type_partial_charge
O1    O     O_R   0.507380 0.255700 0.581440 -0.490944
O2    O     O_R   0.280320 0.527350 0.578930 -0.494009
C1    C     C_R   0.245253 0.643212 0.611790 0.581021
O3    O     O_R   0.260510 0.739590 0.584590 -0.496996
O4    O     O_R   0.532300 0.695080 0.573820 -0.468575
C2    C     C_R   0.655195 0.623877 0.599363 0.623450
O5    O     O_R   0.744840 0.503500 0.576370 -0.511967
O6    O     O_R   0.699120 0.276560 0.571960 -0.503836
C3    C     C_R   0.628201 0.229191 0.602563 0.599797
O7    O     O_R   0.498940 0.256500 0.419860 -0.436999
O8    O     O_R   0.272500 0.528080 0.429150 -0.494786
C4    C     C_R   0.227544 0.646408 0.399766 0.586732
O9    O     O_R   0.252060 0.740380 0.423010 -0.478766
O10   O     O_R   0.524480 0.695810 0.424040 -0.408994
C5    C     C_R   0.616511 0.589122 0.386002 0.503575
O11   O     O_R   0.736390 0.504290 0.414790 -0.493090
O12   O     O_R   0.691300 0.277290 0.422170 -0.480378
C6    C     C_R   0.579807 0.294132 0.388398 0.533164
Cr1   Cr    Cr6+3 0.392960 0.397920 0.502240 1.134303
Cr2   Cr    Cr6+3 0.398340 0.708480 0.501250 1.167502
Cr3   Cr    Cr6+3 0.708670 0.393570 0.496460 1.086490
O13   O     O_3   0.499990 0.499990 0.499980 -0.368847
C7    C     C_3   0.615352 0.838448 0.770748 0.094797
H1    H     H_    0.672911 0.896206 0.762431 0.200483
C8    C     C_3   0.571211 0.808616 0.697078 0.116309
H2    H     H_    0.470907 0.810313 0.706231 0.120933
H3    H     H_    0.901861 0.704753 0.773813 0.177092
C9    C     C_3   0.857248 0.635324 0.764462 -0.271983
C10   C     C_3   0.660960 0.593072 0.801158 -0.270218
C11   C     C_3   0.719048 0.695379 0.807149 -0.005875
H4    H     H_    0.730519 0.493977 0.828241 0.149428
H5    H     H_    0.557008 0.637192 0.828026 0.121629
C12   C     C_3   0.678018 0.657674 0.672474 0.002975
C13   C     C_3   0.834160 0.619638 0.684156 0.066827
C14   C     C_3   0.649364 0.561873 0.722081 -0.334368
H6    H     H_    0.545002 0.571504 0.712276 0.107101
H7    H     H_    0.727685 0.453539 0.710136 0.139007
H8    H     H_    0.931355 0.531262 0.785275 0.114867
H9    H     H_    0.902447 0.507294 0.670529 0.119878
C15   C     C_R   0.674533 0.170116 0.826451 0.030255
C16   C     C_R   0.757861 0.212010 0.788391 -0.009219
C17   C     C_R   0.753596 0.215050 0.714299 -0.044496
C18   C     C_R   0.567511 0.163184 0.714245 -0.134525
C19   C     C_R   0.567108 0.165331 0.787546 -0.178703
C20   C     C_3   0.907712 0.177876 0.786566 0.092028
C21   C     C_3   0.903919 0.173498 0.704978 -0.216911
C22   C     C_R   0.663951 0.183566 0.675454 0.074987
H10   H     H_    0.486445 0.151282 0.688407 0.208085
H11   H     H_    0.488125 0.148149 0.812446 0.213237
H12   H     H_    0.924713 0.262515 0.808479 0.099869
H13   H     H_    0.921028 0.254147 0.679426 0.108885
H14   H     H_    0.965555 0.067802 0.680350 0.206458
C23   C     C_R   0.199254 0.652963 0.839440 0.022702
C24   C     C_R   0.162825 0.571415 0.796720 0.007234
C25   C     C_R   0.169497 0.572731 0.722625 0.049583
C26   C     C_R   0.248880 0.739627 0.731176 -0.123918
C27   C     C_R   0.252335 0.729891 0.805698 -0.104080
C28   C     C_3   0.225438 0.417760 0.796947 -0.290901
C29   C     C_3   0.228047 0.420369 0.715939 -0.259839
C30   C     C_R   0.211702 0.657303 0.688271 0.059294
H15   H     H_    0.277044 0.810486 0.707041 0.147471
H16   H     H_    0.282209 0.793666 0.837019 0.164567
H17   H     H_    0.153704 0.383198 0.819031 0.158118
H18   H     H_    0.328604 0.371199 0.822602 0.137503
H19   H     H_    0.332831 0.373099 0.691387 0.156511
H20   H     H_    0.154384 0.391704 0.690390 0.158290
C31   C     C_R   0.649633 0.680585 0.168441 0.019726
C32   C     C_R   0.705092 0.723970 0.223793 -0.049940
C33   C     C_R   0.692770 0.696428 0.294407 0.111937
C34   C     C_R   0.549270 0.598123 0.258633 -0.090724
C35   C     C_R   0.562717 0.623753 0.186160 0.218289
C36   C     C_3   0.851017 0.696240 0.232926 -0.266732
C37   C     C_3   0.838074 0.665359 0.310707 0.076151
C38   C     C_R   0.624576 0.623113 0.312092 -0.016337
H21   H     H_    0.486191 0.551406 0.272642 0.110647
H22   H     H_    0.861028 0.790101 0.223970 0.206737
H23   H     H_    0.924452 0.602290 0.201715 0.143370
H24   H     H_    0.908454 0.555303 0.325474 0.150921
C39   C     C_R   0.623298 0.202834 0.165594 0.053972
C40   C     C_R   0.509436 0.212536 0.204448 -0.034529
C41   C     C_R   0.491096 0.248745 0.276014 -0.011012
C42   C     C_R   0.690029 0.286345 0.270138 -0.119275
C43   C     C_R   0.700076 0.260254 0.196178 -0.036182
C44   C     C_3   0.461316 0.108256 0.212262 -0.192149
C45   C     C_3   0.441152 0.146589 0.291456 0.146942
C46   C     C_R   0.590752 0.271288 0.311426 -0.008549
H25   H     H_    0.761032 0.315570 0.294895 0.150502
H26   H     H_    0.776310 0.271926 0.164933 0.192573
H27   H     H_    0.546618 0.000331 0.201865 0.154718
H28   H     H_    0.365377 0.137450 0.180994 0.191607
H29   H     H_    0.512359 0.059956 0.326125 0.218674
C47   C     C_R   0.172477 0.665177 0.176695 0.053185
C48   C     C_R   0.208079 0.754649 0.213894 0.026370
C49   C     C_R   0.218333 0.749446 0.286077 -0.039490
C50   C     C_R   0.187883 0.549220 0.287747 -0.152974
C51   C     C_R   0.181506 0.550532 0.213003 -0.160155
C52   C     C_3   0.170159 0.906575 0.215893 0.123973
C53   C     C_3   0.175798 0.899152 0.297238 0.121238
C54   C     C_R   0.195781 0.656011 0.325141 0.012193
H30   H     H_    0.179321 0.470188 0.316498 0.208472
H31   H     H_    0.165595 0.472632 0.185396 0.159492
H32   H     H_    0.251011 0.923804 0.189113 0.165807
H33   H     H_    0.073428 0.957704 0.326068 0.183315
O14   O     O_R   0.089400 0.825690 0.930570 -0.433107
O15   O     O_R   0.818460 0.054440 0.929850 -0.447867
C55   C     C_R   0.700235 0.105384 0.897095 0.552947
O16   O     O_R   0.606060 0.077150 0.915510 -0.518191
O17   O     O_R   0.646550 0.806680 0.917570 -0.453829
C56   C     C_R   0.751553 0.708771 0.882940 0.567716
O18   O     O_R   0.837170 0.593410 0.915250 -0.526515
O19   O     O_R   0.065200 0.635530 0.931570 -0.524917
C57   C     C_R   0.123548 0.702729 0.907709 0.556753
O20   O     O_R   0.068260 0.828890 0.091840 -0.459265
O21   O     O_R   0.798870 0.057410 0.079340 -0.439120
C58   C     C_R   0.670993 0.114012 0.101659 0.554610
O22   O     O_R   0.584930 0.080350 0.076780 -0.536755
O23   O     O_R   0.626960 0.809650 0.067060 -0.501227
C59   C     C_R   0.693005 0.690036 0.096160 0.525401
O24   O     O_R   0.816040 0.596610 0.076510 -0.503821
O25   O     O_R   0.045610 0.638500 0.081060 -0.524294
C60   C     C_R   0.097821 0.708560 0.110538 0.549545
Cr4   Cr    Cr6+3 0.937650 0.938540 0.007610 1.152108
Cr5   Cr    Cr6+3 0.625330 0.937370 0.994520 1.058553
Cr6   Cr    Cr6+3 0.937940 0.625230 0.001190 1.029713
O26   O     O_3   0.833640 0.833710 0.001100 -0.293993
N1    N     N_R   0.999801 0.043465 0.815871 0.092866
O27   O     O_R   0.094682 0.031498 0.860994 -0.350940
O28   O     O_R   0.978061 0.939730 0.802431 -0.343154
O29   O     O_3   0.495136 0.924140 0.812370 -0.691466
H34   H     H_    0.446292 0.871253 0.823250 0.330981
O30   O     O_3   0.496790 0.584811 0.135511 -0.722817
H35   H     H_    0.510489 0.614033 0.087709 0.323116
N2    N     N_R   0.840734 0.766200 0.361351 0.103005
O31   O     O_R   0.909680 0.722923 0.420439 -0.247883
O32   O     O_R   0.773751 0.898849 0.348871 -0.318850
N3    N     N_R   0.295070 0.213532 0.316595 0.089135
O33   O     O_R   0.194450 0.228289 0.274646 -0.348438
O34   O     O_R   0.267240 0.242781 0.384373 -0.262568
N4    N     N_R   0.029676 0.002941 0.192992 0.075630
O35   O     O_R   0.012137 0.095730 0.146036 -0.346426
O36   O     O_R   0.923868 0.990782 0.215541 -0.371935
N5    N     N_R   0.541039 0.915685 0.643580 0.066297
O37   O     O_R   0.412411 0.993688 0.623445 -0.326322
O38   O     O_R   0.639792 0.923652 0.609165 -0.245103
N6    N     N_R   0.284909 0.921527 0.328776 0.100033
O39   O     O_R   0.392974 0.902688 0.291322 -0.392340
O40   O     O_R   0.264051 0.979714 0.391931 -0.231397
N7    N     N_R   0.879597 0.696612 0.637596 0.099652
O41   O     O_R   0.916241 0.654300 0.571718 -0.240314
O42   O     O_R   0.894247 0.799892 0.661731 -0.317186

loop_
_geom_bond_atom_site_label_1
_geom_bond_atom_site_label_2
_geom_bond_distance
_ccdc_geom_bond_type
C19   H11   1.078761 S    
C39   C43   1.399592 A    
C48   C49   1.354447 A    
O22   Cr5   2.072115 S    
C25   C29   1.480179 S    
C16   C17   1.386553 A    
C50   C51   1.399429 A    
O16   Cr5   2.086804 S    
C36   H22   1.109542 S    
C52   C53   1.524084 S    
C45   H29   1.110744 S    
C27   H16   1.078865 S    
O4    Cr2   1.958527 S    
O24   Cr6   2.068866 S    
C26   C27   1.398138 A    
O8    Cr1   1.971389 S    
C6    C46   1.451709 S    
C49   C54   1.388915 A    
Cr3   O13   1.995265 S    
C14   H7    1.095578 S    
N7    O42   1.302782 A    
C10   H5    1.110009 S    
C39   C58   1.456661 S    
C42   H25   1.082663 S    
C29   H20   1.110416 S    
O4    C2    1.280614 A    
C50   C54   1.402024 A    
Cr5   O26   1.996543 S    
O14   Cr4   2.070613 S    
C55   O16   1.264717 A    
C49   C53   1.492039 S    
C53   H33   1.113989 S    
C21   H14   1.112797 S    
C47   C51   1.405234 A    
O17   C56   1.290301 A    
C7    O29   1.408490 S    
O12   C6    1.310580 A    
C17   C21   1.487580 S    
C59   O24   1.279847 A    
C4    C54   1.432490 S    
C36   H23   1.106077 S    
O18   Cr6   2.076636 S    
C13   N7    1.470102 S    
O20   Cr4   2.090608 S    
C8    N5    1.469482 S    
O6    C3    1.268940 A    
C34   C38   1.408188 A    
C7    H1    1.107943 S    
C33   C37   1.491024 S    
C34   C35   1.409694 A    
C18   H10   1.076795 S    
O7    Cr1   2.072360 S    
C52   H32   1.112605 S    
O9    Cr2   2.079193 S    
C40   C44   1.492568 S    
C36   C37   1.519929 S    
C1    C30   1.461677 S    
C43   H26   1.077294 S    
O19   Cr6   1.948965 S    
C9    C13   1.545411 S    
C25   C30   1.392009 A    
C44   H28   1.109943 S    
N6    O40   1.300522 A    
N6    O39   1.297980 A    
C28   H18   1.102908 S    
O1    Cr1   2.093130 S    
C11   C56   1.486015 S    
C31   C32   1.396509 A    
C7    C11   1.589133 S    
O10   Cr2   1.950035 S    
Cr1   O13   1.988307 S    
O1    C3    1.275366 A    
N7    O41   1.300557 A    
N3    O34   1.300459 A    
O21   C58   1.287940 A    
O14   C57   1.284364 A    
C23   C27   1.398604 A    
C50   H30   1.073528 S    
C32   C33   1.379597 A    
C47   C60   1.439281 S    
C8    H2    1.103968 S    
C20   C21   1.526900 S    
C21   H13   1.109863 S    
O12   Cr3   1.951623 S    
C13   H9    1.114281 S    
O25   Cr6   1.956902 S    
C32   C36   1.486387 S    
C14   H6    1.113260 S    
O3    Cr2   2.069670 S    
C18   C19   1.370242 A    
C10   C11   1.549286 S    
C9    H8    1.109375 S    
C20   N1    1.441852 S    
C37   H24   1.113120 S    
C12   C13   1.568101 S    
C33   C38   1.387424 A    
C26   H15   1.075805 S    
C44   C45   1.519121 S    
C23   C57   1.463703 S    
C15   C16   1.405140 A    
Cr2   O13   2.005262 S    
C3    C22   1.447423 S    
N2    O31   1.299609 A    
N5    O38   1.297685 A    
C44   H27   1.109103 S    
O17   Cr5   1.953576 S    
C1    O3    1.268294 A    
C48   C52   1.517173 S    
C34   H21   1.080088 S    
O25   C60   1.287531 A    
C15   C55   1.471937 S    
O29   H34   0.989694 S    
C24   C28   1.485371 S    
C28   H17   1.109916 S    
C24   C25   1.387483 A    
N1    O28   1.301454 A    
O19   C57   1.277766 A    
O2    Cr1   1.953501 S    
O10   C5    1.309307 A    
C41   C46   1.402340 A    
C37   N2    1.463187 S    
C40   C41   1.376276 A    
O6    Cr3   1.963373 S    
N4    O35   1.300179 A    
O11   Cr3   2.081086 S    
C23   C24   1.395027 A    
C2    O5    1.270751 A    
C53   N6    1.461569 S    
O15   C55   1.294228 A    
C10   C14   1.533530 S    
C2    C12   1.466885 S    
Cr4   O26   1.988357 S    
C9    C11   1.536623 S    
O2    C1    1.286454 A    
C28   C29   1.515565 S    
C10   H4    1.111336 S    
C42   C46   1.408195 A    
O23   C59   1.284273 A    
C29   H19   1.097027 S    
O5    Cr3   2.072018 S    
N4    O36   1.301322 A    
C58   O22   1.261410 A    
C20   H12   1.112652 S    
O7    C6    1.292201 A    
N1    O27   1.300006 A    
C47   C48   1.405674 A    
C12   C14   1.558573 S    
O15   Cr4   1.971856 S    
C31   C35   1.415579 A    
C17   C22   1.397309 A    
C7    C8    1.546423 S    
O23   Cr5   1.963939 S    
O30   H35   0.989761 S    
C31   C59   1.452439 S    
C45   N3    1.468066 S    
C35   O30   1.380785 S    
C39   C40   1.398965 A    
O21   Cr4   1.951196 S    
C26   C30   1.408649 A    
C15   C19   1.410818 A    
C5    C38   1.450435 S    
O20   C60   1.258478 A    
C4    O9    1.265473 A    
C42   C43   1.401229 A    
C56   O18   1.312091 A    
H3    C9    1.106414 S    
N2    O32   1.301514 A    
C16   C20   1.495685 S    
N5    O37   1.302179 A    
N3    O33   1.302443 A    
C51   H31   1.083210 S    
C18   C22   1.388206 A    
C52   N4    1.449000 S    
C41   C45   1.507089 S    
C5    O11   1.306913 A    
O8    C4    1.281372 A    
C8    C12   1.554911 S    
Cr6   O26   2.005481 S    
