data_mof_unit_66379.cif
_audit_creation_date              2012-12-10T21:41:34-0500
_audit_creation_method            fapswitch 2.2
_symmetry_space_group_name_H-M    P1
_symmetry_Int_Tables_number       1
_space_group_crystal_system       triclinic
_cell_length_a                    23.989746
_cell_length_b                    23.924283
_cell_length_c                    16.074343
_cell_angle_alpha                 89.999989
_cell_angle_beta                  95.570059
_cell_angle_gamma                 90.00003
_cell_volume                      9182.10656787

loop_
_atom_site_label
_atom_site_type_symbol
_atom_type_description
_atom_site_fract_x
_atom_site_fract_y
_atom_site_fract_z
_atom_type_partial_charge
C1    C     C_R   0.576312 0.076583 0.512576 0.882913
C2    C     C_R   0.423688 0.923416 0.487424 0.882911
C3    C     C_R   0.423688 0.076583 0.487424 0.882911
C4    C     C_R   0.576312 0.923416 0.512575 0.882911
C5    C     C_R   0.076312 0.576583 0.512576 0.882911
C6    C     C_R   0.923688 0.423417 0.487424 0.882912
C7    C     C_R   0.923688 0.576584 0.487424 0.882912
C8    C     C_R   0.076312 0.423416 0.512575 0.882912
C9    C     C_R   0.516333 1.000000 0.111080 0.331050
C10   C     C_R   0.483667 0.000000 0.888919 0.331050
C11   C     C_R   0.016333 0.500000 0.111080 0.331050
C12   C     C_R   0.983667 0.500000 0.888919 0.331050
C13   C     C_R   0.564872 1.000000 0.167176 -0.305199
C14   C     C_R   0.435128 0.000001 0.832824 -0.305199
C15   C     C_R   0.064872 0.500000 0.167176 -0.305198
C16   C     C_R   0.935128 0.499999 0.832824 -0.305199
C17   C     C_R   0.560739 1.000000 0.253511 0.010474
C18   C     C_R   0.439261 0.000001 0.746489 0.010474
C19   C     C_R   0.060739 0.500000 0.253511 0.010475
C20   C     C_R   0.939261 0.499999 0.746489 0.010475
C21   C     C_R   0.617469 0.878566 0.522656 -0.053345
C22   C     C_R   0.382526 0.121429 0.477344 -0.053344
C23   C     C_R   0.382535 0.878563 0.477344 -0.053339
C24   C     C_R   0.617470 0.121432 0.522656 -0.053340
C25   C     C_R   0.117465 0.378563 0.522656 -0.053337
C26   C     C_R   0.882531 0.621434 0.477344 -0.053343
C27   C     C_R   0.882531 0.378567 0.477344 -0.053340
C28   C     C_R   0.117473 0.621430 0.522656 -0.053346
C29   C     C_R   0.622170 0.843781 0.453622 -0.279754
C30   C     C_R   0.377822 0.156214 0.546377 -0.279756
C31   C     C_R   0.377842 0.843771 0.546373 -0.279753
C32   C     C_R   0.622167 0.156222 0.453627 -0.279756
C33   C     C_R   0.122153 0.343768 0.453630 -0.279753
C34   C     C_R   0.877832 0.656221 0.546376 -0.279755
C35   C     C_R   0.877834 0.343777 0.546374 -0.279755
C36   C     C_R   0.122179 0.656213 0.453620 -0.279755
C37   C     C_R   0.661929 0.802033 0.457405 -0.164316
C38   C     C_R   0.338055 0.197955 0.542596 -0.164316
C39   C     C_R   0.338089 0.802018 0.542587 -0.164315
C40   C     C_R   0.661927 0.197969 0.457410 -0.164315
C41   C     C_R   0.161907 0.302013 0.457416 -0.164314
C42   C     C_R   0.838073 0.697969 0.542593 -0.164316
C43   C     C_R   0.838075 0.302029 0.542591 -0.164316
C44   C     C_R   0.161943 0.697955 0.457401 -0.164318
C45   C     C_R   0.698267 0.794729 0.530487 0.279671
C46   C     C_R   0.301714 0.205253 0.469516 0.279672
C47   C     C_R   0.301748 0.794716 0.469507 0.279669
C48   C     C_R   0.698270 0.205267 0.530489 0.279670
C49   C     C_R   0.198250 0.294714 0.530493 0.279668
C50   C     C_R   0.801733 0.705271 0.469512 0.279671
C51   C     C_R   0.801733 0.294730 0.469512 0.279670
C52   C     C_R   0.198282 0.705257 0.530483 0.279673
C53   C     C_R   0.692139 0.827115 0.600868 -0.190179
C54   C     C_R   0.307845 0.172867 0.399136 -0.190179
C55   C     C_R   0.307868 0.827109 0.399131 -0.190176
C56   C     C_R   0.692146 0.172876 0.600866 -0.190178
C57   C     C_R   0.192134 0.327111 0.600867 -0.190176
C58   C     C_R   0.807860 0.672883 0.399133 -0.190178
C59   C     C_R   0.807857 0.327120 0.399134 -0.190178
C60   C     C_R   0.192149 0.672874 0.600866 -0.190179
C61   C     C_R   0.652182 0.869614 0.598209 0.178871
C62   C     C_R   0.347809 0.130375 0.401792 0.178869
C63   C     C_R   0.347819 0.869613 0.401793 0.178873
C64   C     C_R   0.652188 0.130379 0.598206 0.178872
C65   C     C_R   0.152184 0.369616 0.598205 0.178875
C66   C     C_R   0.847816 0.630384 0.401792 0.178871
C67   C     C_R   0.847814 0.369619 0.401793 0.178872
C68   C     C_R   0.152187 0.630381 0.598209 0.178868
C69   C     C_R   0.461730 1.000000 0.231007 -0.037540
C70   C     C_R   0.538270 0.999999 0.768993 -0.037541
C71   C     C_R   0.961730 0.500000 0.231007 -0.037541
C72   C     C_R   0.038270 0.500001 0.768993 -0.037541
C73   C     C_R   0.463908 1.000000 0.144199 -0.264418
C74   C     C_R   0.536092 0.999999 0.855801 -0.264418
C75   C     C_R   0.963908 0.500000 0.144199 -0.264419
C76   C     C_R   0.036092 0.500001 0.855801 -0.264419
H1    H     H_    0.404848 0.150998 0.603905 0.176234
H2    H     H_    0.595146 0.849000 0.396093 0.176236
H3    H     H_    0.595139 0.151007 0.396100 0.176232
H4    H     H_    0.404869 0.848990 0.603900 0.176233
H5    H     H_    0.904857 0.651003 0.603904 0.176234
H6    H     H_    0.095125 0.348984 0.396105 0.176231
H7    H     H_    0.095155 0.650995 0.396090 0.176236
H8    H     H_    0.904861 0.348994 0.603901 0.176234
H9    H     H_    0.335191 0.223930 0.597203 0.156758
H10   H     H_    0.664792 0.776058 0.402797 0.156758
H11   H     H_    0.664787 0.223948 0.402806 0.156758
H12   H     H_    0.335232 0.776038 0.597191 0.156758
H13   H     H_    0.835212 0.723946 0.597199 0.156758
H14   H     H_    0.164761 0.276031 0.402815 0.156758
H15   H     H_    0.164809 0.723928 0.402792 0.156758
H16   H     H_    0.835215 0.276051 0.597196 0.156758
H17   H     H_    0.720126 0.820150 0.657011 0.140383
H18   H     H_    0.279855 0.179829 0.342994 0.140384
H19   H     H_    0.279878 0.820145 0.342990 0.140383
H20   H     H_    0.720136 0.179838 0.657006 0.140383
H21   H     H_    0.220126 0.320149 0.657006 0.140383
H22   H     H_    0.779872 0.679847 0.342991 0.140383
H23   H     H_    0.779867 0.320158 0.342994 0.140383
H24   H     H_    0.220136 0.679839 0.657009 0.140384
H25   H     H_    0.578361 0.999998 0.743578 0.135690
H26   H     H_    0.421639 1.000000 0.256422 0.135689
H27   H     H_    0.078361 0.500001 0.743578 0.135689
H28   H     H_    0.921639 0.500000 0.256422 0.135690
H29   H     H_    0.574967 0.999998 0.896065 0.155121
H30   H     H_    0.425033 1.000000 0.103935 0.155120
H31   H     H_    0.074967 0.500001 0.896065 0.155121
H32   H     H_    0.925033 0.500000 0.103935 0.155121
H33   H     H_    0.605789 1.000000 0.144042 0.146771
H34   H     H_    0.394211 0.000002 0.855958 0.146771
H35   H     H_    0.105788 0.500000 0.144042 0.146771
H36   H     H_    0.894211 0.499999 0.855958 0.146771
H37   H     H_    0.598345 1.000000 0.296491 0.137915
H38   H     H_    0.401655 0.000002 0.703509 0.137915
H39   H     H_    0.098345 0.500000 0.296491 0.137915
H40   H     H_    0.901655 0.499999 0.703509 0.137915
N1    N     N_2   0.742485 0.756018 0.534862 -0.196514
N2    N     N_2   0.257493 0.243961 0.465141 -0.196511
N3    N     N_2   0.257532 0.756002 0.465133 -0.196517
N4    N     N_2   0.742488 0.243979 0.534864 -0.196514
N5    N     N_2   0.242466 0.256000 0.534868 -0.196517
N6    N     N_2   0.757516 0.743982 0.465137 -0.196515
N7    N     N_2   0.757515 0.256018 0.465137 -0.196514
N8    N     N_2   0.242502 0.743966 0.534859 -0.196511
N9    N     N_R   0.509690 0.000000 0.283730 -0.088115
N10   N     N_R   0.490310 1.000000 0.716270 -0.088116
N11   N     N_R   0.009690 0.500000 0.283730 -0.088115
N12   N     N_R   0.990310 0.500000 0.716270 -0.088116
N13   N     N_2   0.522453 1.000000 0.023296 -0.189309
N14   N     N_2   0.477547 0.000000 0.976704 -0.189309
N15   N     N_2   0.022453 0.500000 0.023296 -0.189309
N16   N     N_2   0.977547 0.500000 0.976704 -0.189309
O1    O     O_R   0.554580 0.058040 0.577230 -0.614727
O2    O     O_R   0.445420 0.941960 0.422770 -0.614728
O3    O     O_R   0.445420 0.058040 0.422770 -0.614729
O4    O     O_R   0.554580 0.941960 0.577230 -0.614730
O5    O     O_R   0.054580 0.558040 0.577230 -0.614729
O6    O     O_R   0.945420 0.441960 0.422770 -0.614729
O7    O     O_R   0.945420 0.558040 0.422770 -0.614728
O8    O     O_R   0.054580 0.441960 0.577230 -0.614727
O9    O     O_R   0.560810 0.058060 0.438340 -0.624092
O10   O     O_R   0.439190 0.941940 0.561660 -0.624092
O11   O     O_R   0.439190 0.058060 0.561660 -0.624093
O12   O     O_R   0.560810 0.941940 0.438340 -0.624094
O13   O     O_R   0.060810 0.558060 0.438340 -0.624093
O14   O     O_R   0.939190 0.441940 0.561660 -0.624093
O15   O     O_R   0.939190 0.558060 0.561660 -0.624093
O16   O     O_R   0.060810 0.441940 0.438340 -0.624092
Zn1   Zn    Zn3+2 0.495820 1.000000 0.592740 0.940214
Zn2   Zn    Zn3+2 0.504180 1.000000 0.407260 0.940215
Zn3   Zn    Zn3+2 0.995820 0.500000 0.592740 0.940214
Zn4   Zn    Zn3+2 0.004180 0.500000 0.407260 0.940214
C77   C     C_3   0.649401 0.905348 0.674980 -0.897486
H41   H     H_    0.683099 0.894731 0.724816 0.228528
H42   H     H_    0.654506 0.949978 0.658793 0.232332
H43   H     H_    0.608790 0.898811 0.701230 0.258401
C78   C     C_3   0.350594 0.094642 0.325022 -0.897487
H44   H     H_    0.316893 0.105254 0.275187 0.228529
H45   H     H_    0.391203 0.101185 0.298770 0.258400
H46   H     H_    0.345496 0.050011 0.341210 0.232333
C79   C     C_3   0.350590 0.905356 0.325028 -0.897495
H47   H     H_    0.316888 0.894741 0.275196 0.228531
H48   H     H_    0.345484 0.949983 0.341227 0.232329
H49   H     H_    0.391198 0.898824 0.298768 0.258399
C80   C     C_3   0.649412 0.094638 0.674972 -0.897496
H50   H     H_    0.683114 0.105250 0.724804 0.228531
H51   H     H_    0.608804 0.101175 0.701230 0.258400
H52   H     H_    0.654513 0.050009 0.658775 0.232331
C81   C     C_3   0.149416 0.405363 0.674966 -0.897502
H53   H     H_    0.183120 0.394751 0.724796 0.228533
H54   H     H_    0.154521 0.449990 0.658761 0.232328
H55   H     H_    0.108809 0.398834 0.701232 0.258398
C82   C     C_3   0.850595 0.594647 0.325023 -0.897488
H56   H     H_    0.816895 0.605262 0.275189 0.228529
H57   H     H_    0.891205 0.601183 0.298769 0.258400
H58   H     H_    0.845492 0.550017 0.341214 0.232331
C83   C     C_3   0.850591 0.405358 0.325027 -0.897494
H59   H     H_    0.816889 0.394745 0.275194 0.228531
H60   H     H_    0.845488 0.449987 0.341222 0.232331
H61   H     H_    0.891199 0.398822 0.298769 0.258399
C84   C     C_3   0.149399 0.594651 0.674983 -0.897483
H62   H     H_    0.183097 0.605267 0.724820 0.228528
H63   H     H_    0.108788 0.601194 0.701229 0.258401
H64   H     H_    0.154500 0.550019 0.658800 0.232334

loop_
_geom_bond_atom_site_label_1
_geom_bond_atom_site_label_2
_ccdc_geom_bond_type
C71   C75   A    
C71   H28   S    
C80   H50   S    
C51   N7    S    
C81   H53   S    
C14   C18   A    
C58   H22   S    
C48   C56   A    
C72   C76   A    
C17   N9    A    
C18   H38   S    
C10   N14   S    
C79   H47   S    
C70   H25   S    
C17   H37   S    
C31   H4    S    
C48   N4    S    
C82   H56   S    
C15   C19   A    
C30   C38   A    
C2    O2    A    
C7    C26   S    
C72   N12   A    
C40   H11   S    
C47   C55   A    
C1    O9    A    
C28   C68   A    
C20   N12   A    
C6    O14   A    
N10   Zn1   S    
C84   H64   S    
C36   H7    S    
O2    Zn2   S    
C12   N16   S    
O7    Zn4   S    
C49   C57   A    
C46   N2    S    
C40   C48   A    
C19   N11   A    
C9    C13   A    
O12   Zn2   S    
C52   C60   A    
C59   C67   A    
O6    Zn4   S    
C30   H1    S    
C11   C15   A    
C58   C66   A    
C78   H44   S    
C29   H2    S    
C12   C16   A    
C34   C42   A    
C83   H60   S    
C55   C63   A    
C70   C74   A    
C13   H33   S    
C56   C64   A    
C66   C82   S    
C69   C73   A    
C34   H5    S    
C77   H42   S    
C35   C43   A    
C33   H6    S    
C21   C61   A    
N4    N7    D    
C4    O4    A    
C70   N10   A    
C23   C63   A    
C41   H14   S    
C69   N9    A    
C75   H32   S    
C78   H45   S    
N3    N8    D    
C8    C25   S    
C81   H54   S    
C71   N11   A    
C8    O16   A    
C9    C73   A    
C39   H12   S    
C1    O1    A    
C41   C49   A    
C79   H48   S    
C26   C34   A    
O9    Zn2   S    
O4    Zn1   S    
C7    O15   A    
C84   H63   S    
C49   N5    S    
C68   C84   S    
C5    O13   A    
C38   H9    S    
C53   H17   S    
C26   C66   A    
C15   H35   S    
C37   H10   S    
C3    O11   A    
C55   H19   S    
C67   C83   S    
C20   H40   S    
O1    Zn1   S    
C69   H26   S    
C54   C62   A    
C27   C35   A    
C84   H62   S    
C21   C29   A    
C65   C81   S    
N2    N5    D    
C23   C31   A    
C6    O6    A    
O15   Zn3   S    
N1    N6    D    
C24   C32   A    
C64   C80   S    
C54   H18   S    
N11   Zn4   S    
C22   C62   A    
C5    C28   S    
N12   Zn3   S    
C6    C27   S    
C19   H39   S    
C16   C20   A    
C83   H61   S    
C57   H21   S    
C46   C54   A    
C62   C78   S    
C25   C65   A    
C77   H43   S    
C44   H15   S    
O8    Zn3   S    
C60   C68   A    
C82   H57   S    
C42   C50   A    
C50   C58   A    
C76   H31   S    
C12   C76   A    
C10   C14   A    
C2    O10   A    
C81   H55   S    
C36   C44   A    
C51   C59   A    
C53   C61   A    
N15   N16   D    
C79   H49   S    
C16   H36   S    
C39   C47   A    
N13   N14   D    
C82   H58   S    
C45   N1    S    
C63   C79   S    
C22   C30   A    
O16   Zn4   S    
C57   C65   A    
C60   H24   S    
C61   C77   S    
C44   C52   A    
C4    O12   A    
C35   H8    S    
C5    O5    A    
C72   H27   S    
C9    N13   S    
C78   H46   S    
C80   H52   S    
O3    Zn2   S    
C43   H16   S    
C13   C17   A    
C8    O8    A    
C42   H13   S    
C33   C41   A    
C11   N15   S    
C11   C75   A    
C18   N10   A    
C32   H3    S    
C7    O7    A    
C4    C21   S    
C10   C74   A    
C43   C51   A    
C73   H30   S    
C14   H34   S    
C59   H23   S    
C52   N8    S    
C47   N3    S    
O10   Zn1   S    
C31   C39   A    
C24   C64   A    
C3    O3    A    
C32   C40   A    
C56   H20   S    
C38   C46   A    
O13   Zn4   S    
C27   C67   A    
N9    Zn2   S    
C45   C53   A    
O14   Zn3   S    
O11   Zn1   S    
C50   N6    S    
C28   C36   A    
C1    C24   S    
C80   H51   S    
C83   H59   S    
C29   C37   A    
C2    C23   S    
O5    Zn3   S    
C3    C22   S    
C77   H41   S    
C37   C45   A    
C25   C33   A    
C74   H29   S    
