data_mof_unit_64317.cif
_audit_creation_date              2012-12-10T18:25:07-0500
_audit_creation_method            fapswitch 2.2
_symmetry_space_group_name_H-M    P1
_symmetry_Int_Tables_number       1
_space_group_crystal_system       triclinic
_cell_length_a                    19.339464
_cell_length_b                    15.888776
_cell_length_c                    14.632731
_cell_angle_alpha                 90.07789
_cell_angle_beta                  90.288149
_cell_angle_gamma                 90.164182
_cell_volume                      4496.27203756

loop_
_atom_site_label
_atom_site_type_symbol
_atom_type_description
_atom_site_fract_x
_atom_site_fract_y
_atom_site_fract_z
_atom_type_partial_charge
C1    C     C_R   0.499940 0.339500 0.499939 0.832509
C2    C     C_R   0.500059 0.660500 0.500060 0.832502
C3    C     C_3   0.514016 0.972579 0.583673 -0.057687
C4    C     C_3   0.485982 0.027421 0.416326 -0.057687
C5    C     C_3   0.562478 0.028368 0.526324 0.180111
C6    C     C_3   0.437521 0.971632 0.473676 0.180111
C7    C     C_1   0.499825 0.249995 0.499882 -0.128133
C8    C     C_1   0.500174 0.750005 0.500118 -0.128133
C9    C     C_3   0.451291 0.028124 0.558592 -0.249888
C10   C     C_3   0.548707 0.971876 0.441408 -0.249888
C11   C     C_3   0.499903 0.083070 0.500067 0.043710
C12   C     C_3   0.500096 0.916930 0.499933 0.043710
C13   C     C_1   0.499765 0.174601 0.499948 0.016893
C14   C     C_1   0.500234 0.825399 0.500052 0.016892
C15   C     C_3   0.517522 0.577203 0.969342 -0.180241
C16   C     C_3   0.482478 0.422796 0.030658 -0.180241
C17   C     C_3   0.453915 0.556925 0.030680 -0.170281
C18   C     C_3   0.546084 0.443075 0.969319 -0.170282
C19   C     C_3   0.562325 0.519863 0.030892 0.028554
C20   C     C_3   0.437675 0.480137 0.969108 0.028555
C21   C     C_3   0.499743 0.499914 0.091631 0.013683
C22   C     C_3   0.500257 0.500086 0.908368 0.013683
C23   C     C_R   0.367304 0.502671 0.499735 0.822410
C24   C     C_R   0.632696 0.497331 0.500265 0.822402
C25   C     C_1   0.499858 0.499963 0.194232 0.172134
C26   C     C_1   0.500141 0.500037 0.805768 0.172130
C27   C     C_R   0.255818 0.455077 0.561372 -0.234633
C28   C     C_R   0.744181 0.544945 0.438641 -0.234632
C29   C     C_R   0.183817 0.453593 0.562325 -0.012391
C30   C     C_R   0.816182 0.546436 0.437691 -0.012384
C31   C     C_R   0.146150 0.503934 0.500356 -0.060399
C32   C     C_R   0.853851 0.496081 0.499643 -0.060397
C33   C     C_R   0.181957 0.556711 0.438676 -0.067462
C34   C     C_R   0.818046 0.443288 0.561308 -0.067463
C35   C     C_R   0.254726 0.557966 0.438243 0.110965
C36   C     C_R   0.745277 0.442032 0.561744 0.110961
C37   C     C_R   0.291557 0.505632 0.499191 -0.093298
C38   C     C_R   0.708444 0.494374 0.500808 -0.093296
C39   C     C_R   0.930070 0.498296 0.499757 0.405066
C40   C     C_R   0.069928 0.501722 0.500242 0.405068
Cu1   Cu    Cu3+1 0.500010 0.500000 0.590220 1.020171
Cu2   Cu    Cu3+1 0.499990 0.500000 0.409780 1.020174
H1    H     H_    0.284370 0.415130 0.608251 0.163048
H2    H     H_    0.715627 0.584901 0.391773 0.163038
H3    H     H_    0.588307 0.948152 0.393189 0.177191
H4    H     H_    0.411691 0.051848 0.606811 0.177191
H5    H     H_    0.415436 0.603335 0.055321 0.164719
H6    H     H_    0.584564 0.396665 0.944679 0.164717
H7    H     H_    0.532588 0.640701 0.944750 0.159034
H8    H     H_    0.467412 0.359299 0.055250 0.159034
N1    N     N_R   0.034366 0.489875 0.421095 -0.204888
N2    N     N_R   0.965632 0.510142 0.578904 -0.204885
N3    N     N_R   0.965609 0.488185 0.420849 -0.199874
N4    N     N_R   0.034389 0.511834 0.579149 -0.199878
N5    N     N_1   0.499980 0.500000 0.274190 -0.143475
N6    N     N_1   0.500020 0.500000 0.725810 -0.143476
O1    O     O_R   0.500010 0.379080 0.576170 -0.559475
O2    O     O_R   0.499990 0.620920 0.423830 -0.559476
O3    O     O_R   0.500000 0.379080 0.423800 -0.571014
O4    O     O_R   0.500000 0.620920 0.576200 -0.571016
O5    O     O_R   0.400150 0.499990 0.576210 -0.577356
O6    O     O_R   0.599850 0.500010 0.423790 -0.577349
O7    O     O_R   0.400140 0.499990 0.423840 -0.552444
O8    O     O_R   0.599860 0.500010 0.576160 -0.552441
C41   C     C_1   0.368371 0.458067 0.935516 0.246601
N7    N     N_1   0.313715 0.440673 0.908953 -0.240488
C42   C     C_1   0.631629 0.541933 0.064483 0.246601
N8    N     N_1   0.686285 0.559327 0.091046 -0.240484
C43   C     C_1   0.149891 0.397290 0.625457 0.296665
N9    N     N_1   0.122757 0.352179 0.676003 -0.214863
C44   C     C_1   0.850102 0.602762 0.374582 0.296655
N10   N     N_1   0.877230 0.647896 0.324053 -0.214869
C45   C     C_1   0.144235 0.612205 0.378029 0.339342
N11   N     N_1   0.114010 0.656558 0.329618 -0.199601
C46   C     C_1   0.855768 0.387780 0.621937 0.339335
N12   N     N_1   0.885991 0.343412 0.670336 -0.199600
I1    I     I_    0.307651 0.644709 0.350473 -0.273850
I2    I     I_    0.692353 0.355281 0.649506 -0.273843
I3    I     I_    0.661775 0.074493 0.567626 -0.266381
I4    I     I_    0.338224 0.925506 0.432374 -0.266387
C47   C     C_1   0.529272 0.941442 0.675951 0.308532
N13   N     N_1   0.541296 0.916874 0.748689 -0.243201
C48   C     C_1   0.470727 0.058557 0.324049 0.308533
N14   N     N_1   0.458702 0.083125 0.251310 -0.243201

loop_
_geom_bond_atom_site_label_1
_geom_bond_atom_site_label_2
_ccdc_geom_bond_type
C16   C21   S    
C27   C29   A    
Cu1   Cu2   S    
Cu1   O5    S    
Cu2   O2    S    
C6    C9    S    
C30   C44   S    
C15   C19   S    
C19   C21   S    
C16   H8    S    
C5    C11   S    
C1    O3    A    
C6    C12   S    
C2    O4    A    
C17   C20   S    
C31   C40   S    
C18   C19   S    
C45   N11   T    
C32   C39   S    
C3    C12   S    
C15   C22   S    
C3    C47   S    
C24   C38   S    
C31   C33   A    
C19   C42   S    
C5    I3    S    
Cu2   O6    S    
C34   C46   S    
C23   O7    A    
C39   N2    A    
C9    H4    S    
C24   O8    A    
C1    C7    S    
N2    N4    A    
C47   N13   T    
C29   C43   S    
C42   N8    T    
C25   N5    T    
C20   C41   S    
C4    C6    S    
C23   C37   S    
C35   I1    S    
C17   C21   S    
C18   H6    S    
N1    N3    A    
C32   C34   A    
C46   N12   T    
Cu1   N6    S    
C3    C9    S    
C1    O1    A    
Cu2   N5    S    
C6    I4    S    
C48   N14   T    
C28   C38   A    
C16   C20   S    
C10   H3    S    
C4    C11   S    
C9    C11   S    
C10   C12   S    
C33   C45   S    
C12   C14   S    
C40   N4    A    
C8    C14   T    
C4    C10   S    
C23   O5    A    
C15   C17   S    
C21   C25   S    
C24   O6    A    
C35   C37   A    
C18   C22   S    
C2    C8    S    
C17   H5    S    
Cu1   O4    S    
C20   C22   S    
C3    C5    S    
C26   N6    T    
Cu2   O3    S    
C2    O2    A    
C40   N1    A    
C28   C30   A    
Cu1   O1    S    
C5    C10   S    
C29   C31   A    
C36   I2    S    
C30   C32   A    
C11   C13   S    
C39   N3    A    
C4    C48   S    
C27   C37   A    
C36   C38   A    
C33   C35   A    
C28   H2    S    
C34   C36   A    
C15   H7    S    
C43   N9    T    
C27   H1    S    
C7    C13   T    
C44   N10   T    
C16   C18   S    
C41   N7    T    
C22   C26   S    
Cu1   O8    S    
Cu2   O7    S    
