data_mof_unit_34419.cif
_audit_creation_date              2012-12-10T19:08:09-0500
_audit_creation_method            fapswitch 2.2
_symmetry_space_group_name_H-M    P1
_symmetry_Int_Tables_number       1
_space_group_crystal_system       triclinic
_cell_length_a                    9.076146
_cell_length_b                    10.824306
_cell_length_c                    9.557359
_cell_angle_alpha                 89.816128
_cell_angle_beta                  89.990239
_cell_angle_gamma                 90.094891
_cell_volume                      938.937307262

loop_
_atom_site_label
_atom_site_type_symbol
_atom_type_description
_atom_site_fract_x
_atom_site_fract_y
_atom_site_fract_z
_atom_type_partial_charge
C1    C     C_R   0.496430 0.262467 0.500223 0.808809
C2    C     C_R   0.629013 0.508571 0.926350 0.253027
C3    C     C_3   0.738138 0.611489 0.919994 -0.489507
C4    C     C_R   0.220705 0.500056 0.499982 0.849883
C5    C     C_3   0.737294 0.612524 0.078845 -0.471008
C6    C     C_R   0.493068 0.737685 0.499248 0.822088
C7    C     C_R   0.779280 0.500166 0.500016 0.844204
C8    C     C_1   0.065547 0.500186 0.499991 -0.186401
C9    C     C_1   0.934427 0.500229 0.500004 -0.195995
C10   C     C_R   0.492824 0.062846 0.624514 0.130143
C11   C     C_R   0.478417 0.129777 0.500828 -0.139599
C12   C     C_R   0.432137 0.938182 0.376070 0.149352
C13   C     C_R   0.436433 0.067252 0.378740 -0.234479
C14   C     C_R   0.473380 0.870938 0.498042 -0.156435
C15   C     C_R   0.490715 0.935985 0.623080 0.111566
C16   C     C_3   0.606608 0.927435 0.733730 -0.454887
C17   C     C_3   0.609307 0.067723 0.734533 -0.443322
C18   C     C_R   0.628901 0.509037 0.073582 0.254390
C19   C     C_R   0.373988 0.479887 0.074238 -0.046464
C20   C     C_R   0.373972 0.479952 0.925898 -0.065506
Cu1   Cu    Cu3+1 0.499990 0.499980 0.640670 0.948485
Cu2   Cu    Cu3+1 0.500010 0.500020 0.359330 0.964902
H1    H     H_    0.411782 0.118177 0.283861 0.186920
H2    H     H_    0.271197 0.464915 0.871708 0.147199
H3    H     H_    0.845224 0.581358 0.875277 0.200054
H4    H     H_    0.691805 0.696560 0.872500 0.214955
H5    H     H_    0.844086 0.583411 0.125187 0.200590
H6    H     H_    0.689804 0.698268 0.123846 0.234288
H7    H     H_    0.562688 0.887522 0.832614 0.221015
H8    H     H_    0.710696 0.885537 0.695060 0.192279
H9    H     H_    0.567829 0.107972 0.833875 0.210375
H10   H     H_    0.714619 0.107615 0.695438 0.194218
H11   H     H_    0.271230 0.464795 0.128573 0.147903
I1    I     I_    0.365537 0.859810 0.181499 -0.411887
N1    N     N_R   0.500920 0.500930 0.147930 -0.179135
N2    N     N_R   0.500930 0.500890 0.852020 -0.185654
O1    O     O_R   0.500000 0.319640 0.618810 -0.579077
O2    O     O_R   0.500020 0.319680 0.381230 -0.586120
O3    O     O_R   0.288380 0.499980 0.618770 -0.590978
O4    O     O_R   0.288400 0.500020 0.381190 -0.581862
O5    O     O_R   0.499980 0.680320 0.618770 -0.577194
O6    O     O_R   0.500000 0.680360 0.381190 -0.547942
O7    O     O_R   0.711600 0.499980 0.618810 -0.583409
O8    O     O_R   0.711620 0.500020 0.381230 -0.579784

loop_
_geom_bond_atom_site_label_1
_geom_bond_atom_site_label_2
_ccdc_geom_bond_type
Cu2   O2    S    
C7    O7    A    
C6    C14   S    
C5    H6    S    
C18   N1    A    
C19   C20   A    
Cu1   O3    S    
C4    O3    A    
C1    O1    A    
C4    C8    S    
Cu2   O4    S    
C2    C3    S    
Cu1   N2    S    
C19   N1    A    
C7    O8    A    
Cu2   N1    S    
C11   C13   A    
C5    H5    S    
Cu2   O6    S    
C1    O2    A    
Cu1   O5    S    
Cu1   Cu2   S    
C12   C14   A    
C10   C15   A    
C6    O6    A    
C17   H9    S    
C2    C18   A    
C10   C11   A    
C10   C17   S    
C16   H8    S    
C15   C16   S    
C20   N2    A    
C4    O4    A    
C3    H3    S    
Cu1   O1    S    
C12   C13   A    
C13   H1    S    
C19   H11   S    
C2    N2    A    
C7    C9    S    
C17   H10   S    
C14   C15   A    
C8    C9    T    
C5    C18   S    
C16   H7    S    
Cu1   O7    S    
C12   I1    S    
C3    H4    S    
Cu2   O8    S    
C20   H2    S    
C16   C17   S    
C3    C5    S    
C6    O5    A    
C1    C11   S    
