data_mof_unit_39672.cif
_audit_creation_date              2012-12-11T17:43:55-0500
_audit_creation_method            fapswitch 2.2
_symmetry_space_group_name_H-M    P1
_symmetry_Int_Tables_number       1
_space_group_crystal_system       triclinic
_cell_length_a                    20.27527
_cell_length_b                    22.729538
_cell_length_c                    6.942248
_cell_angle_alpha                 90.000086
_cell_angle_beta                  87.402513
_cell_angle_gamma                 90.000031
_cell_volume                      3196.03066151

loop_
_atom_site_label
_atom_site_type_symbol
_atom_type_description
_atom_site_fract_x
_atom_site_fract_y
_atom_site_fract_z
_atom_type_partial_charge
O1    O     O_R   0.751270 0.447300 0.600030 -0.541880
O2    O     O_R   0.248730 0.947300 0.399970 -0.541880
O3    O     O_R   0.613530 0.440160 0.952150 -0.539998
O4    O     O_R   0.386470 0.940160 0.047850 -0.539998
O5    O     O_R   0.613050 0.552700 0.122560 -0.539992
O6    O     O_R   0.386950 0.052700 0.877440 -0.539992
C1    C     C_R   0.591639 0.425378 0.785581 0.692813
C2    C     C_R   0.408361 0.925379 0.214419 0.692813
O7    O     O_R   0.750780 0.440350 0.929820 -0.544248
O8    O     O_R   0.249220 0.940350 0.070180 -0.544248
O9    O     O_R   0.751280 0.552900 0.100070 -0.508916
O10   O     O_R   0.248720 0.052900 0.899930 -0.508916
C3    C     C_R   0.773812 0.426163 0.757988 0.727115
C4    C     C_R   0.226188 0.926162 0.242012 0.727114
O11   O     O_R   0.613040 0.447100 0.622520 -0.536219
O12   O     O_R   0.386960 0.947100 0.377480 -0.536220
O13   O     O_3   0.682160 0.536920 0.777780 -0.358920
O14   O     O_3   0.317840 0.036920 0.222220 -0.358919
V1    V     V_3+5 0.682160 0.493150 0.052630 1.439174
V2    V     V_3+5 0.317840 0.993150 0.947370 1.439175
O15   O     O_R   0.750790 0.559840 0.429870 -0.545646
O16   O     O_R   0.249210 0.059840 0.570130 -0.545646
C5    C     C_R   0.773531 0.574531 0.257310 0.716237
C6    C     C_R   0.226469 0.074531 0.742690 0.716237
O17   O     O_R   0.613540 0.559650 0.452200 -0.539004
O18   O     O_R   0.386460 0.059650 0.547800 -0.539005
C7    C     C_R   0.591625 0.574435 0.285847 0.677592
C8    C     C_R   0.408375 0.074435 0.714153 0.677593
V3    V     V_3+5 0.682160 0.506850 0.552630 1.431776
V4    V     V_3+5 0.317840 0.006850 0.447370 1.431776
O19   O     O_3   0.682150 0.463080 0.277610 -0.372528
O20   O     O_3   0.317850 0.963080 0.722390 -0.372528
C9    C     C_R   0.576380 0.862702 0.293096 -0.160291
C10   C     C_R   0.423620 0.362702 0.706911 -0.160291
H1    H     H_    0.535865 0.949233 0.267172 0.106903
H2    H     H_    0.464135 0.449233 0.732836 0.106902
H3    H     H_    0.664370 0.780119 0.360863 0.125647
H4    H     H_    0.335630 0.280119 0.639144 0.125647
H5    H     H_    0.624874 0.879637 0.322534 0.113020
H6    H     H_    0.375125 0.379636 0.677476 0.113021
C11   C     C_R   0.462662 0.882360 0.222717 -0.039685
C12   C     C_R   0.537338 0.382360 0.777283 -0.039685
C13   C     C_R   0.473927 0.593681 0.242902 -0.165450
C14   C     C_R   0.526073 0.093681 0.757095 -0.165452
C15   C     C_R   0.420693 0.630825 0.215859 -0.120015
C16   C     C_R   0.579307 0.130825 0.784136 -0.120014
C17   C     C_R   0.428608 0.691700 0.220096 -0.156006
C18   C     C_R   0.571392 0.191701 0.779900 -0.156007
C19   C     C_R   0.490555 0.717317 0.254517 0.075853
C20   C     C_R   0.509445 0.217317 0.745481 0.075853
C21   C     C_R   0.544690 0.678699 0.288789 0.079034
C22   C     C_R   0.455310 0.178699 0.711212 0.079034
C23   C     C_R   0.500707 0.779832 0.254192 0.069790
C24   C     C_R   0.499293 0.279832 0.745808 0.069791
C25   C     C_R   0.564412 0.801899 0.292271 0.144814
C26   C     C_R   0.435588 0.301899 0.707733 0.144815
C27   C     C_R   0.615862 0.763321 0.330787 -0.216087
C28   C     C_R   0.384138 0.263321 0.669218 -0.216086
C29   C     C_R   0.606297 0.702785 0.328717 -0.221562
C30   C     C_R   0.393703 0.202785 0.671287 -0.221563
C31   C     C_R   0.450108 0.821490 0.218717 -0.216256
C32   C     C_R   0.549892 0.321490 0.781279 -0.216258
C33   C     C_R   0.525891 0.902464 0.260055 -0.171079
C34   C     C_R   0.474108 0.402464 0.739950 -0.171080
C35   C     C_R   0.536100 0.616627 0.279438 -0.084194
C36   C     C_R   0.463900 0.116627 0.720562 -0.084193
H7    H     H_    0.400231 0.808330 0.192792 0.095210
H8    H     H_    0.599769 0.308330 0.807201 0.095210
H9    H     H_    0.466745 0.546536 0.233256 0.106538
H10   H     H_    0.533255 0.046536 0.766741 0.106538
H11   H     H_    0.385228 0.717444 0.195299 0.110881
H12   H     H_    0.614772 0.217444 0.804696 0.110881
H13   H     H_    0.372882 0.612229 0.188163 0.121672
H14   H     H_    0.627118 0.112229 0.811831 0.121672
H15   H     H_    0.647939 0.674867 0.357961 0.106218
H16   H     H_    0.352061 0.174867 0.642043 0.106218
C37   C     C_R   0.171112 0.882879 0.258722 -0.099043
C38   C     C_R   0.828888 0.382879 0.741277 -0.099043
C39   C     C_R   0.134222 0.869063 0.098240 -0.304054
C40   C     C_R   0.865778 0.369063 0.901760 -0.304053
C41   C     C_R   0.080031 0.830162 0.114003 0.439684
C42   C     C_R   0.919969 0.330163 0.885996 0.439687
C43   C     C_R   0.065410 0.800678 0.292110 0.331307
C44   C     C_R   0.934590 0.300679 0.707889 0.331303
C45   C     C_R   0.102817 0.814650 0.450732 -0.261497
C46   C     C_R   0.897183 0.314651 0.549267 -0.261496
C47   C     C_R   0.154348 0.855516 0.435576 -0.209703
C48   C     C_R   0.845653 0.355516 0.564424 -0.209701
C49   C     C_R   0.917596 0.673252 0.380895 -0.159731
C50   C     C_R   0.082404 0.173253 0.619105 -0.159731
C51   C     C_R   0.865645 0.632618 0.396666 -0.309612
C52   C     C_R   0.134356 0.132619 0.603335 -0.309612
C53   C     C_R   0.934682 0.699844 0.202141 0.363927
C54   C     C_R   0.065320 0.199845 0.797859 0.363927
N1    N     N_2   0.013077 0.758774 0.322903 -0.304198
N2    N     N_2   0.986924 0.258775 0.677097 -0.304198
N3    N     N_2   0.988013 0.740425 0.173317 -0.231518
N4    N     N_2   0.011988 0.240427 0.826683 -0.231516
C55   C     C_R   0.828044 0.618803 0.237112 -0.139238
C56   C     C_R   0.171956 0.118804 0.762888 -0.139237
H17   H     H_    0.855695 0.611040 0.533733 0.195264
H18   H     H_    0.144305 0.111039 0.466268 0.195262
H19   H     H_    0.945103 0.682647 0.507379 0.156695
H20   H     H_    0.054897 0.182647 0.492622 0.156695
H21   H     H_    0.092018 0.793307 0.587923 0.189331
H22   H     H_    0.907983 0.293308 0.412076 0.189330
H23   H     H_    0.181713 0.864997 0.562347 0.150692
H24   H     H_    0.818288 0.364997 0.437652 0.150692
C57   C     C_R   0.843911 0.647003 0.058406 0.403683
C58   C     C_R   0.156090 0.147005 0.941594 0.403682
C59   C     C_R   0.898512 0.685270 0.042359 -0.282905
C60   C     C_R   0.101490 0.185272 0.957641 -0.282906
H25   H     H_    0.913229 0.703873 0.903312 0.132100
H26   H     H_    0.086773 0.203876 0.096688 0.132104
H27   H     H_    0.146504 0.889273 0.959885 0.139855
H28   H     H_    0.853495 0.389274 0.040115 0.139853
O21   O     O_3   0.810226 0.632311 0.895574 -0.566383
C61   C     C_3   0.777088 0.681767 0.821829 0.069760
H29   H     H_    0.763720 0.670754 0.672729 0.149349
H30   H     H_    0.808611 0.721783 0.809836 0.100569
C62   C     C_3   0.713259 0.694872 0.940460 -0.320196
H31   H     H_    0.683477 0.654009 0.957189 0.217872
H32   H     H_    0.725721 0.710745 0.085615 0.171650
C63   C     C_3   0.672357 0.741639 0.842820 -0.810859
H33   H     H_    0.700030 0.783766 0.831744 0.226212
H34   H     H_    0.625369 0.749087 0.927206 0.249049
H35   H     H_    0.660185 0.726752 0.696700 0.232749
O22   O     O_3   0.189776 0.132311 0.104426 -0.566382
C64   C     C_3   0.222913 0.181767 0.178175 0.069757
H36   H     H_    0.236281 0.170754 0.327273 0.149351
H37   H     H_    0.191389 0.221784 0.190171 0.100570
C65   C     C_3   0.286741 0.194874 0.059544 -0.320200
H38   H     H_    0.316522 0.154010 0.042809 0.217873
H39   H     H_    0.274279 0.210749 0.914392 0.171652
C66   C     C_3   0.327644 0.241639 0.157187 -0.810857
H40   H     H_    0.299973 0.283767 0.168266 0.226212
H41   H     H_    0.374633 0.249087 0.072805 0.249048
H42   H     H_    0.339816 0.226750 0.303305 0.232749
O23   O     O_3   0.044947 0.818019 0.951910 -0.564761
C67   C     C_3   0.006655 0.867359 0.901130 0.063769
H43   H     H_    0.002672 0.866743 0.742078 0.147757
H44   H     H_    0.029274 0.910544 0.936557 0.101889
C68   C     C_3   0.937015 0.863031 0.995225 -0.283970
H45   H     H_    0.913983 0.820864 0.952994 0.205406
H46   H     H_    0.939865 0.863822 0.154688 0.195571
C69   C     C_3   0.893566 0.913820 0.933390 -0.851327
H47   H     H_    0.914935 0.956532 0.977056 0.237751
H48   H     H_    0.843537 0.909321 0.003755 0.231834
H49   H     H_    0.888960 0.913330 0.774547 0.232962
O24   O     O_3   0.955054 0.318021 0.048088 -0.564761
C70   C     C_3   0.993344 0.367363 0.098869 0.063765
H50   H     H_    0.997339 0.366740 0.257916 0.147760
H51   H     H_    0.970717 0.410546 0.063477 0.101894
C71   C     C_3   0.062979 0.363046 0.004731 -0.283986
H52   H     H_    0.086020 0.320879 0.046928 0.205413
H53   H     H_    0.060117 0.363844 0.845273 0.195563
C72   C     C_3   0.106426 0.413836 0.066565 -0.851319
H54   H     H_    0.085050 0.456549 0.022923 0.237752
H55   H     H_    0.156452 0.409344 0.996179 0.231836
H56   H     H_    0.111039 0.413343 0.225405 0.232960

loop_
_geom_bond_atom_site_label_1
_geom_bond_atom_site_label_2
_ccdc_geom_bond_type
C9    C25   A    
C66   H42   S    
C5    C55   S    
C56   C58   A    
C72   H54   S    
C39   H27   S    
C68   C69   S    
O13   V3    S    
C14   C36   A    
C67   C68   S    
C11   C31   A    
O4    C2    A    
V1    O19   S    
O22   C64   S    
C61   H30   S    
C60   H26   S    
C57   O21   S    
C66   H40   S    
C17   C19   A    
C10   C26   A    
O9    V1    S    
C9    H5    S    
C10   H6    S    
C18   H12   S    
C64   H36   S    
O3    C1    A    
C57   C59   A    
C44   N2    S    
C48   H24   S    
C38   C40   A    
C1    C12   S    
C54   N4    S    
C28   C30   A    
C68   H45   S    
C55   C57   A    
C46   C48   A    
C15   H13   S    
C21   C35   A    
C4    C37   S    
C54   C60   A    
O7    C3    A    
C61   H29   S    
C62   C63   S    
C22   C30   A    
H4    C28   S    
C23   C31   A    
O7    V1    S    
O6    C8    A    
C40   H28   S    
O8    V2    S    
C65   H38   S    
C19   C21   A    
N2    N4    D    
C20   C22   A    
C70   H50   S    
C50   C54   A    
O14   V4    S    
C49   C51   A    
C12   C32   A    
C71   H53   S    
C52   H18   S    
C64   C65   S    
C2    O12   A    
C18   C20   A    
C72   H55   S    
O5    C7    A    
C49   H19   S    
C46   H22   S    
C29   H15   S    
C51   H17   S    
C45   H21   S    
O1    V3    S    
C41   C43   A    
C14   C16   A    
O11   V3    S    
C69   H48   S    
C23   C25   A    
O17   V3    S    
C24   C26   A    
C9    C33   A    
C45   C47   A    
C67   H43   S    
C71   C72   S    
C40   C42   A    
O8    C4    A    
C39   C41   A    
C1    O11   A    
C24   C32   A    
O15   V3    S    
C30   H16   S    
C61   C62   S    
O1    C3    A    
C8    C36   S    
C7    C35   S    
C69   H49   S    
C31   H7    S    
C50   C52   A    
C13   C35   A    
C43   N1    S    
O10   V2    S    
C10   C34   A    
C62   H31   S    
C37   C39   A    
C47   H23   S    
C59   H25   S    
C20   C24   A    
C2    C11   S    
O3    V1    S    
C13   C15   A    
C50   H20   S    
C71   H52   S    
C42   O24   S    
C53   C59   A    
C63   H35   S    
O5    V1    S    
C43   C45   A    
O18   V4    S    
C72   H56   S    
C42   C44   A    
O15   C5    A    
C66   H41   S    
O16   C6    A    
C21   C29   A    
C17   H11   S    
C53   N3    S    
C16   H14   S    
C22   C36   A    
C14   H10   S    
C52   C56   A    
C63   H34   S    
C69   H47   S    
V2    O20   S    
C38   C48   A    
C68   H46   S    
C3    C38   S    
O16   V4    S    
C6    C56   S    
C13   H9    S    
C44   C46   A    
C12   C34   A    
O23   C67   S    
N1    N3    D    
C70   C71   S    
C67   H44   S    
O17   C7    A    
O6    V2    S    
O10   C6    A    
O18   C8    A    
C41   O23   S    
C32   H8    S    
O2    V4    S    
C25   C27   A    
V3    O19   S    
O21   C61   S    
V4    O20   S    
C65   C66   S    
C19   C23   A    
O9    C5    A    
O13   V1    S    
C26   C28   A    
O14   V2    S    
C70   H51   S    
C49   C53   A    
O2    C4    A    
C58   C60   A    
C62   H32   S    
C27   C29   A    
O4    V2    S    
C16   C18   A    
C15   C17   A    
C37   C47   A    
C65   H39   S    
C11   C33   A    
O24   C70   S    
H1    C33   S    
C51   C55   A    
H2    C34   S    
O12   V4    S    
H3    C27   S    
C58   O22   S    
C63   H33   S    
C64   H37   S    
