data_mof_unit_38307.cif
_audit_creation_date              2013-03-05T16:03:50-0500
_audit_creation_method            fapswitch 2.2
_symmetry_space_group_name_H-M    P1
_symmetry_Int_Tables_number       1
_space_group_crystal_system       triclinic
_cell_length_a                    6.931979
_cell_length_b                    17.681771
_cell_length_c                    19.537685
_cell_angle_alpha                 109.006989
_cell_angle_beta                  90.048213
_cell_angle_gamma                 90.574681
_cell_volume                      2264.02896302

loop_
_atom_site_label
_atom_site_type_symbol
_atom_site_description
_atom_site_fract_x
_atom_site_fract_y
_atom_site_fract_z
_atom_type_partial_charge
O1    O     O_R   0.505700 0.440210 0.561730 -0.552570
O2    O     O_R   0.169350 0.406300 0.412660 -0.597282
O3    O     O_R   0.005650 0.559790 0.438270 -0.602655
C1    C     C_R   0.338877 0.379705 0.387316 0.950235
O4    O     O_R   0.175560 0.430650 0.559600 -0.588447
O5    O     O_R   0.011900 0.584320 0.586250 -0.577335
C2    C     C_R   0.344398 0.415736 0.581431 1.011622
O6    O     O_R   0.499450 0.415680 0.413750 -0.598797
O7    O     O_3   0.341370 0.550390 0.508570 -0.279380
V1    V     V_3+5 0.063940 0.490650 0.498410 1.196241
O8    O     O_R   0.682570 0.593700 0.587340 -0.569978
C3    C     C_R   0.851454 0.615896 0.615894 1.036146
O9    O     O_R   0.676370 0.569350 0.440400 -0.607666
C4    C     C_R   0.845538 0.584462 0.418905 0.905464
V2    V     V_3+5 0.564750 0.509350 0.501590 1.208347
O10   O     O_3   0.837190 0.449610 0.491430 -0.260089
C5    C     C_R   0.037766 0.679969 0.283787 -0.158497
H1    H     H_    0.169172 0.677662 0.253338 0.106635
C6    C     C_R   0.026759 0.634872 0.330780 -0.148169
H2    H     H_    0.150542 0.599978 0.335543 0.128094
C7    C     C_R   0.857366 0.633612 0.370005 -0.125144
C8    C     C_R   0.699660 0.679146 0.361413 -0.176867
H3    H     H_    0.567263 0.679865 0.391002 0.135057
C9    C     C_R   0.711333 0.724976 0.314968 -0.146353
H4    H     H_    0.588083 0.760466 0.311075 0.102444
C10   C     C_R   0.880445 0.725939 0.275203 0.113666
C11   C     C_R   0.728817 0.785782 0.187015 -0.152565
H5    H     H_    0.591575 0.758503 0.192271 0.104827
C12   C     C_R   0.740027 0.831517 0.140534 -0.156615
H6    H     H_    0.610680 0.838940 0.112340 0.131212
C13   C     C_R   0.916046 0.866274 0.129858 -0.124660
C14   C     C_R   0.080399 0.854486 0.167231 -0.155567
H7    H     H_    0.217926 0.881006 0.160886 0.120213
C15   C     C_R   0.068688 0.809700 0.214530 -0.156735
H8    H     H_    0.197518 0.803937 0.243696 0.097710
C16   C     C_R   0.892771 0.774389 0.225048 0.114922
H9    H     H_    0.947545 0.636073 0.939583 0.141276
C17   C     C_R   0.896391 0.908153 0.744528 -0.175359
C18   C     C_R   0.883833 0.921472 0.678210 -0.107581
C19   C     C_R   0.866128 0.857231 0.614445 -0.103746
C20   C     C_R   0.859935 0.779189 0.616519 -0.165068
C21   C     C_R   0.871419 0.763700 0.683083 0.123710
C22   C     C_R   0.891260 0.829605 0.748327 0.124077
C23   C     C_R   0.861132 0.684280 0.685328 -0.317986
C24   C     C_R   0.869122 0.671236 0.753827 -0.042537
C25   C     C_R   0.907084 0.737116 0.817939 0.110749
C26   C     C_R   0.909056 0.816179 0.815619 -0.281539
C27   C     C_R   0.836220 0.594805 0.761644 0.344230
C28   C     C_R   0.869568 0.582758 0.827903 -0.173310
C29   C     C_R   0.924159 0.645958 0.888370 -0.166745
C30   C     C_R   0.937555 0.722712 0.884238 -0.152701
H10   H     H_    0.911447 0.960002 0.792635 0.098041
H11   H     H_    0.888508 0.981980 0.676307 0.113209
H12   H     H_    0.856715 0.867888 0.563035 0.115433
H13   H     H_    0.844972 0.731365 0.565416 0.084671
H14   H     H_    0.844909 0.524298 0.833149 0.143885
H15   H     H_    0.971882 0.770569 0.933735 0.107965
C31   C     C_R   0.288164 0.202106 0.376817 0.288963
C32   C     C_R   0.262886 0.120583 0.368187 -0.103685
C33   C     C_R   0.288839 0.062493 0.302038 -0.194273
C34   C     C_R   0.341979 0.084036 0.242869 -0.156738
C35   C     C_R   0.364425 0.165315 0.247532 0.079938
C36   C     C_R   0.333948 0.227381 0.315488 0.056042
C37   C     C_R   0.419946 0.183691 0.184901 -0.274572
C38   C     C_R   0.441757 0.264303 0.188376 0.120453
C39   C     C_R   0.406735 0.327201 0.254325 0.069203
C40   C     C_R   0.353883 0.309968 0.318405 -0.266882
C41   C     C_R   0.494943 0.283656 0.126154 -0.236577
C42   C     C_R   0.513851 0.362845 0.128387 -0.128620
C43   C     C_R   0.478739 0.425067 0.192417 0.364268
C44   C     C_R   0.424725 0.407361 0.254521 -0.217321
H16   H     H_    0.225526 0.101084 0.413691 0.121708
H17   H     H_    0.271269 0.999932 0.296855 0.133834
H18   H     H_    0.366397 0.035323 0.193252 0.119529
H19   H     H_    0.522752 0.237790 0.074936 0.117994
H20   H     H_    0.555495 0.375447 0.079743 0.125211
H21   H     H_    0.395965 0.457510 0.302660 0.126648
C45   C     C_R   0.544542 0.281992 0.682724 -0.173649
H22   H     H_    0.682335 0.256069 0.687882 0.099335
C46   C     C_R   0.531719 0.328761 0.637191 -0.051450
H23   H     H_    0.659964 0.337299 0.608924 0.152815
C47   C     C_R   0.355642 0.363049 0.627518 -0.105267
C48   C     C_R   0.191504 0.346273 0.662308 -0.147277
H24   H     H_    0.052706 0.368797 0.654308 0.184717
C49   C     C_R   0.204360 0.300621 0.708688 -0.157829
H25   H     H_    0.075147 0.292144 0.736491 0.105415
C50   C     C_R   0.381450 0.268085 0.720086 0.111980
C51   C     C_R   0.237957 0.173163 0.779508 -0.161528
H26   H     H_    0.106493 0.168806 0.748485 0.100086
C52   C     C_R   0.248501 0.129965 0.827961 -0.140776
H27   H     H_    0.124308 0.094612 0.833180 0.121957
C53   C     C_R   0.417701 0.131154 0.868087 -0.123308
C54   C     C_R   0.576357 0.176767 0.858479 -0.171305
H28   H     H_    0.708789 0.179142 0.888603 0.130795
C55   C     C_R   0.564854 0.221092 0.810765 -0.145905
H29   H     H_    0.688273 0.257238 0.806499 0.106229
C56   C     C_R   0.395302 0.220026 0.770489 0.118297
O11   O     O_R   0.273230 0.084330 0.086440 -0.587866
O12   O     O_R   0.596660 0.069390 0.940470 -0.604718
O13   O     O_R   0.760270 0.915710 0.913690 -0.584580
C57   C     C_R   0.427916 0.083929 0.918580 0.917162
O14   O     O_R   0.603330 0.093680 0.087390 -0.588656
O15   O     O_R   0.766990 0.940160 0.061660 -0.596040
C58   C     C_R   0.434202 0.117806 0.114196 0.938467
O16   O     O_R   0.266510 0.059870 0.938470 -0.597213
O17   O     O_3   0.431050 0.949630 0.991510 -0.271647
V3    V     V_3+5 0.708490 0.009340 0.001580 1.158859
O18   O     O_R   0.096270 0.930570 0.059390 -0.602490
C59   C     C_R   0.927214 0.915460 0.080955 0.921444
O19   O     O_R   0.089600 0.906290 0.912460 -0.592091
C60   C     C_R   0.920608 0.884790 0.884061 0.938485
V4    V     V_3+5 0.207670 0.990600 0.998190 1.159589
O20   O     O_3   0.935250 0.050360 0.008480 -0.272661
N1    N     N_R   0.735986 0.532900 0.707800 0.209937
O21   O     O_R   0.832067 0.475046 0.663200 -0.460101
O22   O     O_R   0.550992 0.524931 0.714663 -0.431715
C61   C     C_3   0.498639 0.510699 0.195342 -1.044893
H30   H     H_    0.539846 0.515490 0.141967 0.253561
H31   H     H_    0.359528 0.541794 0.211890 0.248818
H32   H     H_    0.611733 0.540984 0.235367 0.266920
C62   C     C_3   0.272669 0.257259 0.453029 -1.070346
H33   H     H_    0.143390 0.294834 0.458515 0.275194
H34   H     H_    0.255160 0.224924 0.492848 0.244138
H35   H     H_    0.408978 0.291911 0.467631 0.225851

loop_
_geom_bond_atom_site_label_1
_geom_bond_atom_site_label_2
_geom_bond_distance
_ccdc_geom_bond_type
C45   C50   1.408606 A    
C54   H28   1.083113 S    
C11   C12   1.400679 A    
C55   H29   1.082240 S    
C20   C21   1.415961 A    
C6    H2    1.083280 S    
C1    O6    1.296595 A    
N1    O21   1.297454 A    
O17   V4    1.703181 S    
C49   H25   1.082115 S    
C41   H19   1.082162 S    
C12   H6    1.083146 S    
C5    C10   1.408680 A    
C4    C7    1.488058 S    
C6    C7    1.406671 A    
C9    C10   1.409930 A    
C61   H31   1.110001 S    
O5    C3    1.298878 A    
C17   C18   1.393145 A    
C45   C46   1.401319 A    
C17   H10   1.082329 S    
O17   V3    2.162276 S    
C43   C61   1.501447 S    
V2    O10   2.150786 S    
C33   H17   1.083074 S    
O18   C59   1.300040 A    
C42   H20   1.083209 S    
C15   H8    1.082326 S    
O19   C60   1.295090 A    
C20   H13   1.082044 S    
C62   H35   1.106213 S    
C35   C37   1.417156 A    
O8    V2    2.010967 S    
V3    O20   1.711193 S    
C48   H24   1.075525 S    
C41   C42   1.391455 A    
C31   C62   1.495397 S    
C43   C44   1.398681 A    
C30   H15   1.081858 S    
O7    V1    2.162333 S    
C51   C56   1.408758 A    
C32   H16   1.083792 S    
C39   C40   1.428836 A    
C32   C33   1.377353 A    
C54   C55   1.402372 A    
O9    C4    1.300213 A    
C42   C43   1.394289 A    
C21   C23   1.420258 A    
V4    O20   2.150660 S    
C29   C30   1.387736 A    
C49   C50   1.408778 A    
C57   O16   1.297192 A    
C36   C40   1.447926 A    
O11   V4    2.012053 S    
C9    H4    1.082245 S    
C46   C47   1.407894 A    
C61   H32   1.109344 S    
C18   C19   1.390177 A    
O4    C2    1.303792 A    
C45   H22   1.082289 S    
C31   C32   1.404813 A    
C24   C25   1.427611 A    
C25   C30   1.415236 A    
O18   V4    1.991103 S    
C33   C34   1.379094 A    
C14   C15   1.401139 A    
O2    C1    1.306797 A    
C35   C36   1.437996 A    
C52   C53   1.406392 A    
C39   C44   1.420361 A    
C38   C41   1.414239 A    
C5    H1    1.082205 S    
C13   C59   1.488378 S    
O14   V3    1.990324 S    
O14   C58   1.302426 A    
C62   H33   1.105323 S    
O3    C4    1.296854 A    
C53   C57   1.487658 S    
O1    V2    1.992274 S    
C10   C16   1.498982 S    
C19   C20   1.393878 A    
C48   C49   1.399444 A    
O16   V4    1.987356 S    
C51   C52   1.398898 A    
C28   C29   1.385101 A    
O6    V2    2.006380 S    
C19   H12   1.082616 S    
O9    V2    1.991151 S    
C11   C16   1.408942 A    
C8    C9    1.401582 A    
C21   C22   1.425020 A    
O2    V1    1.990358 S    
C44   H21   1.082240 S    
C23   C24   1.431269 A    
C27   N1    1.421633 S    
C24   C27   1.424797 A    
C31   C36   1.443200 A    
C37   C58   1.493142 S    
C25   C26   1.413301 A    
C27   C28   1.398124 A    
O13   V3    1.994882 S    
O12   C57   1.301563 A    
O1    C2    1.298151 A    
C13   C14   1.406086 A    
C46   H23   1.081916 S    
O5    V1    1.995035 S    
C1    C40   1.505121 S    
N1    O22   1.300504 A    
O8    C3    1.297255 A    
C55   C56   1.410431 A    
C34   H18   1.081488 S    
C28   H14   1.083370 S    
O12   V3    1.998639 S    
O15   C59   1.297196 A    
C14   H7    1.083148 S    
O7    V2    1.703338 S    
C17   C22   1.414875 A    
C12   C13   1.406726 A    
O3    V1    1.995796 S    
V1    O10   1.711174 S    
C61   H30   1.110760 S    
C37   C38   1.411300 A    
H9    C29   1.082693 S    
C52   H27   1.083132 S    
C18   H11   1.082731 S    
C26   C60   1.485753 S    
C53   C54   1.405859 A    
C5    C6    1.400137 A    
C15   C16   1.409909 A    
C38   C39   1.424263 A    
C34   C35   1.417080 A    
O19   V4    2.011093 S    
C62   H34   1.111461 S    
O4    V1    1.998627 S    
C2    C47   1.494132 S    
C51   H26   1.082154 S    
O13   C60   1.294793 A    
C3    C23   1.495533 S    
C47   C48   1.403726 A    
C11   H5    1.082371 S    
C8    H3    1.083057 S    
O15   V3    1.995747 S    
C7    C8    1.406016 A    
C22   C26   1.415538 A    
O11   C58   1.290831 A    
C50   C56   1.499228 S    
