data_mof_unit_42267.cif
_audit_creation_date              2012-12-10T17:23:36-0500
_audit_creation_method            fapswitch 2.2
_symmetry_space_group_name_H-M    P1
_symmetry_Int_Tables_number       1
_space_group_crystal_system       triclinic
_cell_length_a                    10.423556
_cell_length_b                    10.258245
_cell_length_c                    15.674945
_cell_angle_alpha                 92.713965
_cell_angle_beta                  77.487438
_cell_angle_gamma                 93.869661
_cell_volume                      1631.61926331

loop_
_atom_site_label
_atom_site_type_symbol
_atom_type_description
_atom_site_fract_x
_atom_site_fract_y
_atom_site_fract_z
_atom_type_partial_charge
C1    C     C_R   0.553099 0.735575 0.491785 1.006730
C2    C     C_3   0.493485 0.356006 0.960792 0.349258
C3    C     C_3   0.584858 0.550818 0.955020 0.339243
C4    C     C_3   0.398241 0.394656 0.046030 0.345566
C5    C     C_1   0.480891 0.497466 0.753237 -0.180989
C6    C     C_1   0.513561 0.480165 0.247116 -0.151416
C7    C     C_3   0.371895 0.522592 0.006389 -0.220396
C8    C     C_3   0.611375 0.422894 0.994211 -0.219652
C9    C     C_3   0.468720 0.483113 0.920639 -0.046248
C10   C     C_3   0.514428 0.461944 0.080241 -0.049102
C11   C     C_1   0.469224 0.492234 0.829864 0.071543
C12   C     C_R   0.447387 0.264187 0.502642 0.990851
C13   C     C_1   0.519383 0.467343 0.170854 0.067011
C14   C     C_2   0.575472 0.873598 0.472690 -0.408162
C15   C     C_2   0.427566 0.123935 0.489643 -0.380686
C16   C     C_R   0.742331 0.362302 0.972405 0.153985
C17   C     C_R   0.807989 0.350098 0.884200 -0.096549
C18   C     C_R   0.927394 0.289742 0.861219 -0.189770
C19   C     C_R   0.981232 0.239250 0.925889 -0.107875
C20   C     C_R   0.915754 0.249368 0.013470 -0.126489
C21   C     C_R   0.796923 0.311497 0.037144 -0.150375
C22   C     C_R   0.234696 0.569329 0.025001 0.164318
C23   C     C_2   0.510860 0.922978 0.417097 0.330836
C24   C     C_R   0.180373 0.621275 0.108676 -0.106734
C25   C     C_R   0.049372 0.655257 0.129684 -0.180662
C26   C     C_R   0.970732 0.634817 0.068118 -0.107712
C27   C     C_R   0.023559 0.581623 0.985312 -0.139561
C28   C     C_R   0.155270 0.549449 0.963343 -0.153506
C29   C     C_R   0.114690 0.356125 0.455268 0.194840
C30   C     C_R   0.087457 0.241204 0.502870 -0.154646
C31   C     C_R   0.125764 0.121339 0.462465 -0.182286
C32   C     C_R   0.190902 0.115104 0.374726 -0.104817
C33   C     C_R   0.219008 0.228966 0.327177 -0.104225
C34   C     C_2   0.499272 0.065253 0.418181 0.339501
C35   C     C_R   0.179941 0.348894 0.366936 -0.089139
C36   C     C_R   0.883664 0.643051 0.546224 0.197920
C37   C     C_R   0.821529 0.648759 0.635180 -0.080827
C38   C     C_R   0.780453 0.767637 0.675779 -0.130486
C39   C     C_R   0.802485 0.881708 0.628165 -0.142452
C40   C     C_R   0.865473 0.876985 0.539884 -0.182004
C41   C     C_R   0.906489 0.758340 0.498907 -0.130443
C42   C     C_R   0.124597 0.650218 0.600284 0.252709
C43   C     C_R   0.081178 0.616185 0.687932 -0.178688
C44   C     C_R   0.062380 0.713768 0.754060 -0.134644
C45   C     C_2   0.928487 0.518659 0.501964 -0.065410
C46   C     C_R   0.091431 0.844956 0.733645 -0.089189
C47   C     C_R   0.140544 0.878886 0.646996 -0.174282
C48   C     C_R   0.158689 0.781766 0.580484 -0.117984
C49   C     C_R   0.879410 0.359514 0.394157 0.250235
C50   C     C_R   0.848349 0.225403 0.405271 -0.068570
C51   C     C_R   0.876914 0.137412 0.333895 -0.137027
C52   C     C_R   0.932818 0.183485 0.250776 -0.113018
C53   C     C_R   0.958007 0.317903 0.238694 -0.142530
C54   C     C_R   0.929082 0.405958 0.309995 -0.171529
C55   C     C_2   0.071035 0.481858 0.498224 -0.055341
C56   C     C_R   0.495309 0.501010 0.662549 0.873853
C57   C     C_R   0.504007 0.496107 0.337463 0.967360
C58   C     C_3   0.489372 0.589518 0.039815 0.344183
H1    H     H_    0.368556 0.067406 0.542494 0.086107
H2    H     H_    0.957290 0.207891 0.062557 0.121978
H3    H     H_    0.747195 0.317996 0.105255 0.149217
H4    H     H_    0.238785 0.633725 0.158132 0.167719
H5    H     H_    0.008321 0.695620 0.194108 0.129977
H6    H     H_    0.868558 0.658842 0.084803 0.144049
H7    H     H_    0.961338 0.563055 0.938815 0.143220
H8    H     H_    0.193584 0.505779 0.899468 0.140054
H9    H     H_    0.608992 0.077397 0.301930 0.337050
H10   H     H_    0.411924 0.895503 0.325953 0.332047
H11   H     H_    0.036616 0.244597 0.570902 0.110040
H12   H     H_    0.628058 0.937679 0.512184 0.102103
H13   H     H_    0.105673 0.033206 0.499097 0.134500
H14   H     H_    0.219283 0.022010 0.343612 0.126193
H15   H     H_    0.269043 0.223980 0.259149 0.191784
H16   H     H_    0.197192 0.435528 0.328225 0.140236
H17   H     H_    0.807366 0.561692 0.673413 0.135320
H18   H     H_    0.732647 0.771465 0.744318 0.183135
H19   H     H_    0.770692 0.973744 0.659583 0.139025
H20   H     H_    0.880571 0.965005 0.502858 0.128826
H21   H     H_    0.955015 0.755948 0.430397 0.108847
H22   H     H_    0.060921 0.514513 0.704595 0.114906
H23   H     H_    0.739319 0.666188 0.946930 0.336159
H24   H     H_    0.025532 0.688180 0.821104 0.139711
H25   H     H_    0.076890 0.920193 0.785044 0.132038
H26   H     H_    0.164806 0.980435 0.631775 0.125521
H27   H     H_    0.198570 0.808677 0.513554 0.144900
H28   H     H_    0.804296 0.189251 0.469433 0.113715
H29   H     H_    0.855724 0.033627 0.343025 0.126837
H30   H     H_    0.956404 0.114711 0.196046 0.127492
H31   H     H_    0.000939 0.354277 0.174531 0.162305
H32   H     H_    0.947702 0.509857 0.300366 0.118291
H33   H     H_    0.241185 0.282691 0.055261 0.338041
H34   H     H_    0.471708 0.774291 0.039289 0.348128
H35   H     H_    0.508800 0.170866 0.960963 0.350294
H36   H     H_    0.766579 0.387316 0.833140 0.159264
H37   H     H_    0.977701 0.281468 0.793276 0.126351
H38   H     H_    0.073374 0.191758 0.908165 0.134895
N1    N     N_2   0.842700 0.448880 0.465440 -0.160702
N2    N     N_2   0.157300 0.551120 0.534560 -0.156235
O1    O     O_R   0.431060 0.692470 0.506960 -0.577471
O2    O     O_3   0.302534 0.308894 0.094137 -0.786626
O3    O     O_3   0.492508 0.713382 0.080961 -0.757971
O4    O     O_3   0.490589 0.232699 0.918933 -0.758282
O5    O     O_3   0.562571 0.138132 0.347622 -0.759465
O6    O     O_3   0.453267 0.840765 0.361712 -0.757644
O7    O     O_R   0.568940 0.307530 0.493040 -0.586037
O8    O     O_R   0.651120 0.659650 0.484770 -0.606921
O9    O     O_R   0.348880 0.340350 0.515230 -0.607820
O10   O     O_R   0.389990 0.516420 0.634310 -0.615684
O11   O     O_R   0.610010 0.483580 0.365690 -0.599083
O12   O     O_R   0.610050 0.483600 0.612130 -0.622324
O13   O     O_R   0.389950 0.516400 0.387870 -0.606315
O14   O     O_3   0.680447 0.636890 0.907019 -0.789649
Zn1   Zn    Zn3+2 0.353060 0.521920 0.514810 0.962972
Zn2   Zn    Zn3+2 0.646940 0.478080 0.485190 0.960458

loop_
_geom_bond_atom_site_label_1
_geom_bond_atom_site_label_2
_ccdc_geom_bond_type
C14   C23   D    
C35   H16   S    
C16   C21   A    
C57   O13   A    
C5    C56   S    
C28   H8    S    
C19   C20   A    
C1    O1    A    
H9    O5    S    
C32   H14   S    
C38   H18   S    
C53   C54   A    
C26   C27   A    
C37   C38   A    
O8    Zn2   S    
C3    C9    S    
C39   H19   S    
C36   C37   A    
C10   C58   S    
C54   H32   S    
C44   H24   S    
C42   N2    S    
C30   C31   A    
C2    O4    S    
C49   C54   A    
C18   C19   A    
C25   H5    S    
C26   H6    S    
C56   O10   A    
C57   O11   A    
C23   O6    S    
C16   C17   A    
C12   C15   S    
H33   O2    S    
C20   H2    S    
O12   Zn2   S    
C15   C34   D    
C21   H3    S    
C1    O8    A    
C31   H13   S    
C37   H17   S    
C8    C16   S    
C22   C28   A    
C18   H37   S    
C14   H12   S    
C6    C57   S    
C36   C41   A    
C4    C7    S    
C56   O12   A    
C44   C46   A    
C50   C51   A    
C38   C39   A    
C51   C52   A    
O9    Zn1   S    
O7    Zn2   S    
C52   H30   S    
C24   C25   A    
C3    C8    S    
C51   H29   S    
C39   C40   A    
N2    Zn1   S    
C29   C55   S    
C25   C26   A    
O10   Zn1   S    
C2    C4    S    
C43   C44   A    
O1    Zn1   S    
C29   C30   A    
C27   H7    S    
C47   C48   A    
H23   O14   S    
C3    O14   S    
C23   C34   S    
C17   C18   A    
C36   C45   S    
O13   Zn1   S    
C58   O3    S    
C42   C48   A    
C47   H26   S    
C9    C11   S    
H34   O3    S    
O11   Zn2   S    
C33   H15   S    
C40   C41   A    
C4    O2    S    
C53   H31   S    
C40   H20   S    
C42   C43   A    
C4    C10   S    
C30   H11   S    
C52   C53   A    
C7    C9    S    
C46   C47   A    
C24   H4    S    
C7    C58   S    
C15   H1    S    
C31   C32   A    
C2    C8    S    
H10   O6    S    
C10   C13   S    
H35   O4    S    
C41   H21   S    
C12   O9    A    
C5    C11   T    
C17   H36   S    
C7    C22   S    
C29   C35   A    
C34   O5    S    
C32   C33   A    
C43   H22   S    
C45   N1    D    
C6    C13   T    
C12   O7    A    
C55   N2    D    
C33   C35   A    
C22   C24   A    
C50   H28   S    
C49   N1    S    
C46   H25   S    
C3    C58   S    
C20   C21   A    
C45   C55   S    
C8    C10   S    
C49   C50   A    
C27   C28   A    
C48   H27   S    
C1    C14   S    
N1    Zn2   S    
C2    C9    S    
C19   H38   S    
