data_mof_unit_15450.cif
_audit_creation_date              2012-12-10T18:06:43-0500
_audit_creation_method            fapswitch 2.2
_symmetry_space_group_name_H-M    P1
_symmetry_Int_Tables_number       1
_space_group_crystal_system       triclinic
_cell_length_a                    12.612353
_cell_length_b                    13.14488
_cell_length_c                    15.376619
_cell_angle_alpha                 84.173748
_cell_angle_beta                  98.655757
_cell_angle_gamma                 96.283233
_cell_volume                      2495.68462874

loop_
_atom_site_label
_atom_site_type_symbol
_atom_type_description
_atom_site_fract_x
_atom_site_fract_y
_atom_site_fract_z
_atom_type_partial_charge
C1    C     C_R   0.445120 0.308315 0.513845 0.836952
C2    C     C_R   0.454486 0.576638 0.093979 0.112021
C3    C     C_R   0.344953 0.557409 0.057603 0.141038
C4    C     C_R   0.536235 0.578075 0.038838 0.028132
C5    C     C_R   0.506191 0.570243 0.947470 0.080519
C6    C     C_R   0.395456 0.569241 0.911983 -0.227702
C7    C     C_R   0.316508 0.561933 0.966584 -0.242997
C8    C     C_R   0.644612 0.569204 0.074359 -0.204457
C9    C     C_R   0.716485 0.531682 0.027937 0.065047
C10   C     C_R   0.688047 0.520604 0.935779 0.050166
C11   C     C_R   0.584802 0.550044 0.895907 0.046953
C12   C     C_R   0.437055 0.517376 0.335628 0.860503
C13   C     C_R   0.752058 0.476162 0.881743 0.080240
C14   C     C_R   0.699756 0.442118 0.799473 0.081638
C15   C     C_R   0.558519 0.550848 0.805052 -0.307731
C16   C     C_R   0.587444 0.928595 0.345934 0.105209
C17   C     C_R   0.582847 0.800101 0.469912 -0.108280
C18   C     C_R   0.376813 0.166039 0.618886 0.084624
C19   C     C_R   0.371746 0.060982 0.646767 -0.176760
C20   C     C_R   0.413667 0.992740 0.600824 -0.216617
C21   C     C_R   0.460503 0.026416 0.523925 0.112331
C22   C     C_R   0.447391 0.127161 0.486828 0.072451
C23   C     C_R   0.556489 0.691411 0.490848 0.861253
C24   C     C_R   0.515284 0.962370 0.480185 0.062425
C25   C     C_R   0.535666 0.993183 0.391630 0.100113
C26   C     C_R   0.502997 0.087137 0.351079 -0.259674
C27   C     C_R   0.462220 0.153998 0.398554 -0.222497
C28   C     C_R   0.550744 0.868857 0.521291 0.028402
C29   C     C_R   0.610698 0.832427 0.386788 -0.277906
C30   C     C_R   0.417197 0.199021 0.537906 -0.149219
C31   C     C_R   0.143428 0.645987 0.627861 0.006648
C32   C     C_R   0.766093 0.369605 0.403655 0.201003
C33   C     C_R   0.865101 0.328457 0.405307 0.058923
C34   C     C_R   0.564940 0.487245 0.664183 0.841075
C35   C     C_R   0.957048 0.376382 0.448754 -0.223971
C36   C     C_R   0.953674 0.465207 0.490960 -0.018705
C37   C     C_R   0.852236 0.494985 0.500174 0.170172
C38   C     C_R   0.048696 0.520958 0.528030 -0.050862
C39   C     C_R   0.044129 0.598205 0.586035 0.140156
C40   C     C_R   0.940903 0.623259 0.598364 0.027181
C41   C     C_R   0.848163 0.571056 0.556191 -0.262916
C42   C     C_R   0.148757 0.503549 0.505800 -0.066980
C43   C     C_R   0.239737 0.619922 0.605182 -0.044259
C44   C     C_R   0.402903 0.538091 0.240627 -0.092900
C45   C     C_R   0.608424 0.490858 0.757766 -0.115121
C46   C     C_R   0.265768 0.529400 0.112917 -0.209148
C47   C     C_R   0.295816 0.513580 0.203858 -0.232490
C48   C     C_R   0.477885 0.583897 0.185585 0.031220
H1    H     H_    0.232788 0.554074 0.937582 0.151213
H2    H     H_    0.645055 0.779672 0.351912 0.157435
H3    H     H_    0.511372 0.111891 0.283227 0.161303
H4    H     H_    0.403555 0.912917 0.624647 0.163084
H5    H     H_    0.337974 0.030363 0.705519 0.151104
H6    H     H_    0.439689 0.226536 0.364963 0.138899
H7    H     H_    0.316505 0.654743 0.635319 0.130058
H8    H     H_    0.494789 0.594658 0.770770 0.159868
H9    H     H_    0.157619 0.454093 0.456126 0.132912
H10   H     H_    0.030141 0.339886 0.450952 0.159390
H11   H     H_    0.773614 0.591513 0.570057 0.219432
H12   H     H_    0.182078 0.512538 0.085461 0.139385
H13   H     H_    0.235566 0.483017 0.245374 0.161237
H14   H     H_    0.365936 0.562923 0.842980 0.147023
H15   H     H_    0.672987 0.576802 0.142736 0.179192
N1    N     N_R   0.239390 0.551900 0.544730 -0.109088
N2    N     N_R   0.759950 0.448600 0.455730 -0.144412
O1    O     O_R   0.374950 0.371210 0.521360 -0.619868
O2    O     O_R   0.542050 0.338030 0.492790 -0.617793
O3    O     O_R   0.368720 0.526070 0.390200 -0.599628
O4    O     O_R   0.535820 0.492890 0.361630 -0.633759
O5    O     O_R   0.457950 0.661970 0.507210 -0.603032
O6    O     O_R   0.625050 0.628790 0.478640 -0.638158
O7    O     O_R   0.464180 0.507110 0.638370 -0.623895
O8    O     O_R   0.631280 0.473930 0.609800 -0.627731
Zn1   Zn    Zn3+2 0.388420 0.522150 0.519080 0.924806
Zn2   Zn    Zn3+2 0.611580 0.477850 0.480920 0.901979
C49   C     C_3   0.873156 0.466968 0.906153 -0.452983
C50   C     C_3   0.940461 0.510394 0.832144 -0.333533
C51   C     C_3   0.038204 0.450753 0.834005 -0.916131
H16   H     H_    0.082753 0.442441 0.901869 0.259775
H17   H     H_    0.011956 0.372975 0.811887 0.261204
H18   H     H_    0.092868 0.491710 0.788895 0.253610
H19   H     H_    0.893571 0.508902 0.765430 0.232449
H20   H     H_    0.968774 0.592328 0.841036 0.209479
H21   H     H_    0.908965 0.512030 0.961121 0.195516
H22   H     H_    0.885855 0.385346 0.927552 0.202454
C52   C     C_3   0.611767 0.955119 0.251991 -0.425396
C53   C     C_3   0.711287 0.032671 0.249021 -0.349635
C54   C     C_3   0.735045 0.060116 0.154628 -0.884327
H23   H     H_    0.751748 0.990567 0.125532 0.266749
H24   H     H_    0.665509 0.094179 0.113290 0.259152
H25   H     H_    0.806820 0.117175 0.154746 0.248081
H26   H     H_    0.698297 0.103797 0.276805 0.215579
H27   H     H_    0.782345 0.999935 0.289379 0.231708
H28   H     H_    0.627594 0.885053 0.223038 0.210205
H29   H     H_    0.540506 0.983905 0.208989 0.195761
N3    N     N_3   0.565318 0.847206 0.615660 -0.481708
H30   H     H_    0.518803 0.779303 0.632525 0.177383
H31   H     H_    0.646273 0.835933 0.636855 0.180253
C55   C     C_3   0.339121 0.242774 0.673326 -0.375806
C56   C     C_3   0.315727 0.202145 0.766518 -0.402922
C57   C     C_3   0.291603 0.289146 0.817214 -0.856651
H32   H     H_    0.362489 0.347265 0.825617 0.267844
H33   H     H_    0.221112 0.326932 0.781386 0.263856
H34   H     H_    0.273007 0.257740 0.883599 0.251438
H35   H     H_    0.244676 0.143958 0.762057 0.225242
H36   H     H_    0.386818 0.166439 0.803875 0.226739
H37   H     H_    0.402345 0.307899 0.681516 0.210103
H38   H     H_    0.265040 0.272990 0.635806 0.220110
N4    N     N_3   0.926921 0.705462 0.648786 -0.472695
H39   H     H_    0.878199 0.677004 0.696752 0.169803
H40   H     H_    0.885634 0.760067 0.606510 0.190074
C58   C     C_3   0.153459 0.720878 0.698072 -0.402022
C59   C     C_3   0.145671 0.831468 0.656371 -0.284603
C60   C     C_3   0.134491 0.903849 0.725271 -0.909107
H41   H     H_    0.059259 0.880597 0.754571 0.270961
H42   H     H_    0.204587 0.902694 0.778479 0.254457
H43   H     H_    0.130834 0.983352 0.693520 0.247260
H44   H     H_    0.219251 0.857679 0.625827 0.205651
H45   H     H_    0.076209 0.836040 0.602941 0.238217
H46   H     H_    0.094363 0.697285 0.744558 0.226004
H47   H     H_    0.232897 0.718168 0.740654 0.172033
C61   C     C_3   0.670583 0.324907 0.342838 -0.408043
C62   C     C_3   0.671117 0.371793 0.247871 -0.358825
C63   C     C_3   0.578283 0.322726 0.185381 -0.878786
H48   H     H_    0.587330 0.240064 0.183419 0.254912
H49   H     H_    0.499772 0.331373 0.206928 0.259813
H50   H     H_    0.578770 0.360363 0.117548 0.267502
H51   H     H_    0.662605 0.454490 0.247128 0.240272
H52   H     H_    0.748158 0.363373 0.224139 0.230490
H53   H     H_    0.669900 0.240614 0.346072 0.178214
H54   H     H_    0.594188 0.336592 0.361677 0.271335
N5    N     N_3   0.874788 0.235650 0.366545 -0.473481
H55   H     H_    0.847943 0.243594 0.298893 0.189175
H56   H     H_    0.828722 0.175102 0.396786 0.180824
C64   C     C_3   0.740612 0.355269 0.758024 -0.411808
C65   C     C_3   0.654590 0.263807 0.745084 -0.340689
C66   C     C_3   0.695820 0.178750 0.702411 -0.848960
H57   H     H_    0.717197 0.207900 0.636256 0.269625
H58   H     H_    0.767705 0.149989 0.744571 0.251584
H59   H     H_    0.631858 0.113930 0.694173 0.262322
H60   H     H_    0.630707 0.232550 0.810000 0.217796
H61   H     H_    0.582190 0.288253 0.701710 0.218815
H62   H     H_    0.769412 0.383842 0.694526 0.228299
H63   H     H_    0.810782 0.324506 0.800459 0.212630
N6    N     N_3   0.807366 0.490615 0.081982 -0.496910
H64   H     H_    0.819331 0.418229 0.064920 0.188038
H65   H     H_    0.875104 0.544145 0.084060 0.182415
N7    N     N_3   0.562619 0.658007 0.218404 -0.496907
H66   H     H_    0.615940 0.624079 0.268606 0.200880
H67   H     H_    0.526404 0.713958 0.243912 0.181672

loop_
_geom_bond_atom_site_label_1
_geom_bond_atom_site_label_2
_ccdc_geom_bond_type
C12   O4    A    
C57   H32   S    
C42   N1    A    
C17   C29   A    
C19   C20   A    
C4    C8    A    
C49   H21   S    
C60   H41   S    
C27   H6    S    
C64   C65   S    
C50   C51   S    
C55   H38   S    
C66   H58   S    
C56   H35   S    
C17   C23   S    
C31   C43   A    
C35   H10   S    
C36   C37   A    
N7    H67   S    
C38   C42   A    
C3    C7    A    
N4    H40   S    
C5    C6    A    
C51   H17   S    
C14   C64   S    
C50   H20   S    
O3    Zn1   S    
O1    Zn1   S    
C48   N7    S    
C18   C19   A    
C1    C30   S    
C65   H61   S    
C52   H28   S    
C1    O2    A    
C59   H45   S    
C11   C15   A    
C35   C36   A    
N5    H55   S    
C37   N2    A    
O5    Zn1   S    
C31   C58   S    
C54   H25   S    
C18   C30   A    
C9    C10   A    
C44   C47   A    
C19   H5    S    
C64   H62   S    
C57   H33   S    
C13   C14   A    
C62   H52   S    
C16   C52   S    
O8    Zn2   S    
C23   O5    A    
C42   H9    S    
C58   C59   S    
N6    H65   S    
C43   N1    A    
N6    H64   S    
C14   C45   A    
C29   H2    S    
C66   H59   S    
C32   N2    A    
C32   C61   S    
C62   C63   S    
C49   C50   S    
C7    H1    S    
O7    Zn1   S    
C10   C11   A    
C39   C40   A    
C58   H46   S    
C52   C53   S    
C8    C9    A    
C34   O8    A    
C2    C48   A    
C16   C29   A    
N3    H31   S    
C2    C4    A    
C65   H60   S    
C23   O6    A    
C12   O3    A    
C55   C56   S    
C13   C49   S    
N3    H30   S    
C20   C21   A    
C1    O1    A    
C26   C27   A    
C34   C45   S    
C24   C25   A    
C41   H11   S    
C6    C7    A    
C63   H50   S    
C33   N5    S    
C43   H7    S    
C40   C41   A    
C54   H24   S    
C57   H34   S    
C22   C27   A    
C26   H3    S    
O2    Zn2   S    
C18   C55   S    
C15   C45   A    
C34   O7    A    
C61   H54   S    
C53   H26   S    
C63   H49   S    
C59   C60   S    
C16   C25   A    
C46   C47   A    
C64   H63   S    
C22   C30   A    
C46   H12   S    
C51   H16   S    
C17   C28   A    
C24   C28   A    
C4    C5    A    
C10   C13   A    
C47   H13   S    
C60   H42   S    
C5    C11   A    
C40   N4    S    
C55   H37   S    
C66   H57   S    
C3    C46   A    
C56   H36   S    
N2    Zn2   S    
C28   N3    S    
C32   C33   A    
C6    H14   S    
C36   C38   A    
C2    C3    A    
C25   C26   A    
C58   H47   S    
C12   C44   S    
N4    H39   S    
C15   H8    S    
O6    Zn2   S    
C51   H18   S    
C62   H51   S    
C38   C39   A    
C50   H19   S    
N5    H56   S    
C53   H27   S    
C9    N6    S    
C56   C57   S    
C33   C35   A    
C31   C39   A    
O4    Zn2   S    
N7    H66   S    
C37   C41   A    
C60   H43   S    
C52   H29   S    
C8    H15   S    
C59   H44   S    
C54   H23   S    
C53   C54   S    
C20   H4    S    
C21   C24   A    
N1    Zn1   S    
C65   C66   S    
C61   C62   S    
C21   C22   A    
C49   H22   S    
C61   H53   S    
C44   C48   A    
C63   H48   S    
