data_mof_unit_18966.cif
_audit_creation_date              2012-12-11T17:01:24-0500
_audit_creation_method            fapswitch 2.2
_symmetry_space_group_name_H-M    P1
_symmetry_Int_Tables_number       1
_space_group_crystal_system       monoclinic
_cell_length_a                    19.391897
_cell_length_b                    7.109856
_cell_length_c                    17.591505
_cell_angle_alpha                 90.0
_cell_angle_beta                  108.576377
_cell_angle_gamma                 90.0
_cell_volume                      2299.04009196

loop_
_atom_site_label
_atom_site_type_symbol
_atom_type_description
_atom_site_fract_x
_atom_site_fract_y
_atom_site_fract_z
_atom_type_partial_charge
O1    O     O_R   0.413720 0.494330 0.415730 -0.535895
O2    O     O_R   0.586280 0.994330 0.584270 -0.535894
O3    O     O_R   0.560210 0.819300 0.430070 -0.511390
O4    O     O_R   0.439790 0.319300 0.569930 -0.511391
C1    C     C_R   0.582280 0.655700 0.415396 0.755254
C2    C     C_R   0.417719 0.155700 0.584604 0.755254
O5    O     O_R   0.412670 0.823730 0.406310 -0.532957
O6    O     O_R   0.587330 0.323730 0.593690 -0.532957
O7    O     O_R   0.437690 0.998790 0.560340 -0.546280
O8    O     O_R   0.562310 0.498790 0.439660 -0.546280
C3    C     C_R   0.385436 0.655221 0.383383 0.719648
C4    C     C_R   0.614564 0.155221 0.616617 0.719647
O9    O     O_3   0.508380 0.662350 0.550560 -0.362989
O10   O     O_3   0.491620 0.162350 0.449440 -0.362988
V1    V     V_3+5 0.498450 0.935370 0.490620 1.600190
V2    V     V_3+5 0.501550 0.435370 0.509380 1.600190
C5    C     C_R   0.698641 0.990496 0.737785 0.086847
C6    C     C_R   0.301359 0.490496 0.262215 0.086847
C7    C     C_R   0.681793 0.147113 0.686852 -0.158738
C8    C     C_R   0.318206 0.647113 0.313147 -0.158738
C9    C     C_R   0.730571 0.299914 0.706411 -0.075827
C10   C     C_R   0.269429 0.799914 0.293589 -0.075827
H1    H     H_    0.719905 0.424356 0.669268 0.142409
H2    H     H_    0.280095 0.924356 0.330732 0.142409
C11   C     C_R   0.796243 0.288447 0.770672 -0.178287
C12   C     C_R   0.203757 0.788447 0.229328 -0.178287
H3    H     H_    0.833670 0.405665 0.781612 0.131784
H4    H     H_    0.166329 0.905665 0.218388 0.131784
C13   C     C_R   0.815517 0.123003 0.816896 -0.098512
C14   C     C_R   0.184483 0.623003 0.183104 -0.098512
C15   C     C_R   0.763787 0.978489 0.800930 0.025512
C16   C     C_R   0.236213 0.478489 0.199070 0.025512
C17   C     C_3   0.771881 0.774107 0.786985 -0.466615
C18   C     C_3   0.228119 0.274107 0.213015 -0.466615
C19   C     C_3   0.700732 0.787295 0.718241 0.490138
C20   C     C_3   0.299268 0.287295 0.281758 0.490137
H5    H     H_    0.768254 0.686571 0.837944 0.205350
H6    H     H_    0.231746 0.186571 0.162056 0.205350
H7    H     H_    0.819555 0.744675 0.766699 0.132417
H8    H     H_    0.180445 0.244675 0.233300 0.132417
H9    H     H_    0.705719 0.761292 0.657887 0.041827
H10   H     H_    0.294281 0.261292 0.342113 0.041828
C21   C     C_R   0.319861 0.302125 0.630889 0.620903
C22   C     C_R   0.680139 0.802125 0.369111 0.620902
C23   C     C_R   0.366994 0.149519 0.632505 -0.225977
C24   C     C_R   0.633005 0.649519 0.367495 -0.225977
C25   C     C_R   0.365461 0.991549 0.679963 -0.222241
C26   C     C_R   0.634539 0.491549 0.320037 -0.222241
C27   C     C_R   0.318911 0.986016 0.726823 0.161336
C28   C     C_R   0.681088 0.486016 0.273177 0.161336
C29   C     C_R   0.272037 0.139130 0.725282 -0.105078
C30   C     C_R   0.727963 0.639130 0.274717 -0.105078
C31   C     C_R   0.271999 0.297660 0.676725 -0.160042
C32   C     C_R   0.728001 0.797660 0.323275 -0.160042
C33   C     C_R   0.318601 0.829802 0.775500 -0.071736
C34   C     C_R   0.681399 0.329802 0.224499 -0.071736
C35   C     C_R   0.271754 0.823807 0.821652 -0.203127
C36   C     C_R   0.728246 0.323807 0.178348 -0.203127
C37   C     C_R   0.224542 0.974245 0.820237 0.123027
C38   C     C_R   0.775457 0.474245 0.179762 0.123027
C39   C     C_R   0.224941 0.133181 0.772309 0.093170
C40   C     C_R   0.775059 0.633181 0.227691 0.093170
C41   C     C_R   0.178247 0.286006 0.771350 0.007389
C42   C     C_R   0.821753 0.786007 0.228650 0.007389
C43   C     C_R   0.177973 0.441629 0.722437 -0.292324
C44   C     C_R   0.822027 0.941629 0.277563 -0.292324
C45   C     C_R   0.223889 0.447624 0.675216 0.679873
C46   C     C_R   0.776111 0.947624 0.324784 0.679873
C47   C     C_R   0.177039 0.968547 0.866009 -0.211623
C48   C     C_R   0.822961 0.468547 0.133991 -0.211623
C49   C     C_R   0.130866 0.121429 0.866034 -0.079885
C50   C     C_R   0.869133 0.621429 0.133966 -0.079885
C51   C     C_R   0.132229 0.280271 0.818893 -0.174230
C52   C     C_R   0.867771 0.780271 0.181107 -0.174229
H11   H     H_    0.401463 0.873917 0.681448 0.172634
H12   H     H_    0.598537 0.373917 0.318552 0.172634
H13   H     H_    0.354285 0.711324 0.777446 0.121767
H14   H     H_    0.645715 0.211324 0.222554 0.121767
H15   H     H_    0.272284 0.700940 0.858288 0.124724
H16   H     H_    0.727716 0.200940 0.141712 0.124724
H17   H     H_    0.176807 0.845982 0.902612 0.126532
H18   H     H_    0.823193 0.345982 0.097388 0.126532
H19   H     H_    0.096536 0.398165 0.818110 0.130545
H20   H     H_    0.903463 0.898165 0.181890 0.130545
H21   H     H_    0.142039 0.559477 0.720677 0.165213
H22   H     H_    0.857961 0.059477 0.279323 0.165213
O11   O     O_R   0.937800 0.775460 0.060470 -0.538994
O12   O     O_R   0.062200 0.275460 0.939530 -0.538994
O13   O     O_R   0.087350 0.441340 0.093710 -0.536537
O14   O     O_R   0.912650 0.941340 0.906290 -0.536537
C53   C     C_R   0.114699 0.610301 0.116428 0.707618
C54   C     C_R   0.885301 0.110301 0.883572 0.707618
O15   O     O_R   0.939820 0.446010 0.069950 -0.542110
O16   O     O_R   0.060180 0.946010 0.930050 -0.542111
O17   O     O_R   0.913690 0.271230 0.915700 -0.541266
O18   O     O_R   0.086310 0.771230 0.084300 -0.541267
C55   C     C_R   0.918551 0.614231 0.084744 0.704865
C56   C     C_R   0.081449 0.114231 0.915256 0.704865
O19   O     O_3   0.991670 0.603050 0.949510 -0.375619
O20   O     O_3   0.008330 0.103050 0.050490 -0.375619
V3    V     V_3+5 0.001550 0.329940 0.009370 1.408794
V4    V     V_3+5 0.998450 0.829940 0.990630 1.408795
F1    F     F_    0.220864 0.601012 0.628292 -0.624451
F2    F     F_    0.779136 0.101012 0.371708 -0.624451
F3    F     F_    0.644923 0.688974 0.733458 -0.666532
F4    F     F_    0.355077 0.188974 0.266542 -0.666531
F5    F     F_    0.319708 0.453018 0.583359 -0.640506
F6    F     F_    0.680291 0.953018 0.416641 -0.640506

loop_
_geom_bond_atom_site_label_1
_geom_bond_atom_site_label_2
_ccdc_geom_bond_type
C44   C46   A    
C41   C43   A    
C2    C23   S    
O18   V4    S    
C26   H12   S    
C20   H10   S    
O1    C3    A    
O2    C4    A    
C2    O7    A    
O12   V3    S    
C45   F1    S    
C25   C27   A    
O5    C3    A    
C17   H7    S    
C18   H8    S    
C7    C9    A    
C33   H13   S    
C35   C37   A    
C32   C46   A    
O16   C56   A    
C36   C38   A    
C34   H14   S    
C38   C40   A    
C23   C25   A    
C47   C49   A    
C35   H15   S    
O14   V4    S    
C40   C42   A    
C17   C19   S    
C53   O18   A    
C21   C31   A    
C22   C24   A    
C27   C29   A    
C29   C39   A    
C28   C30   A    
C15   C17   S    
O13   C53   A    
C18   C20   S    
C36   H16   S    
O5    V1    S    
O6    V2    S    
C48   H18   S    
C30   C32   A    
C50   C55   S    
C22   F6    S    
C11   C13   A    
C49   C56   S    
C24   C26   A    
C3    C8    S    
C37   C39   A    
C20   F4    S    
C50   C52   A    
O15   V3    S    
C49   C51   A    
C41   C51   A    
C43   C45   A    
C27   C33   A    
C54   O17   A    
C28   C34   A    
C29   C31   A    
C42   C44   A    
O4    V2    S    
C19   F3    S    
O11   V4    S    
O14   C54   A    
C38   C48   A    
O6    C4    A    
O20   V4    S    
O1    V2    S    
C21   F5    S    
O2    V1    S    
C21   C23   A    
C19   H9    S    
C37   C47   A    
O4    C2    A    
O19   V3    S    
C8    C10   A    
C12   C14   A    
C33   C35   A    
C5    C15   A    
C10   H2    S    
C6    C16   A    
O15   C55   A    
O3    V1    S    
C9    C11   A    
O13   V3    S    
C18   H6    S    
C39   C41   A    
C46   F2    S    
C52   H20   S    
C14   C53   S    
O3    C1    A    
C44   H22   S    
C48   C50   A    
C43   H21   S    
C11   H3    S    
C1    C24   S    
C12   H4    S    
C9    H1    S    
O7    V1    S    
C25   H11   S    
C1    O8    A    
C13   C15   A    
C30   C40   A    
C14   C16   A    
C4    C7    S    
C26   C28   A    
O20   V3    S    
C5    C7    A    
C34   C36   A    
C6    C8    A    
C31   C45   A    
C17   H5    S    
C47   H17   S    
C22   C32   A    
O19   V4    S    
O16   V4    S    
C10   C12   A    
O9    V2    S    
C42   C52   A    
O10   V1    S    
O8    V2    S    
C5    C19   S    
C6    C20   S    
C51   H19   S    
C13   C54   S    
O12   C56   A    
O17   V3    S    
C16   C18   S    
O11   C55   A    
