data_mof_unit_57254.cif
_audit_creation_date              2012-12-10T18:11:44-0500
_audit_creation_method            fapswitch 2.2
_symmetry_space_group_name_H-M    P1
_symmetry_Int_Tables_number       1
_space_group_crystal_system       triclinic
_cell_length_a                    10.499483
_cell_length_b                    12.58977
_cell_length_c                    13.15893
_cell_angle_alpha                 82.213436
_cell_angle_beta                  90.915531
_cell_angle_gamma                 102.262272
_cell_volume                      1683.92404609

loop_
_atom_site_label
_atom_site_type_symbol
_atom_type_description
_atom_site_fract_x
_atom_site_fract_y
_atom_site_fract_z
_atom_type_partial_charge
C1    C     C_R   0.486999 0.438893 0.691206 0.872100
C2    C     C_R   0.451146 0.470558 0.963328 0.030713
C3    C     C_R   0.518364 0.472134 0.870752 0.075888
C4    C     C_R   0.742158 0.500595 0.500677 0.893757
C5    C     C_R   0.509634 0.545066 0.030519 0.097829
C6    C     C_R   0.618208 0.630939 0.997935 0.175078
C7    C     C_R   0.681255 0.631343 0.905862 -0.229278
C8    C     C_R   0.636955 0.548589 0.846546 -0.159520
C9    C     C_R   0.475678 0.526784 0.133606 -0.206506
C10   C     C_R   0.626447 0.693212 0.164182 -0.191165
C11   C     C_R   0.461705 0.402302 0.800038 -0.085984
C12   C     C_3   0.061350 0.578310 0.425611 -0.205162
C13   C     C_R   0.309572 0.086816 0.352338 -0.286243
C14   C     C_R   0.648541 0.798281 0.633569 -0.073584
C15   C     C_R   0.655385 0.893293 0.678639 -0.073648
C16   C     C_R   0.515367 0.561082 0.309036 0.860839
C17   C     C_R   0.579539 0.968638 0.639623 0.120011
C18   C     C_R   0.514049 0.955409 0.545250 -0.064049
C19   C     C_R   0.500349 0.852545 0.508970 0.207389
C20   C     C_R   0.457714 0.037108 0.487189 0.006772
C21   C     C_R   0.369814 0.008376 0.407373 0.183986
C22   C     C_R   0.346932 0.902877 0.380743 -0.272173
C23   C     C_3   0.986395 0.600612 0.518424 -0.210551
C24   C     C_R   0.415103 0.827519 0.428331 -0.172748
C25   C     C_R   0.493308 0.148537 0.499104 -0.008252
C26   C     C_R   0.341356 0.194080 0.373737 0.021574
C27   C     C_R   0.257993 0.499544 0.499302 0.882026
C28   C     C_3   0.940168 0.423034 0.574413 0.129172
C29   C     C_3   0.050064 0.520794 0.590640 -0.014479
C30   C     C_3   0.122877 0.498665 0.499250 -0.059366
C31   C     C_3   0.014486 0.400051 0.481987 -0.202129
C32   C     C_3   0.951077 0.480139 0.409803 0.003846
C33   C     C_1   0.109021 0.542687 0.689728 0.209831
C34   C     C_3   0.877672 0.501959 0.501169 -0.085311
C35   C     C_1   0.734241 0.908850 0.768332 0.230412
C36   C     C_1   0.893192 0.458951 0.310290 0.199347
C37   C     C_R   0.670271 0.708506 0.062910 -0.166288
C38   C     C_R   0.534673 0.598249 0.200469 -0.055317
C39   C     C_R   0.353267 0.318084 0.828298 -0.185222
C40   C     C_R   0.286138 0.316026 0.918651 -0.136039
C41   C     C_R   0.327277 0.396721 0.982092 0.134791
H1    H     H_    0.414266 0.449777 0.165056 0.178647
H2    H     H_    0.398766 0.749979 0.400611 0.207597
H3    H     H_    0.029039 0.318868 0.466520 0.171480
H4    H     H_    0.115006 0.640599 0.364571 0.146796
H5    H     H_    0.971684 0.681679 0.534102 0.166173
H6    H     H_    0.673377 0.748982 0.216029 0.162960
H7    H     H_    0.769538 0.691491 0.882792 0.156634
H8    H     H_    0.750547 0.776194 0.037688 0.159696
H9    H     H_    0.309848 0.263281 0.774460 0.185644
H10   H     H_    0.193721 0.258558 0.933376 0.184177
H11   H     H_    0.694449 0.546618 0.779461 0.156403
H12   H     H_    0.294772 0.255729 0.332849 0.148387
H13   H     H_    0.280801 0.880066 0.319430 0.156597
H14   H     H_    0.240083 0.065689 0.292705 0.157167
H15   H     H_    0.571559 0.178986 0.548475 0.174948
H16   H     H_    0.700728 0.736636 0.666439 0.144291
I1    I     I_    0.174562 0.416206 0.079313 -0.393776
I2    I     I_    0.844668 0.303031 0.694779 -0.347272
I3    I     I_    0.527200 0.069117 0.745095 -0.326677
N1    N     N_R   0.432930 0.222190 0.444670 -0.111130
N2    N     N_R   0.566370 0.776980 0.554790 -0.130377
N3    N     N_1   0.155692 0.559769 0.767739 -0.155878
N4    N     N_1   0.797751 0.921783 0.840133 -0.191045
N5    N     N_1   0.847330 0.442385 0.231907 -0.157233
O1    O     O_R   0.467970 0.366730 0.627150 -0.593433
O2    O     O_R   0.510820 0.544830 0.662520 -0.611963
O3    O     O_R   0.664630 0.410960 0.482340 -0.602260
O4    O     O_R   0.707470 0.589060 0.517710 -0.632638
O5    O     O_R   0.489180 0.455170 0.337480 -0.612756
O6    O     O_R   0.532030 0.633270 0.372850 -0.643465
O7    O     O_R   0.292530 0.410940 0.482290 -0.621906
O8    O     O_R   0.335370 0.589040 0.517660 -0.629275
Zn1   Zn    Zn3+2 0.471390 0.381080 0.476380 0.972485
Zn2   Zn    Zn3+2 0.528610 0.618920 0.523620 0.938655

loop_
_geom_bond_atom_site_label_1
_geom_bond_atom_site_label_2
_ccdc_geom_bond_type
C1    C11   S    
C25   H15   S    
C7    C8    A    
C22   H13   S    
C12   C23   S    
C9    H1    S    
C10   C37   A    
C23   C29   S    
C28   C29   S    
C26   N1    A    
C41   I1    S    
C30   C31   S    
C20   C25   A    
C2    C41   A    
O3    Zn1   S    
C14   N2    A    
C29   C33   S    
C18   C19   A    
O5    Zn1   S    
O4    Zn2   S    
C35   N4    T    
C8    H11   S    
C28   C34   S    
C23   H5    S    
C21   C22   A    
C12   C32   S    
C27   C30   S    
O8    Zn2   S    
C16   O6    A    
C15   C35   S    
C4    O4    A    
C1    O1    A    
C4    C34   S    
C31   H3    S    
C16   O5    A    
O7    Zn1   S    
C3    C8    A    
C39   C40   A    
C4    O3    A    
C36   N5    T    
C32   C34   S    
C5    C9    A    
C29   C30   S    
C37   H8    S    
C31   C32   S    
C33   N3    T    
C23   C34   S    
C17   C18   A    
C6    C37   A    
C13   C21   A    
C25   N1    A    
C11   C39   A    
C40   C41   A    
C22   C24   A    
C13   C26   A    
C2    C5    A    
O2    Zn2   S    
C26   H12   S    
C32   C36   S    
C28   I2    S    
C15   C17   A    
C14   H16   S    
C12   C30   S    
C28   C31   S    
C12   H4    S    
C6    C7    A    
N1    Zn1   S    
C40   H10   S    
C10   C38   A    
C7    H7    S    
C2    C3    A    
O6    Zn2   S    
C5    C6    A    
C9    C38   A    
C1    O2    A    
C19   C24   A    
C18   C20   A    
N2    Zn2   S    
C3    C11   A    
C17   I3    S    
C39   H9    S    
C20   C21   A    
C10   H6    S    
C24   H2    S    
C14   C15   A    
C19   N2    A    
C27   O8    A    
C27   O7    A    
C16   C38   S    
C13   H14   S    
O1    Zn1   S    
