data_mof_unit_22545.cif
_audit_creation_date              2012-12-10T17:37:17-0500
_audit_creation_method            fapswitch 2.2
_symmetry_space_group_name_H-M    P1
_symmetry_Int_Tables_number       1
_space_group_crystal_system       triclinic
_cell_length_a                    12.314106
_cell_length_b                    13.129298
_cell_length_c                    15.838301
_cell_angle_alpha                 77.536168
_cell_angle_beta                  101.180174
_cell_angle_gamma                 116.061325
_cell_volume                      2231.72203435

loop_
_atom_site_label
_atom_site_type_symbol
_atom_type_description
_atom_site_fract_x
_atom_site_fract_y
_atom_site_fract_z
_atom_type_partial_charge
C1    C     C_R   0.855063 0.286114 0.507488 0.814980
C2    C     C_3   0.000031 0.499589 0.917410 0.131386
C3    C     C_3   0.105382 0.581423 0.030208 -0.237877
C4    C     C_3   0.999196 0.498919 0.083129 0.127878
C5    C     C_3   0.011901 0.602674 0.955704 -0.218913
C6    C     C_3   0.906049 0.520916 0.010323 -0.123211
C7    C     C_1   0.000091 0.499820 0.825600 -0.022363
C8    C     C_1   0.999470 0.498977 0.174788 -0.059302
C9    C     C_R   0.274867 0.039881 0.430320 -0.301933
C10   C     C_R   0.229460 0.837029 0.470260 -0.266052
C11   C     C_R   0.815905 0.080829 0.561254 0.442166
C12   C     C_R   0.999709 0.499888 0.660069 0.819624
C13   C     C_R   0.732804 0.967144 0.580746 -0.271594
C14   C     C_R   0.610517 0.932877 0.550374 -0.182052
C15   C     C_R   0.566722 0.010073 0.495464 0.121701
C16   C     C_R   0.649762 0.125402 0.473494 0.002386
C17   C     C_R   0.440448 0.978834 0.469076 -0.007207
C18   C     C_R   0.398431 0.065274 0.435874 0.018595
C19   C     C_R   0.480568 0.175246 0.406554 -0.175501
C20   C     C_R   0.604058 0.201358 0.417999 -0.164737
C21   C     C_R   0.354764 0.864804 0.474918 0.458727
C22   C     C_R   0.189484 0.926526 0.449158 0.384512
C23   C     C_R   0.145334 0.714251 0.485986 0.858604
C24   C     C_R   0.773691 0.162384 0.510977 -0.198594
C25   C     C_R   0.348114 0.329334 0.639257 -0.311121
C26   C     C_R   0.753561 0.637024 0.377763 0.065878
C27   C     C_R   0.655309 0.666448 0.350274 -0.275250
C28   C     C_R   0.554656 0.615704 0.396805 -0.159111
C29   C     C_R   0.550229 0.532864 0.471009 -0.008381
C30   C     C_R   0.653752 0.505990 0.496933 0.285659
C31   C     C_R   0.446677 0.474413 0.519477 -0.047441
C32   C     C_R   0.447811 0.388702 0.591060 0.172110
C33   C     C_R   0.548416 0.362630 0.614380 -0.274807
C34   C     C_R   0.000240 0.499996 0.339998 0.805779
C35   C     C_R   0.649145 0.420314 0.568798 -0.176194
C36   C     C_R   0.341133 0.496711 0.500386 0.065253
C37   C     C_R   0.247831 0.355836 0.617414 0.072585
C38   C     C_3   0.986659 0.395145 0.045142 -0.251153
C39   C     C_3   0.894115 0.417839 0.970542 -0.210495
C40   C     C_1   0.999637 0.499954 0.749855 -0.163224
C41   C     C_1   0.000073 0.499339 0.250397 -0.180676
C42   C     C_3   0.091158 0.478117 0.991132 0.524308
Cu1   Cu    Cu3+1 0.098270 0.475420 0.519690 0.978590
Cu2   Cu    Cu3+1 0.901730 0.524580 0.480310 0.927526
H1    H     H_    0.807534 0.351551 0.944594 0.146173
H2    H     H_    0.550916 0.847278 0.576270 0.219664
H3    H     H_    0.761930 0.906280 0.625170 0.157833
H4    H     H_    0.661934 0.282930 0.384794 0.174273
H5    H     H_    0.170882 0.310945 0.654676 0.155086
H6    H     H_    0.549607 0.296823 0.668891 0.151819
H7    H     H_    0.348074 0.263270 0.693795 0.141464
H8    H     H_    0.332475 0.560499 0.447337 0.162462
H9    H     H_    0.829737 0.674453 0.339871 0.115990
H10   H     H_    0.977559 0.310645 0.083013 0.133092
H11   H     H_    0.480882 0.641158 0.372258 0.157640
H12   H     H_    0.656802 0.728100 0.292262 0.146899
H13   H     H_    0.720828 0.393310 0.591841 0.206562
H14   H     H_    0.829413 0.538613 0.020007 0.136743
H15   H     H_    0.021475 0.687177 0.917628 0.147107
H16   H     H_    0.191604 0.647937 0.056252 0.132385
H17   H     H_    0.449117 0.240038 0.372435 0.139480
H18   H     H_    0.246103 0.109276 0.415065 0.154708
N1    N     N_R   0.246280 0.438200 0.549540 -0.188996
N2    N     N_R   0.754330 0.561180 0.450980 -0.201234
O1    O     O_R   0.972510 0.318130 0.524770 -0.539637
O2    O     O_R   0.806530 0.359650 0.491510 -0.618645
O3    O     O_R   0.082970 0.479240 0.637550 -0.567644
O4    O     O_R   0.916990 0.520750 0.604290 -0.597588
O5    O     O_R   0.193470 0.640350 0.508490 -0.515576
O6    O     O_R   0.027490 0.681870 0.475230 -0.566133
O7    O     O_R   0.083010 0.479250 0.395710 -0.589319
O8    O     O_R   0.917030 0.520760 0.362450 -0.596609
F1    F     F_    0.392733 0.781904 0.475247 -0.691169
O9    O     O_3   0.932259 0.116929 0.605479 -0.610010
C43   C     C_3   0.998557 0.061239 0.586372 0.066105
H19   H     H_    0.068501 0.124374 0.544014 0.163076
H20   H     H_    0.942969 0.986065 0.551340 0.156273
C44   C     C_3   0.062366 0.022508 0.671554 -0.352803
H21   H     H_    0.119399 0.097423 0.706017 0.215440
H22   H     H_    0.992877 0.958769 0.714014 0.215520
C45   C     C_3   0.143022 0.968903 0.655969 -0.868608
H23   H     H_    0.086762 0.889231 0.626965 0.288433
H24   H     H_    0.191424 0.946519 0.718929 0.239328
H25   H     H_    0.211742 0.030290 0.612140 0.265426
O10   O     O_3   0.187431 0.455538 0.976449 -0.613264
C46   C     C_3   0.258066 0.439366 0.055892 0.044233
H26   H     H_    0.268608 0.358842 0.058766 0.162800
H27   H     H_    0.216213 0.429234 0.115447 0.125712
C47   C     C_3   0.384239 0.539100 0.058191 -0.333075
H28   H     H_    0.429888 0.543192 0.002713 0.228221
H29   H     H_    0.375076 0.621024 0.051391 0.211788
C48   C     C_3   0.463094 0.525340 0.143263 -0.928577
H30   H     H_    0.420706 0.524204 0.199529 0.258086
H31   H     H_    0.554141 0.598436 0.142580 0.255290
H32   H     H_    0.474858 0.444498 0.151180 0.255271
O11   O     O_3   0.071012 0.905724 0.456195 -0.608597
C49   C     C_3   0.004060 0.909310 0.373033 0.094075
H33   H     H_    0.907913 0.853722 0.382861 0.177657
H34   H     H_    0.028992 0.873382 0.325769 0.110841
C50   C     C_3   0.011839 0.030130 0.335398 -0.392513
H35   H     H_    0.011983 0.073768 0.388255 0.224086
H36   H     H_    0.096812 0.081205 0.304115 0.203290
C51   C     C_3   0.904993 0.026025 0.266471 -0.919445
H37   H     H_    0.901987 0.981672 0.213173 0.251636
H38   H     H_    0.915652 0.114698 0.238631 0.255863
H39   H     H_    0.817889 0.980222 0.295850 0.260557

loop_
_geom_bond_atom_site_label_1
_geom_bond_atom_site_label_2
_ccdc_geom_bond_type
C3    C42   S    
C30   N2    A    
C23   O5    A    
Cu2   O2    S    
C19   C20   A    
C4    C8    S    
C45   H25   S    
C49   H33   S    
Cu1   N1    S    
C14   H2    S    
O10   C46   S    
Cu2   N2    S    
C12   O4    A    
C26   C27   A    
C30   C35   A    
C28   C29   A    
C19   H17   S    
C38   C42   S    
C5    C6    S    
C46   H27   S    
C9    C22   A    
C15   C16   A    
C21   F1    S    
C11   C24   A    
C18   C19   A    
C26   N2    A    
C50   H35   S    
C43   H19   S    
C37   N1    A    
C2    C39   S    
C2    C7    S    
C1    O1    A    
C7    C40   T    
Cu2   O6    S    
C47   H29   S    
C36   N1    A    
C36   H8    S    
Cu1   O1    S    
C39   H1    S    
C25   C37   A    
C3    H16   S    
C25   C32   A    
C16   C24   A    
C13   C14   A    
C23   O6    A    
C34   C41   S    
C50   H36   S    
C45   H24   S    
C28   H11   S    
C45   H23   S    
C10   C21   A    
C12   O3    A    
O9    C43   S    
C5    H15   S    
C9    H18   S    
C8    C41   T    
C4    C6    S    
C49   H34   S    
C13   H3    S    
C44   H21   S    
C33   H6    S    
C11   O9    S    
C50   C51   S    
C10   C22   A    
C1    O2    A    
C12   C40   S    
Cu1   Cu2   S    
C25   H7    S    
C29   C30   A    
C37   H5    S    
C31   C32   A    
C38   H10   S    
C16   C20   A    
O11   C49   S    
C48   H31   S    
C17   C18   A    
C51   H38   S    
C42   O10   S    
C27   H12   S    
C47   C48   S    
C43   H20   S    
C20   H4    S    
C4    C38   S    
Cu2   O4    S    
C2    C5    S    
C3    C4    S    
C26   H9    S    
C34   O8    A    
C51   H37   S    
C49   C50   S    
C46   H26   S    
C15   C17   A    
Cu1   O7    S    
C31   C36   A    
C22   O11   S    
C14   C15   A    
C3    C5    S    
C46   C47   S    
C10   C23   S    
C35   H13   S    
C32   C33   A    
C29   C31   A    
C11   C13   A    
C44   C45   S    
C38   C39   S    
C2    C42   S    
C48   H30   S    
C33   C35   A    
Cu2   O8    S    
C51   H39   S    
C44   H22   S    
C6    H14   S    
C48   H32   S    
C43   C44   S    
C17   C21   A    
C9    C18   A    
C1    C24   S    
Cu1   O3    S    
C27   C28   A    
C6    C39   S    
C47   H28   S    
Cu1   O5    S    
C34   O7    A    
