data_mof_unit_66263.cif
_audit_creation_date              2012-12-10T21:14:42-0500
_audit_creation_method            fapswitch 2.2
_symmetry_space_group_name_H-M    P1
_symmetry_Int_Tables_number       1
_space_group_crystal_system       triclinic
_cell_length_a                    17.612537
_cell_length_b                    16.748485
_cell_length_c                    11.565256
_cell_angle_alpha                 89.972357
_cell_angle_beta                  90.156607
_cell_angle_gamma                 90.098724
_cell_volume                      3411.53931871

loop_
_atom_site_label
_atom_site_type_symbol
_atom_type_description
_atom_site_fract_x
_atom_site_fract_y
_atom_site_fract_z
_atom_type_partial_charge
C1    C     C_R   0.353422 0.499915 0.499701 1.041697
C2    C     C_R   0.646578 0.500080 0.500419 1.041786
C3    C     C_R   0.768119 0.557134 0.568208 0.250671
C4    C     C_R   0.231519 0.442584 0.434032 0.250696
C5    C     C_R   0.232546 0.554640 0.570994 0.249386
C6    C     C_R   0.767859 0.445047 0.431293 0.249403
C7    C     C_R   0.728984 0.500135 0.501204 -0.227884
C8    C     C_R   0.271016 0.499781 0.500165 -0.227780
C9    C     C_R   0.886151 0.500869 0.500473 -0.100732
C10   C     C_R   0.113873 0.498169 0.504497 -0.100628
C11   C     C_1   0.966343 0.499904 0.502331 0.220087
C12   C     C_1   0.033674 0.499065 0.503655 0.220037
C13   C     C_R   0.499967 0.500013 0.281424 0.917614
C14   C     C_R   0.500032 0.499987 0.718576 0.917920
C15   C     C_R   0.449661 0.832236 0.429470 -0.255690
C16   C     C_R   0.550423 0.167764 0.570388 -0.255691
C17   C     C_R   0.550337 0.832361 0.570581 -0.261339
C18   C     C_R   0.449574 0.167639 0.429563 -0.261257
C19   C     C_R   0.450567 0.748028 0.430718 0.046817
C20   C     C_R   0.549516 0.251972 0.569144 0.046844
C21   C     C_R   0.549419 0.748150 0.569324 0.037281
C22   C     C_R   0.450495 0.251850 0.430817 0.037144
C23   C     C_1   0.500002 0.963426 0.500010 -0.029715
C24   C     C_1   0.499995 0.036575 0.499991 -0.029726
C25   C     C_1   0.499972 0.500032 0.161195 -0.154624
C26   C     C_1   0.500026 0.499969 0.838804 -0.154529
C27   C     C_1   0.499987 0.500016 0.059215 0.013242
C28   C     C_1   0.500010 0.499985 0.940785 0.013219
C29   C     C_R   0.500003 0.875569 0.500021 0.151543
C30   C     C_R   0.499994 0.124431 0.499980 0.151517
C31   C     C_R   0.848047 0.555992 0.569978 0.301143
C32   C     C_R   0.151583 0.443278 0.434089 0.301088
C33   C     C_R   0.152610 0.555232 0.570369 0.295855
C34   C     C_R   0.847773 0.444015 0.433735 0.295914
H1    H     H_    0.409904 0.863202 0.373752 0.147685
H2    H     H_    0.590247 0.136798 0.625995 0.147688
H3    H     H_    0.590090 0.863423 0.626320 0.149709
H4    H     H_    0.409753 0.136577 0.373939 0.149715
H5    H     H_    0.411565 0.715246 0.376015 0.132386
H6    H     H_    0.588584 0.284753 0.623738 0.132431
H7    H     H_    0.588383 0.715473 0.624077 0.163235
H8    H     H_    0.411463 0.284528 0.376177 0.163014
N1    N     N_R   0.500000 0.707230 0.500000 -0.095725
N2    N     N_R   0.500000 0.292770 0.500000 -0.095781
O1    O     O_R   0.389110 0.566570 0.499990 -0.591940
O2    O     O_R   0.610890 0.433430 0.500010 -0.592143
O3    O     O_R   0.610890 0.566570 0.500010 -0.595486
O4    O     O_R   0.389110 0.433430 0.499990 -0.595720
O5    O     O_R   0.500000 0.566540 0.334450 -0.636593
O6    O     O_R   0.500000 0.433460 0.665550 -0.636666
O7    O     O_R   0.500000 0.566540 0.665550 -0.601992
O8    O     O_R   0.500000 0.433460 0.334450 -0.602285
Zn1   Zn    Zn3+2 0.500000 0.588860 0.500000 0.994703
Zn2   Zn    Zn3+2 0.500000 0.411140 0.500000 0.994430
O9    O     O_3   0.890463 0.605729 0.640534 -0.726680
H9    H     H_    0.860166 0.619477 0.709676 0.353386
O10   O     O_3   0.108745 0.393359 0.364395 -0.726159
H10   H     H_    0.138444 0.379835 0.294551 0.353474
O11   O     O_3   0.110814 0.611333 0.630404 -0.725961
H11   H     H_    0.141292 0.660806 0.637955 0.352470
O12   O     O_3   0.889867 0.387719 0.374577 -0.725538
H12   H     H_    0.859249 0.338391 0.366380 0.352406
O13   O     O_3   0.726947 0.612377 0.630727 -0.764876
H13   H     H_    0.756645 0.662518 0.635944 0.345826
O14   O     O_3   0.272358 0.387558 0.370596 -0.764752
H14   H     H_    0.242846 0.337269 0.365999 0.345898
O15   O     O_3   0.274474 0.603801 0.643035 -0.745205
H15   H     H_    0.244083 0.616170 0.712657 0.349477
O16   O     O_3   0.726384 0.396073 0.358388 -0.745353
H16   H     H_    0.757370 0.383510 0.289457 0.349612

loop_
_geom_bond_atom_site_label_1
_geom_bond_atom_site_label_2
_ccdc_geom_bond_type
O4    Zn2   S    
C6    O16   S    
C3    C31   A    
C11   C12   T    
C1    O4    A    
C6    C7    A    
C18   C30   A    
C3    O13   S    
C2    O3    A    
C25   C27   T    
C13   O8    A    
C17   C29   A    
C4    C8    A    
C9    C31   A    
C26   C28   T    
C2    C7    S    
C16   C20   A    
O3    Zn1   S    
C13   C25   S    
O2    Zn2   S    
O9    H9    S    
C18   H4    S    
O1    Zn1   S    
O11   H11   S    
C33   O11   S    
O6    Zn2   S    
C14   C26   S    
C15   C19   A    
C9    C11   S    
C1    O1    A    
O10   H10   S    
C22   H8    S    
C6    C34   A    
C10   C12   S    
C32   O10   S    
C10   C32   A    
O5    Zn1   S    
C16   H2    S    
C23   C29   S    
C15   H1    S    
C20   N2    A    
C19   N1    A    
C9    C34   A    
C15   C29   A    
C10   C33   A    
C3    C7    A    
O16   H16   S    
C2    O2    A    
C13   O5    A    
O12   H12   S    
C20   H6    S    
C22   N2    A    
C24   C30   S    
C21   N1    A    
C14   O6    A    
C23   C24   T    
C16   C30   A    
O15   H15   S    
C1    C8    S    
C5    C33   A    
N2    Zn2   S    
C19   H5    S    
O14   H14   S    
C21   H7    S    
C4    C32   A    
C27   C28   S    
C5    C8    A    
C4    O14   S    
C17   H3    S    
C31   O9    S    
C18   C22   A    
N1    Zn1   S    
C34   O12   S    
C17   C21   A    
C14   O7    A    
O8    Zn2   S    
O13   H13   S    
O7    Zn1   S    
C5    O15   S    
