data_mof_unit_30164.cif
_audit_creation_date              2012-12-11T14:43:29-0500
_audit_creation_method            fapswitch 2.2
_symmetry_space_group_name_H-M    P1
_symmetry_Int_Tables_number       1
_space_group_crystal_system       triclinic
_cell_length_a                    20.818249
_cell_length_b                    7.097218
_cell_length_c                    16.351808
_cell_angle_alpha                 90.164786
_cell_angle_beta                  92.616538
_cell_angle_gamma                 90.522678
_cell_volume                      2413.37425916

loop_
_atom_site_label
_atom_site_type_symbol
_atom_type_description
_atom_site_fract_x
_atom_site_fract_y
_atom_site_fract_z
_atom_type_partial_charge
O1    O     O_R   0.564840 0.505290 0.579830 -0.545207
O2    O     O_R   0.435160 0.005290 0.420170 -0.540365
O3    O     O_R   0.556720 0.179930 0.409350 -0.544587
O4    O     O_R   0.443280 0.679930 0.590650 -0.545869
C1    C     C_R   0.570077 0.345605 0.380739 0.773887
C2    C     C_R   0.429665 0.844996 0.619048 0.776239
O5    O     O_R   0.572280 0.175810 0.578530 -0.525546
O6    O     O_R   0.427720 0.675810 0.421470 -0.537363
O7    O     O_R   0.450830 0.001920 0.590540 -0.540173
O8    O     O_R   0.549170 0.501920 0.409460 -0.526035
C3    C     C_R   0.590073 0.345690 0.604873 0.730647
C4    C     C_R   0.409376 0.843701 0.396054 0.752470
O9    O     O_3   0.460130 0.338030 0.503750 -0.382304
O10   O     O_3   0.539870 0.838030 0.496250 -0.375072
V1    V     V_3+5 0.507400 0.064560 0.499310 1.451766
V2    V     V_3+5 0.492600 0.564560 0.500690 1.442041
C5    C     C_R   0.141986 0.912967 0.169764 -0.127359
C6    C     C_R   0.859032 0.400715 0.829182 -0.147591
C7    C     C_R   0.355905 0.852337 0.333121 -0.132695
C8    C     C_R   0.643273 0.364778 0.668330 -0.160706
C9    C     C_R   0.321047 0.895033 0.190229 -0.159195
C10   C     C_R   0.689001 0.540618 0.785975 -0.178832
C11   C     C_R   0.370186 0.877275 0.250891 -0.239713
C12   C     C_R   0.637975 0.501818 0.729926 -0.268234
C13   C     C_R   0.290900 0.842203 0.354578 0.396808
C14   C     C_R   0.701031 0.262465 0.664489 0.409066
C15   C     C_R   0.240887 0.869063 0.293555 -0.003410
C16   C     C_R   0.754502 0.311429 0.717882 -0.011393
C17   C     C_R   0.256326 0.892497 0.210735 0.108732
C18   C     C_R   0.747790 0.448692 0.780006 0.102569
C19   C     C_R   0.206898 0.913670 0.149620 -0.288055
C20   C     C_R   0.799804 0.491375 0.835536 -0.288786
C21   C     C_R   0.126504 0.892661 0.252205 0.432843
C22   C     C_R   0.867053 0.274915 0.763307 0.451078
C23   C     C_R   0.175840 0.874439 0.313529 -0.244439
C24   C     C_R   0.814906 0.228768 0.709497 -0.232235
H1    H     H_    0.218916 0.929077 0.086263 0.116219
H2    H     H_    0.793577 0.589995 0.885263 0.132949
H3    H     H_    0.333760 0.913321 0.127193 0.121400
H4    H     H_    0.682942 0.646493 0.832815 0.132147
H5    H     H_    0.162848 0.864911 0.376777 0.182200
H6    H     H_    0.822379 0.128666 0.660803 0.176570
H7    H     H_    0.419755 0.882780 0.233563 0.138044
H8    H     H_    0.593945 0.580742 0.734359 0.171709
C25   C     C_R   0.380862 0.913765 0.836008 -0.245049
C26   C     C_R   0.620089 0.452801 0.167411 -0.241968
H9    H     H_    0.300828 0.943856 0.956172 0.112344
H10   H     H_    0.700453 0.506349 0.049218 0.119749
H11   H     H_    0.404114 0.930738 0.896300 0.127345
H12   H     H_    0.597288 0.494430 0.109389 0.132487
C27   C     C_R   0.389740 0.858074 0.691029 -0.163526
C28   C     C_R   0.609878 0.361088 0.308646 -0.175114
C29   C     C_R   0.076778 0.895375 0.731709 -0.261773
C30   C     C_R   0.923035 0.362533 0.266431 -0.252332
C31   C     C_R   0.110433 0.900101 0.660446 -0.205561
C32   C     C_R   0.889755 0.351073 0.337776 -0.182281
C33   C     C_R   0.177613 0.912646 0.663195 0.449266
C34   C     C_R   0.823026 0.372835 0.336675 0.454382
C35   C     C_R   0.213291 0.902706 0.739894 -0.016755
C36   C     C_R   0.787045 0.391548 0.260467 -0.015289
C37   C     C_R   0.177603 0.911787 0.812912 0.012764
C38   C     C_R   0.822815 0.417973 0.188143 0.015785
C39   C     C_R   0.282463 0.890955 0.747623 0.083509
C40   C     C_R   0.717692 0.390669 0.252813 0.088442
C41   C     C_R   0.313474 0.912205 0.826480 0.078273
C42   C     C_R   0.687245 0.438665 0.176098 0.074455
C43   C     C_R   0.277303 0.929771 0.895901 -0.170948
C44   C     C_R   0.723672 0.471920 0.107920 -0.172733
C45   C     C_R   0.210656 0.925388 0.889472 -0.163012
C46   C     C_R   0.790062 0.457407 0.113255 -0.162996
C47   C     C_R   0.322318 0.853253 0.681146 -0.286346
C48   C     C_R   0.676937 0.341355 0.317226 -0.277593
C49   C     C_R   0.419084 0.894644 0.768312 0.450408
C50   C     C_R   0.581460 0.416805 0.233244 0.460045
C51   C     C_R   0.109213 0.908664 0.808009 -0.080417
C52   C     C_R   0.890966 0.403546 0.191980 -0.078405
H13   H     H_    0.302981 0.815957 0.621213 0.204811
H14   H     H_    0.695059 0.286260 0.374776 0.204942
H15   H     H_    0.024705 0.888572 0.727199 0.162398
H16   H     H_    0.974696 0.344157 0.269745 0.142514
H17   H     H_    0.083920 0.900745 0.601896 0.145799
H18   H     H_    0.916308 0.329174 0.395427 0.143554
H19   H     H_    0.184962 0.935335 0.945296 0.091205
H20   H     H_    0.815692 0.479915 0.057917 0.102621
O11   O     O_R   0.950790 0.256670 0.090520 -0.528952
O12   O     O_R   0.049210 0.756670 0.909480 -0.539233
O13   O     O_R   0.927720 0.590370 0.921470 -0.545308
O14   O     O_R   0.072280 0.090370 0.078530 -0.539943
C53   C     C_R   0.910660 0.420104 0.894425 0.727831
C54   C     C_R   0.090088 0.922071 0.104656 0.742597
O15   O     O_R   0.943270 0.586180 0.090640 -0.540654
O16   O     O_R   0.056730 0.086180 0.909360 -0.533044
O17   O     O_R   0.064850 0.759970 0.079840 -0.539933
O18   O     O_R   0.935150 0.259970 0.920160 -0.514309
C55   C     C_R   0.930307 0.416915 0.119041 0.690778
C56   C     C_R   0.069674 0.917729 0.880872 0.717472
O19   O     O_3   0.039850 0.428050 0.996240 -0.377713
O20   O     O_3   0.960150 0.928050 0.003760 -0.368575
V3    V     V_3+5 0.992610 0.701540 0.000700 1.440921
V4    V     V_3+5 0.007390 0.201540 0.999300 1.475162
O21   O     O_3   0.206402 0.941366 0.589865 -0.552548
C57   C     C_3   0.213555 0.137066 0.577869 -0.228069
H21   H     H_    0.244749 0.202842 0.627392 0.129702
H22   H     H_    0.166043 0.207918 0.573204 0.125982
H23   H     H_    0.237228 0.160284 0.519264 0.181236
O22   O     O_3   0.795069 0.378445 0.411521 -0.561361
C58   C     C_3   0.792472 0.567898 0.437354 -0.252960
H24   H     H_    0.763080 0.654462 0.393300 0.144932
H25   H     H_    0.841569 0.629941 0.446777 0.139952
H26   H     H_    0.769114 0.572608 0.496976 0.169463
O23   O     O_3   0.063050 0.904187 0.273201 -0.558407
C59   C     C_3   0.041263 0.723172 0.294666 -0.251061
H27   H     H_    0.065696 0.673762 0.352472 0.130190
H28   H     H_    0.047686 0.619558 0.244483 0.132832
H29   H     H_    0.989072 0.730575 0.305097 0.173441
O24   O     O_3   0.925539 0.189608 0.752848 -0.554886
C60   C     C_3   0.962799 0.309820 0.704970 -0.267754
H30   H     H_    0.972035 0.448352 0.735654 0.128630
H31   H     H_    0.939588 0.330463 0.642976 0.141109
H32   H     H_    0.010131 0.243793 0.696845 0.168591
O25   O     O_3   0.276679 0.816756 0.435661 -0.553919
C61   C     C_3   0.266165 0.622639 0.448843 -0.245976
H33   H     H_    0.224874 0.567318 0.410040 0.128437
H34   H     H_    0.254279 0.601547 0.513617 0.169013
H35   H     H_    0.309976 0.539408 0.437923 0.139270
O26   O     O_3   0.706906 0.127772 0.603983 -0.554895
C62   C     C_3   0.694560 0.948885 0.637811 -0.199599
H36   H     H_    0.646146 0.941222 0.663947 0.144671
H37   H     H_    0.731964 0.910802 0.685488 0.126133
H38   H     H_    0.695667 0.841631 0.588413 0.158615
O27   O     O_3   0.485450 0.894806 0.778432 -0.566643
C63   C     C_3   0.507311 0.081632 0.791509 -0.261081
H39   H     H_    0.492656 0.136472 0.851575 0.139151
H40   H     H_    0.490124 0.176591 0.741151 0.136744
H41   H     H_    0.560644 0.083069 0.792458 0.158726
O28   O     O_3   0.515963 0.446387 0.224746 -0.556575
C64   C     C_3   0.486090 0.277429 0.197110 -0.264822
H42   H     H_    0.495362 0.160531 0.241215 0.129376
H43   H     H_    0.501899 0.237477 0.135345 0.135149
H44   H     H_    0.433350 0.299143 0.192106 0.172889

loop_
_geom_bond_atom_site_label_1
_geom_bond_atom_site_label_2
_ccdc_geom_bond_type
C42   C44   A    
C39   C41   A    
O26   C62   S    
O12   V3    S    
C15   C17   A    
C24   H6    S    
O23   C59   S    
O1    C3    A    
C47   H13   S    
O2    C4    A    
C2    O7    A    
C49   O27   S    
C37   C51   A    
O5    C3    A    
C64   H43   S    
O21   C57   S    
C5    C21   A    
C45   H19   S    
C36   C38   A    
C29   H15   S    
C26   C42   A    
C28   C50   A    
C60   H31   S    
C52   C55   S    
C33   C35   A    
O22   C58   S    
C22   O24   S    
O16   C56   A    
C11   H7    S    
O24   C60   S    
C38   C46   A    
C57   H23   S    
C25   C49   A    
C14   O26   S    
H9    C43   S    
C53   O18   A    
C48   H14   S    
C8    C12   A    
C63   H39   S    
C41   C43   A    
C50   O28   S    
C58   H24   S    
C1    C28   S    
C21   O23   S    
C20   H2    S    
C2    C27   S    
C31   H17   S    
C46   H20   S    
O17   V3    S    
O13   V3    S    
O5    V1    S    
O6    V2    S    
C58   H25   S    
C38   C52   A    
C29   C51   A    
C27   C47   A    
C7    C13   A    
C59   H28   S    
C59   H27   S    
O19   V3    S    
C51   C56   S    
C30   H16   S    
C29   C31   A    
C64   H44   S    
C30   C32   A    
C3    C8    S    
C35   C37   A    
O4    C2    A    
C60   H32   S    
C15   C23   A    
C9    C17   A    
C19   H1    S    
C43   C45   A    
C40   C42   A    
O4    V2    S    
C7    C11   A    
C62   H37   S    
C28   C48   A    
C9    H3    S    
O18   V4    S    
O6    C4    A    
C10   H4    S    
C25   H11   S    
O1    V2    S    
H10   C44   S    
C57   H22   S    
O2    V1    S    
C6    C22   A    
O25   C61   S    
O14   V4    S    
O12   C56   A    
C30   C52   A    
C44   C46   A    
O14   C54   A    
O20   V4    S    
C13   O25   S    
C31   C33   A    
C25   C41   A    
C5    C19   A    
C58   H26   S    
C10   C12   A    
C6    C20   A    
C61   H34   S    
C62   H36   S    
C26   C50   A    
O19   V4    S    
O3    V1    S    
O16   V4    S    
C54   O17   A    
C37   C45   A    
C10   C18   A    
C6    C53   S    
C35   C39   A    
C5    C54   S    
C27   C49   A    
C39   C47   A    
O28   C64   S    
O3    C1    A    
C32   H18   S    
C13   C15   A    
C33   O21   S    
C64   H42   S    
C26   H12   S    
C14   C16   A    
C36   C40   A    
C61   H35   S    
C9    C11   A    
O7    V1    S    
C62   H38   S    
C1    O8    A    
C17   C19   A    
O11   V4    S    
O8    V2    S    
C60   H30   S    
C18   C20   A    
O11   C55   A    
C8    C14   A    
C63   H41   S    
C12   H8    S    
C4    C7    S    
C16   C18   A    
C21   C23   A    
C32   C34   A    
C22   C24   A    
C40   C48   A    
C57   H21   S    
C23   H5    S    
O15   C55   A    
C16   C24   A    
C63   H40   S    
O20   V3    S    
O9    V2    S    
C34   O22   S    
O13   C53   A    
O10   V1    S    
O15   V3    S    
C61   H33   S    
C34   C36   A    
C59   H29   S    
O27   C63   S    
