data_mof_unit_65173.cif
_audit_creation_date              2012-12-10T21:06:11-0500
_audit_creation_method            fapswitch 2.2
_symmetry_space_group_name_H-M    P1
_symmetry_Int_Tables_number       1
_space_group_crystal_system       triclinic
_cell_length_a                    15.093331
_cell_length_b                    15.848133
_cell_length_c                    16.632188
_cell_angle_alpha                 89.545244
_cell_angle_beta                  96.158614
_cell_angle_gamma                 89.969757
_cell_volume                      3955.34885466

loop_
_atom_site_label
_atom_site_type_symbol
_atom_type_description
_atom_site_fract_x
_atom_site_fract_y
_atom_site_fract_z
_atom_type_partial_charge
C1    C     C_R   0.500043 0.338895 0.500086 0.882397
C2    C     C_1   0.500571 0.749214 0.506074 -0.124029
C3    C     C_R   0.959548 0.479636 0.570427 0.438086
C4    C     C_R   0.040452 0.520351 0.429573 0.438258
C5    C     C_R   0.904926 0.500299 0.498753 -0.230485
C6    C     C_R   0.095075 0.499690 0.501248 -0.230709
C7    C     C_R   0.945633 0.520805 0.427726 0.286723
C8    C     C_R   0.054367 0.479181 0.572274 0.286666
C9    C     C_1   0.806941 0.500095 0.499510 0.255831
C10   C     C_1   0.193059 0.499900 0.500491 0.255885
C11   C     C_R   0.512944 0.500273 0.654147 0.985076
C12   C     C_R   0.500002 0.661103 0.500165 0.887855
C13   C     C_R   0.487057 0.499732 0.345847 0.985279
C14   C     C_R   0.525043 0.508114 0.741506 -0.349013
C15   C     C_R   0.474971 0.491896 0.258476 -0.350099
C16   C     C_R   0.481961 0.573496 0.779873 0.342060
C17   C     C_R   0.518278 0.426667 0.220101 0.341520
C18   C     C_R   0.492367 0.578098 0.863763 0.398365
C19   C     C_R   0.507910 0.422079 0.136212 0.398403
C20   C     C_R   0.543578 0.516132 0.909295 0.019297
C21   C     C_R   0.456554 0.483945 0.090676 0.019288
C22   C     C_R   0.590809 0.454650 0.871707 0.318307
C23   C     C_R   0.502248 0.912608 0.519933 -0.167989
C24   C     C_R   0.409113 0.545267 0.128261 0.318069
C25   C     C_R   0.584005 0.452282 0.786516 0.273464
C26   C     C_R   0.415848 0.547584 0.213455 0.273373
C27   C     C_R   0.583086 0.954071 0.512921 0.434667
C28   C     C_R   0.425034 0.045543 0.528875 0.434185
C29   C     C_R   0.505228 0.087020 0.519154 -0.168700
C30   C     C_R   0.423130 0.957071 0.530168 0.280005
C31   C     C_R   0.585394 0.042520 0.513284 0.279090
C32   C     C_1   0.501173 0.823713 0.512530 0.121022
C33   C     C_1   0.502882 0.176034 0.511789 0.121437
C34   C     C_1   0.501056 0.250658 0.505598 -0.117625
H1    H     H_    0.553619 0.360518 0.317975 0.323923
H2    H     H_    0.352409 0.855711 0.547834 0.361328
H3    H     H_    0.710393 0.942599 0.500503 0.400622
H4    H     H_    0.298030 0.056999 0.542500 0.400694
H5    H     H_    0.168631 0.460373 0.638641 0.355803
H6    H     H_    0.831369 0.539596 0.361355 0.355771
H7    H     H_    0.962210 0.446602 0.684545 0.401713
H8    H     H_    0.037789 0.553372 0.315452 0.401745
H9    H     H_    0.446709 0.639622 0.681953 0.322056
H10   H     H_    0.524917 0.352128 0.043226 0.366187
H11   H     H_    0.475460 0.648054 0.956778 0.366090
H12   H     H_    0.640558 0.341892 0.889368 0.357334
H13   H     H_    0.359014 0.657894 0.110627 0.357660
H14   H     H_    0.688537 0.382532 0.779005 0.362977
H15   H     H_    0.311071 0.617003 0.220930 0.363355
H16   H     H_    0.660893 0.143773 0.515149 0.360834
N1    N     N_2   0.538832 0.507993 0.992722 -0.089938
N2    N     N_2   0.461304 0.492130 0.007251 -0.089834
N3    N     N_1   0.270550 0.500020 0.500020 -0.080305
N4    N     N_1   0.729450 0.499980 0.499980 -0.080371
O1    O     O_R   0.573650 0.378020 0.500000 -0.606883
O2    O     O_3   0.430817 0.635307 0.737981 -0.656305
O3    O     O_3   0.549990 0.356960 0.100508 -0.629990
O4    O     O_3   0.450456 0.643326 0.899468 -0.630690
O5    O     O_3   0.637513 0.394836 0.920137 -0.695347
O6    O     O_3   0.362266 0.604992 0.079831 -0.695163
O7    O     O_3   0.631566 0.395073 0.745746 -0.718810
O8    O     O_3   0.368067 0.604618 0.254213 -0.716577
O9    O     O_3   0.665795 0.082498 0.505894 -0.731005
O10   O     O_3   0.343210 0.917044 0.539453 -0.729684
O11   O     O_3   0.658170 0.905788 0.504838 -0.710743
O12   O     O_R   0.426350 0.621980 0.500000 -0.606445
O13   O     O_3   0.349722 0.093832 0.535981 -0.710583
O14   O     O_3   0.104208 0.458393 0.644547 -0.730252
O15   O     O_3   0.895792 0.541591 0.355453 -0.730291
O16   O     O_3   0.917584 0.460027 0.638231 -0.715496
O17   O     O_3   0.082416 0.539956 0.361769 -0.714983
O18   O     O_R   0.426310 0.378020 0.499960 -0.601874
O19   O     O_R   0.573690 0.621980 0.500040 -0.602077
O20   O     O_R   0.581880 0.499230 0.616150 -0.560090
O21   O     O_R   0.418120 0.500770 0.383850 -0.559596
O22   O     O_R   0.434550 0.499230 0.616110 -0.621498
O23   O     O_R   0.565450 0.500770 0.383890 -0.621372
O24   O     O_3   0.569605 0.364983 0.261987 -0.653287
Zn1   Zn    Zn3+2 0.598370 0.500000 0.500020 1.047541
Zn2   Zn    Zn3+2 0.401630 0.500000 0.499980 1.047894

loop_
_geom_bond_atom_site_label_1
_geom_bond_atom_site_label_2
_ccdc_geom_bond_type
C28   O13   S    
C30   O10   S    
H12   O5    S    
H5    O14   S    
C2    C12   S    
C19   O3    S    
C5    C9    S    
C28   C29   A    
C19   C21   A    
C24   C26   A    
C20   N1    S    
C11   O22   A    
C11   C14   S    
C29   C33   S    
C2    C32   T    
C10   N3    T    
C17   O24   S    
H13   O6    S    
C18   O4    S    
C13   O21   A    
C22   C25   A    
H3    O11   S    
C23   C27   A    
O21   Zn2   S    
C12   O19   A    
H16   O9    S    
C4    C7    A    
C1    C34   S    
O23   Zn1   S    
C13   O23   A    
H11   O4    S    
C1    O18   A    
H6    O15   S    
C27   C31   A    
N1    N2    D    
C23   C30   A    
C31   O9    S    
C3    O16   S    
C4    C6    A    
C3    C8    A    
C22   O5    S    
C5    C7    A    
C15   C26   A    
C6    C8    A    
C12   O12   A    
O18   Zn2   S    
C16   O2    S    
C6    C10   S    
C27   O11   S    
O1    Zn1   S    
H10   O3    S    
C24   O6    S    
N3    Zn2   S    
C33   C34   T    
O19   Zn1   S    
C25   O7    S    
C20   C22   A    
C8    O14   S    
O20   Zn1   S    
C13   C15   S    
C14   C16   A    
N4    Zn1   S    
C15   C17   A    
H15   O8    S    
O22   Zn2   S    
C3    C5    A    
C11   O20   A    
C7    O15   S    
O12   Zn2   S    
H1    O24   S    
C23   C32   S    
C28   C30   A    
C1    O1    A    
C29   C31   A    
H14   O7    S    
H8    O17   S    
C17   C19   A    
C18   C20   A    
C21   N2    S    
C14   C25   A    
C26   O8    S    
H9    O2    S    
H4    O13   S    
C16   C18   A    
C21   C24   A    
C9    N4    T    
H2    O10   S    
C4    O17   S    
H7    O16   S    
