data_mof_unit_36309.cif
_audit_creation_date              2012-12-10T17:50:49-0500
_audit_creation_method            fapswitch 2.2
_symmetry_space_group_name_H-M    P1
_symmetry_Int_Tables_number       1
_space_group_crystal_system       triclinic
_cell_length_a                    14.740367
_cell_length_b                    14.746426
_cell_length_c                    15.85133
_cell_angle_alpha                 76.678222
_cell_angle_beta                  102.951778
_cell_angle_gamma                 114.779827
_cell_volume                      3012.24524071

loop_
_atom_site_label
_atom_site_type_symbol
_atom_type_description
_atom_site_fract_x
_atom_site_fract_y
_atom_site_fract_z
_atom_type_partial_charge
C1    C     C_R   0.880239 0.312293 0.513926 0.853621
C2    C     C_R   0.361464 0.921315 0.497263 -0.063626
C3    C     C_R   0.680173 0.000452 0.543898 0.005044
C4    C     C_R   0.322839 0.998730 0.474839 0.006960
C5    C     C_R   0.534421 0.050181 0.509630 0.093680
C6    C     C_R   0.467932 0.947537 0.509310 0.091493
C7    C     C_R   0.510175 0.875310 0.517162 -0.133911
C8    C     C_R   0.492998 0.122435 0.503713 -0.131479
C9    C     C_R   0.613466 0.900156 0.538992 -0.219382
C10   C     C_R   0.389950 0.098256 0.482752 -0.217193
C11   C     C_R   0.709284 0.661553 0.350302 -0.342765
C12   C     C_R   0.119888 0.687704 0.487830 0.852789
C13   C     C_R   0.285768 0.331363 0.644379 -0.359021
C14   C     C_R   0.793276 0.635101 0.373984 0.466757
C15   C     C_R   0.204822 0.362198 0.623687 0.464362
C16   C     C_R   0.999736 0.499847 0.660085 0.822969
C17   C     C_R   0.000235 0.500076 0.339916 0.820168
C18   C     C_R   0.715980 0.510708 0.489736 0.000971
C19   C     C_R   0.284435 0.489712 0.510968 -0.001290
C20   C     C_R   0.628111 0.534051 0.467576 -0.025118
C21   C     C_R   0.370594 0.463652 0.531284 -0.027381
C22   C     C_R   0.627986 0.612893 0.397349 0.116122
C23   C     C_R   0.785825 0.026237 0.567113 0.282684
C24   C     C_R   0.368679 0.381911 0.599146 0.126102
C25   C     C_R   0.540939 0.482668 0.511800 0.094076
C26   C     C_R   0.457491 0.514519 0.486771 0.091259
C27   C     C_R   0.463618 0.595835 0.417942 -0.230367
C28   C     C_R   0.533683 0.399702 0.579136 -0.231681
C29   C     C_R   0.546646 0.642994 0.373732 -0.184854
C30   C     C_R   0.449272 0.350616 0.621724 -0.188634
C31   C     C_3   0.967016 0.403852 0.041804 -0.155983
C32   C     C_3   0.033081 0.595265 0.958341 -0.155156
C33   C     C_3   0.905601 0.447988 0.963618 -0.156693
C34   C     C_R   0.217589 0.974608 0.450374 0.281099
C35   C     C_3   0.094499 0.551132 0.036521 -0.155979
C36   C     C_1   0.999399 0.499692 0.749857 -0.173085
C37   C     C_1   0.000523 0.499944 0.250174 -0.174130
C38   C     C_3   0.061139 0.455359 0.994001 -0.158154
C39   C     C_3   0.938960 0.543760 0.006123 -0.156508
C40   C     C_3   0.999721 0.499497 0.917364 0.189115
C41   C     C_3   0.000371 0.499630 0.082778 0.188888
C42   C     C_1   0.999438 0.499549 0.825531 -0.077008
C43   C     C_1   0.000562 0.499799 0.174564 -0.074098
C44   C     C_R   0.812305 0.204607 0.523968 -0.209454
C45   C     C_R   0.850495 0.129283 0.558533 -0.311648
C46   C     C_R   0.188679 0.795240 0.483627 -0.208503
C47   C     C_3   0.143443 0.326003 0.761498 -0.680461
C48   C     C_3   0.909236 0.790736 0.298617 -0.767095
C49   C     C_3   0.932262 0.973879 0.621297 -0.704145
C50   C     C_3   0.073118 0.030815 0.402041 -0.710927
C51   C     C_R   0.151998 0.872095 0.453261 -0.317692
C52   C     C_R   0.708033 0.177658 0.500487 0.516031
C53   C     C_R   0.292429 0.820503 0.510823 0.517291
C54   C     C_R   0.640591 0.077036 0.519369 -0.064760
Cu1   Cu    Cu3+1 0.081740 0.475690 0.522610 0.987139
Cu2   Cu    Cu3+1 0.918260 0.524310 0.477390 0.985923
F1    F     F_    0.324012 0.747925 0.560361 -0.677425
F2    F     F_    0.673562 0.247774 0.449799 -0.675739
H1    H     H_    0.828065 0.405657 0.932330 0.132186
H2    H     H_    0.060177 0.673833 0.922719 0.133055
H3    H     H_    0.888817 0.580053 0.012455 0.132457
H4    H     H_    0.111257 0.419067 0.987596 0.131987
H5    H     H_    0.640680 0.840470 0.547331 0.163453
H6    H     H_    0.363429 0.158085 0.476322 0.163913
H7    H     H_    0.071904 0.851030 0.433951 0.201343
H8    H     H_    0.931009 0.151825 0.577169 0.183787
H9    H     H_    0.465340 0.798939 0.504942 0.205931
H10   H     H_    0.538887 0.198438 0.516727 0.199429
H11   H     H_    0.547298 0.704296 0.320402 0.141017
H12   H     H_    0.172038 0.593463 0.067803 0.132073
H13   H     H_    0.447143 0.287221 0.673189 0.142017
H14   H     H_    0.086960 0.235110 0.665401 0.218236
H15   H     H_    0.193124 0.286983 0.800371 0.199781
H16   H     H_    0.071835 0.294330 0.789625 0.221275
H17   H     H_    0.180943 0.407860 0.766624 0.251961
H18   H     H_    0.862749 0.645999 0.271351 0.252297
H19   H     H_    0.859858 0.810630 0.239800 0.216145
H20   H     H_    0.986943 0.820535 0.282195 0.238467
H21   H     H_    0.910018 0.826844 0.353169 0.235132
H22   H     H_    0.783607 0.890071 0.644363 0.249653
H23   H     H_    0.278451 0.549268 0.459048 0.142831
H24   H     H_    0.947280 0.903573 0.638824 0.231860
H25   H     H_    0.963697 0.015748 0.678050 0.219296
H26   H     H_    0.970288 0.019722 0.563744 0.236282
H27   H     H_    0.221636 0.113925 0.378906 0.250533
H28   H     H_    0.059768 0.101545 0.391891 0.233068
H29   H     H_    0.034276 0.979214 0.457472 0.237185
H30   H     H_    0.041517 0.996735 0.341014 0.225178
H31   H     H_    0.723450 0.453575 0.543696 0.142707
H32   H     H_    0.706817 0.719494 0.294669 0.152252
H33   H     H_    0.283941 0.268367 0.696207 0.144948
H34   H     H_    0.404876 0.624722 0.395780 0.133443
H35   H     H_    0.591857 0.369907 0.600117 0.133996
H36   H     H_    0.939920 0.325284 0.077423 0.133049
N1    N     N_R   0.795440 0.560790 0.443380 -0.197831
N2    N     N_R   0.204560 0.439210 0.556620 -0.189731
N3    N     N_2   0.121473 0.310866 0.670869 -0.381652
N4    N     N_2   0.874294 0.682116 0.323595 -0.374443
N5    N     N_2   0.824415 0.948139 0.600319 -0.423687
N6    N     N_2   0.180536 0.054200 0.421648 -0.424303
O1    O     O_R   0.977900 0.338120 0.529810 -0.586588
O2    O     O_R   0.022100 0.661880 0.470190 -0.570012
O3    O     O_R   0.839850 0.379180 0.491620 -0.521060
O4    O     O_R   0.160150 0.620820 0.508380 -0.523613
O5    O     O_R   0.069010 0.479460 0.640020 -0.542577
O6    O     O_R   0.930990 0.520540 0.359980 -0.569430
O7    O     O_R   0.930960 0.520530 0.601820 -0.596702
O8    O     O_R   0.069040 0.479470 0.398180 -0.593787

loop_
_geom_bond_atom_site_label_1
_geom_bond_atom_site_label_2
_ccdc_geom_bond_type
C48   H19   S    
Cu2   N1    S    
C23   N5    S    
Cu1   Cu2   S    
C23   C45   A    
C22   C29   A    
C27   C29   A    
C36   C42   T    
C21   C26   A    
C30   H13   S    
C39   C41   S    
C25   C28   A    
C34   C51   A    
C33   C39   S    
Cu1   O5    S    
C49   H26   S    
C19   C21   A    
C12   O4    A    
C5    C6    A    
C3    C54   A    
C20   C25   A    
H18   N4    S    
C51   H7    S    
C32   C39   S    
C48   H20   S    
C16   O7    A    
C3    C23   A    
C35   H12   S    
C34   N6    S    
C31   C33   S    
C1    O3    A    
C18   C20   A    
C50   H30   S    
C44   C52   A    
C40   C42   S    
C33   H1    S    
C13   H33   S    
C18   N1    A    
C41   C43   S    
C2    C6    A    
C15   N3    S    
C52   C54   A    
C14   N4    S    
C29   H11   S    
H14   N3    S    
C39   H3    S    
C4    C34   A    
C33   C40   S    
C32   C35   S    
C5    C54   A    
C35   C38   S    
C47   H15   S    
C12   C46   S    
C17   O8    A    
C15   N2    A    
C53   F1    S    
C25   C26   A    
Cu1   O4    S    
C13   C24   A    
C28   H35   S    
C49   H24   S    
C37   C43   T    
C2    C4    A    
Cu2   O7    S    
C12   O2    A    
C3    C9    A    
C49   N5    S    
C1    C44   S    
C26   C27   A    
C27   H34   S    
C17   C37   S    
Cu2   O6    S    
C52   F2    S    
C16   O5    A    
C50   H29   S    
C20   C22   A    
C8    H10   S    
C13   C15   A    
H22   N5    S    
C32   H2    S    
C4    C10   A    
C1    O1    A    
C14   N1    A    
C44   C45   A    
C48   H21   S    
C7    C9    A    
C31   C41   S    
C9    H5    S    
C18   H31   S    
C10   H6    S    
C47   H16   S    
Cu1   N2    S    
C47   H17   S    
C2    C53   A    
C5    C8    A    
C6    C7    A    
C31   H36   S    
C48   N4    S    
Cu1   O1    S    
C11   C22   A    
C50   N6    S    
C47   N3    S    
C31   C38   S    
Cu1   O8    S    
C49   H25   S    
C28   C30   A    
Cu2   O2    S    
H27   N6    S    
C17   O6    A    
C16   C36   S    
C38   C40   S    
C11   H32   S    
C46   C51   A    
C46   C53   A    
C11   C14   A    
Cu2   O3    S    
C32   C40   S    
C35   C41   S    
C24   C30   A    
C50   H28   S    
C7    H9    S    
C8    C10   A    
C21   C24   A    
C45   H8    S    
C19   H23   S    
C19   N2    A    
C38   H4    S    
