data_mof_unit_47382.cif
_audit_creation_date              2012-12-10T17:56:44-0500
_audit_creation_method            fapswitch 2.2
_symmetry_space_group_name_H-M    P1
_symmetry_Int_Tables_number       1
_space_group_crystal_system       triclinic
_cell_length_a                    10.833315
_cell_length_b                    9.491929
_cell_length_c                    10.844533
_cell_angle_alpha                 88.603158
_cell_angle_beta                  90.18316
_cell_angle_gamma                 90.024123
_cell_volume                      1114.79595952

loop_
_atom_site_label
_atom_site_type_symbol
_atom_type_description
_atom_site_fract_x
_atom_site_fract_y
_atom_site_fract_z
_atom_type_partial_charge
C1    C     C_R   0.261989 0.499948 0.500087 0.806486
C2    C     C_R   0.738024 0.499976 0.500302 0.793701
C3    C     C_R   0.936238 0.627885 0.504007 -0.177013
C4    C     C_R   0.063942 0.627866 0.503991 -0.170577
C5    C     C_R   0.421919 0.076532 0.424488 -0.021534
C6    C     C_R   0.577950 0.072475 0.575632 -0.000279
C7    C     C_R   0.421764 0.927514 0.424661 -0.021195
C8    C     C_R   0.577985 0.923452 0.575598 -0.009300
C9    C     C_R   0.510875 0.502710 0.262068 0.888925
C10   C     C_R   0.494188 0.498153 0.737933 0.943941
C11   C     C_R   0.494819 0.772079 0.099545 0.466627
C12   C     C_R   0.363164 0.713057 0.883459 0.465664
C13   C     C_R   0.422456 0.876855 0.040731 -0.306619
C14   C     C_R   0.351605 0.845063 0.938060 -0.265831
C15   C     C_R   0.445311 0.611699 0.936575 -0.091834
C16   C     C_R   0.489533 0.631754 0.056812 -0.083601
C17   C     C_R   0.525941 0.509795 0.127068 -0.154530
C18   C     C_R   0.489835 0.493981 0.872610 -0.164148
C19   C     C_R   0.558199 0.385648 0.066184 0.288675
C20   C     C_R   0.551482 0.383584 0.936810 0.277832
C21   C     C_R   0.063795 0.372073 0.497499 -0.187141
C22   C     C_R   0.936107 0.372087 0.497596 -0.167937
C23   C     C_R   0.871830 0.499998 0.500653 -0.010428
C24   C     C_R   0.128201 0.499962 0.500542 -0.002720
Cu1   Cu    Cu3+1 0.500000 0.640660 0.500000 0.984545
Cu2   Cu    Cu3+1 0.500000 0.359340 0.500000 0.990610
H1    H     H_    0.421135 0.983335 0.074336 0.148890
H2    H     H_    0.291868 0.925421 0.897900 0.153398
H3    H     H_    0.111787 0.272097 0.494821 0.148599
H4    H     H_    0.888012 0.272111 0.495044 0.154169
H5    H     H_    0.888233 0.727853 0.506670 0.152711
H6    H     H_    0.112064 0.727822 0.506674 0.147116
H7    H     H_    0.359565 0.134470 0.363916 0.123058
H8    H     H_    0.640345 0.127196 0.636085 0.150850
H9    H     H_    0.359429 0.872776 0.364134 0.122449
H10   H     H_    0.640406 0.865477 0.636074 0.120545
N1    N     N_R   0.500000 0.852070 0.500000 -0.149151
N2    N     N_R   0.500000 0.147940 0.500000 -0.159874
O1    O     O_R   0.319640 0.618740 0.499990 -0.582421
O2    O     O_R   0.680360 0.618740 0.500010 -0.590517
O3    O     O_R   0.319620 0.381170 0.499990 -0.606199
O4    O     O_R   0.680380 0.381170 0.500010 -0.587562
O5    O     O_R   0.500000 0.618810 0.319650 -0.549653
O6    O     O_R   0.500000 0.618810 0.680350 -0.572417
O7    O     O_R   0.499970 0.381240 0.319640 -0.544164
O8    O     O_R   0.500030 0.381240 0.680360 -0.539675
O9    O     O_3   0.600094 0.270057 0.134198 -0.722446
H11   H     H_    0.580734 0.183372 0.088855 0.321969
O10   O     O_3   0.605923 0.276819 0.871562 -0.739263
H12   H     H_    0.676591 0.238085 0.919650 0.331507
O11   O     O_3   0.582602 0.808556 0.185848 -0.703456
H13   H     H_    0.577324 0.911105 0.200571 0.318663
O12   O     O_3   0.290624 0.678503 0.783527 -0.734132
H14   H     H_    0.239135 0.760844 0.758681 0.314684

loop_
_geom_bond_atom_site_label_1
_geom_bond_atom_site_label_2
_ccdc_geom_bond_type
C10   O8    A    
C15   C18   A    
C6    N2    A    
C9    O7    A    
C20   O10   S    
C11   C16   A    
C3    C23   A    
C12   O12   S    
C12   C15   A    
Cu1   N1    S    
Cu1   O5    S    
C19   C20   A    
C7    N1    A    
O11   H13   S    
Cu2   O3    S    
C13   C14   A    
Cu1   O1    S    
C3    H5    S    
C11   C13   A    
C4    H6    S    
C21   H3    S    
C2    O4    A    
Cu1   O6    S    
C1    O3    A    
C17   C19   A    
C10   C18   S    
C18   C20   A    
Cu1   O2    S    
C4    C24   A    
C19   O9    S    
C9    O5    A    
C11   O11   S    
C8    N1    A    
C1    O1    A    
C10   O6    A    
C15   C16   A    
O9    H11   S    
C2    O2    A    
C5    N2    A    
Cu2   O4    S    
C1    C24   S    
O10   H12   S    
C8    H10   S    
C21   C24   A    
C9    C17   S    
C2    C23   S    
C5    C7    A    
Cu2   O8    S    
C22   C23   A    
Cu2   N2    S    
C6    C8    A    
C22   H4    S    
Cu2   O7    S    
C14   H2    S    
Cu1   Cu2   S    
C21   C22   A    
C7    H9    S    
C13   H1    S    
C3    C4    A    
C6    H8    S    
O12   H14   S    
C12   C14   A    
C16   C17   A    
C5    H7    S    
