data_mof_unit_49017.cif
_audit_creation_date              2012-12-11T15:48:52-0500
_audit_creation_method            fapswitch 2.2
_symmetry_space_group_name_H-M    P1
_symmetry_Int_Tables_number       1
_space_group_crystal_system       triclinic
_cell_length_a                    10.922294
_cell_length_b                    10.92602
_cell_length_c                    18.785215
_cell_angle_alpha                 90.653986
_cell_angle_beta                  90.411934
_cell_angle_gamma                 60.521755
_cell_volume                      1951.43034357

loop_
_atom_site_label
_atom_site_type_symbol
_atom_type_description
_atom_site_fract_x
_atom_site_fract_y
_atom_site_fract_z
_atom_type_partial_charge
C1    C     C_R   0.240702 0.645128 0.610714 0.541758
C2    C     C_R   0.577192 0.142827 0.709877 -0.182629
C3    C     C_R   0.574045 0.150180 0.782998 -0.175737
C4    C     C_R   0.654343 0.622877 0.600546 0.538542
C5    C     C_3   0.938944 0.083679 0.785217 -0.126090
C6    C     C_3   0.933214 0.090639 0.704373 -0.255995
C7    C     C_R   0.674790 0.163226 0.671987 0.009418
C8    C     C_R   0.182857 0.665780 0.835685 0.010283
C9    C     C_R   0.153927 0.576006 0.794154 0.018492
C10   C     C_R   0.162581 0.574202 0.720323 -0.005473
C11   C     C_R   0.222920 0.758243 0.727224 -0.172572
C12   C     C_3   0.657003 0.560053 0.799727 -0.255100
C13   C     C_R   0.220516 0.755317 0.801173 -0.181214
C14   C     C_3   0.226040 0.419660 0.797197 -0.281916
C15   C     C_3   0.232531 0.418258 0.716700 -0.270807
C16   C     C_R   0.630434 0.225254 0.601791 0.538449
C17   C     C_R   0.198667 0.664073 0.685476 0.009708
C18   C     C_R   0.670882 0.682614 0.173790 0.015539
C19   C     C_R   0.779184 0.573069 0.210832 0.031522
C20   C     C_R   0.779424 0.564847 0.283156 0.027635
C21   C     C_R   0.564757 0.787117 0.288395 -0.165503
C22   C     C_R   0.567514 0.796372 0.213642 -0.160682
C23   C     C_3   0.698245 0.674103 0.812074 0.050241
C24   C     C_3   0.844393 0.418673 0.199277 -0.283110
C25   C     C_3   0.844427 0.408004 0.279371 -0.270038
C26   C     C_R   0.666333 0.664700 0.323030 0.018131
C27   C     C_R   0.661663 0.138148 0.180027 0.015162
C28   C     C_R   0.218831 0.650696 0.401997 0.545973
C29   C     C_R   0.557276 0.128189 0.217130 0.035860
C30   C     C_R   0.552004 0.137443 0.289993 0.028778
C31   C     C_R   0.774506 0.133778 0.292581 -0.167596
C32   C     C_R   0.775294 0.132288 0.218461 -0.166110
C33   C     C_3   0.401735 0.212716 0.208552 -0.281198
C34   C     C_3   0.670194 0.648398 0.675951 0.059971
C35   C     C_3   0.394412 0.224563 0.288806 -0.267140
C36   C     C_R   0.654165 0.153558 0.328288 0.018631
C37   C     C_R   0.051198 0.728403 0.195148 0.016521
C38   C     C_R   0.063114 0.831746 0.233837 0.031614
C39   C     C_R   0.100043 0.813218 0.304344 0.029675
C40   C     C_R   0.643423 0.624191 0.393091 0.544324
C41   C     C_R   0.097982 0.593243 0.303926 -0.167494
C42   C     C_R   0.059256 0.612891 0.231746 -0.159743
C43   C     C_3   0.152378 0.897943 0.218875 -0.267677
C44   C     C_3   0.189847 0.881025 0.296531 -0.270467
C45   C     C_3   0.820713 0.619615 0.691476 -0.246485
C46   C     C_R   0.130940 0.688079 0.338653 0.014801
C47   C     C_R   0.702252 0.100129 0.895258 0.542154
C48   C     C_R   0.722863 0.687809 0.888295 0.543601
C49   C     C_R   0.119697 0.705177 0.906225 0.546339
C50   C     C_R   0.676776 0.103964 0.105218 0.541280
C51   C     C_R   0.698146 0.692606 0.099022 0.539964
C52   C     C_R   0.617899 0.225635 0.396155 0.545036
C53   C     C_R   0.027803 0.746708 0.118881 0.565629
C54   C     C_3   0.580457 0.814681 0.780828 -0.232421
C55   C     C_3   0.565676 0.800505 0.700189 -0.242348
C56   C     C_3   0.641258 0.544360 0.719372 -0.213065
C57   C     C_3   0.836848 0.634362 0.771588 -0.217116
C58   C     C_3   0.011442 0.158778 0.819776 -0.405355
C59   C     C_R   0.683331 0.152662 0.822319 0.005781
C60   C     C_R   0.783070 0.171012 0.784628 0.010836
C61   C     C_R   0.777066 0.178974 0.710279 -0.000793
Cr1   Cr    Cr6+3 0.392960 0.397920 0.502240 1.001476
Cr2   Cr    Cr6+3 0.398340 0.708480 0.501250 0.999882
Cr3   Cr    Cr6+3 0.708670 0.393570 0.496460 1.001914
Cr4   Cr    Cr6+3 0.937650 0.938540 0.007610 0.995977
Cr5   Cr    Cr6+3 0.625330 0.937370 0.994520 0.999626
Cr6   Cr    Cr6+3 0.937940 0.625230 0.001190 1.003245
H1    H     H_    0.608391 0.897774 0.790613 0.146188
H2    H     H_    0.248874 0.831762 0.703036 0.135043
H3    H     H_    0.478199 0.846779 0.807481 0.116304
H4    H     H_    0.238892 0.830076 0.831121 0.131297
H5    H     H_    0.157540 0.379853 0.818205 0.130365
H6    H     H_    0.329812 0.376714 0.823864 0.144065
H7    H     H_    0.340225 0.373319 0.695480 0.179625
H8    H     H_    0.165479 0.380433 0.690657 0.123144
H9    H     H_    0.479566 0.870741 0.318117 0.122975
H10   H     H_    0.488255 0.889690 0.187324 0.132655
H11   H     H_    0.951794 0.371722 0.176328 0.136672
H12   H     H_    0.717640 0.435434 0.703198 0.147806
H13   H     H_    0.772029 0.388977 0.171970 0.139141
H14   H     H_    0.770513 0.373810 0.298376 0.171190
H15   H     H_    0.455760 0.827821 0.688007 0.133519
H16   H     H_    0.951718 0.352981 0.302968 0.127833
H17   H     H_    0.859889 0.136210 0.321027 0.126453
H18   H     H_    0.862753 0.129961 0.191049 0.132677
H19   H     H_    0.355530 0.149611 0.186507 0.133252
H20   H     H_    0.367600 0.314784 0.181713 0.144305
H21   H     H_    0.355801 0.334114 0.307638 0.167325
H22   H     H_    0.342654 0.169505 0.313202 0.126001
H23   H     H_    0.922519 0.532484 0.791297 0.140100
H24   H     H_    0.114737 0.498390 0.330026 0.123090
H25   H     H_    0.047218 0.532681 0.203567 0.139101
H26   H     H_    0.092444 0.009590 0.202907 0.124211
H27   H     H_    0.587434 0.875913 0.671218 0.113634
H28   H     H_    0.244422 0.831343 0.184387 0.158084
H29   H     H_    0.303222 0.806834 0.305372 0.163924
H30   H     H_    0.146625 0.982664 0.326005 0.128112
H31   H     H_    0.867318 0.716536 0.781301 0.126301
H32   H     H_    0.842199 0.694893 0.662037 0.115269
H33   H     H_    0.738321 0.458214 0.822077 0.129696
H34   H     H_    0.899769 0.511604 0.673961 0.133745
H35   H     H_    0.556016 0.589529 0.827086 0.120664
H36   H     H_    0.533907 0.561345 0.707770 0.130072
H37   H     H_    0.972755 0.265008 0.796985 0.127907
H38   H     H_    0.991355 0.169477 0.877974 0.157730
H39   H     H_    0.126601 0.095993 0.810814 0.118616
H40   H     H_    0.494830 0.131967 0.683049 0.130136
H41   H     H_    0.491056 0.139284 0.808110 0.139127
H42   H     H_    0.973057 0.977600 0.806477 0.176753
H43   H     H_    0.981305 0.149973 0.680805 0.137714
H44   H     H_    0.965084 0.987531 0.678203 0.132418
O1    O     O_R   0.507380 0.255700 0.581440 -0.535555
O2    O     O_R   0.837170 0.593410 0.915250 -0.527669
O3    O     O_R   0.065200 0.635530 0.931570 -0.494398
O4    O     O_R   0.280320 0.527350 0.578930 -0.502777
O5    O     O_R   0.068260 0.828890 0.091840 -0.522839
O6    O     O_R   0.798870 0.057410 0.079340 -0.524467
O7    O     O_R   0.584930 0.080350 0.076780 -0.513908
O8    O     O_R   0.626960 0.809650 0.067060 -0.506094
O9    O     O_R   0.816040 0.596610 0.076510 -0.525855
O10   O     O_R   0.045610 0.638500 0.081060 -0.507731
O11   O     O_3   0.833640 0.833710 0.001100 -0.266888
O12   O     O_R   0.524480 0.695810 0.424040 -0.509203
O13   O     O_R   0.260510 0.739590 0.584590 -0.532508
O14   O     O_R   0.532300 0.695080 0.573820 -0.510603
O15   O     O_R   0.744840 0.503500 0.576370 -0.528617
O16   O     O_R   0.699120 0.276560 0.571960 -0.500444
O17   O     O_R   0.498940 0.256500 0.419860 -0.523818
O18   O     O_R   0.272500 0.528080 0.429150 -0.509501
O19   O     O_R   0.252060 0.740380 0.423010 -0.521445
O20   O     O_R   0.736390 0.504290 0.414790 -0.522216
O21   O     O_R   0.691300 0.277290 0.422170 -0.512444
O22   O     O_3   0.499990 0.499990 0.499980 -0.244676
O23   O     O_R   0.089400 0.825690 0.930570 -0.527960
O24   O     O_R   0.818460 0.054440 0.929850 -0.502578
O25   O     O_R   0.606060 0.077150 0.915510 -0.532978
O26   O     O_R   0.646550 0.806680 0.917570 -0.508956

loop_
_geom_bond_atom_site_label_1
_geom_bond_atom_site_label_2
_ccdc_geom_bond_type
C15   H8    S    
C49   O23   A    
C34   C56   S    
C8    C13   A    
C47   O25   A    
C27   C29   A    
C50   O6    A    
C41   C42   A    
C2    C7    A    
C43   C44   S    
Cr2   O13   S    
C52   O17   A    
C6    C61   S    
C21   H9    S    
C45   C57   S    
C29   C30   A    
C56   H12   S    
C20   C26   A    
C48   O26   A    
Cr2   O22   S    
Cr1   O22   S    
Cr6   O3    S    
C18   C19   A    
C10   C15   S    
C31   C36   A    
C5    C6    S    
C54   H1    S    
C20   C25   S    
C57   H31   S    
C10   C17   A    
C29   C33   S    
C2    H40   S    
C28   O18   A    
C44   H30   S    
Cr2   O19   S    
C37   C42   A    
C7    C61   A    
C43   H26   S    
C54   C55   S    
C24   H13   S    
C6    H44   S    
Cr3   O21   S    
C8    C9    A    
C43   H28   S    
C41   C46   A    
Cr5   O11   S    
C9    C10   A    
C42   H25   S    
Cr4   O23   S    
C36   C52   S    
C27   C50   S    
C37   C53   S    
C49   O3    A    
C34   C55   S    
C50   O7    A    
C21   C22   A    
C25   H14   S    
C6    H43   S    
Cr1   O18   S    
C5    C58   S    
C55   H27   S    
Cr6   O10   S    
C21   C26   A    
C18   C51   S    
C4    C34   S    
C57   H23   S    
C52   O21   A    
C14   H6    S    
C24   C25   S    
C56   H36   S    
C45   H32   S    
C9    C14   S    
C12   C23   S    
C13   H4    S    
C31   H17   S    
C60   C61   A    
C58   H39   S    
C12   C56   S    
C33   H19   S    
C59   C60   A    
C12   H35   S    
C37   C38   A    
C44   H29   S    
C35   H21   S    
C51   O8    A    
C31   C32   A    
C54   H3    S    
Cr3   O20   S    
Cr3   O16   S    
C28   C46   S    
C51   O9    A    
C34   C45   S    
Cr2   O14   S    
Cr4   O11   S    
C55   H15   S    
Cr4   O24   S    
C45   H34   S    
C39   C46   A    
Cr5   O25   S    
C4    O14   A    
C24   H11   S    
C7    C16   S    
C41   H24   S    
C40   O20   A    
Cr3   O15   S    
Cr5   O8    S    
Cr4   O5    S    
C58   H37   S    
Cr6   O11   S    
C35   H22   S    
C16   O1    A    
C23   C54   S    
Cr6   O9    S    
C23   C57   S    
C40   O12   A    
Cr3   O22   S    
C11   C17   A    
C23   C48   S    
C5    C60   S    
C47   O24   A    
C27   C32   A    
C18   C22   A    
C14   H5    S    
C22   H10   S    
Cr2   O12   S    
C11   H2    S    
C39   C44   S    
C30   C36   A    
C3    H41   S    
C30   C35   S    
C1    C17   S    
C4    O15   A    
C53   O5    A    
C58   H38   S    
C19   C20   A    
C2    C3    A    
Cr6   O2    S    
C1    O13   A    
Cr1   O4    S    
C53   O10   A    
Cr1   O17   S    
C11   C13   A    
C26   C40   S    
C38   C39   A    
Cr5   O26   S    
C5    H42   S    
C32   H18   S    
C33   C35   S    
C19   C24   S    
C28   O19   A    
C33   H20   S    
C16   O16   A    
C12   H33   S    
C47   C59   S    
C38   C43   S    
C15   H7    S    
Cr1   O1    S    
Cr5   O7    S    
C25   H16   S    
Cr4   O6    S    
C14   C15   S    
C1    O4    A    
C8    C49   S    
C48   O2    A    
C3    C59   A    
