data_mof_unit_64282.cif
_audit_creation_date              2012-12-11T15:59:36-0500
_audit_creation_method            fapswitch 2.2
_symmetry_space_group_name_H-M    P1
_symmetry_Int_Tables_number       1
_space_group_crystal_system       triclinic
_cell_length_a                    6.963857
_cell_length_b                    20.136948
_cell_length_c                    21.722101
_cell_angle_alpha                 92.833941
_cell_angle_beta                  89.20199
_cell_angle_gamma                 90.52314
_cell_volume                      3041.97908593

loop_
_atom_site_label
_atom_site_type_symbol
_atom_type_description
_atom_site_fract_x
_atom_site_fract_y
_atom_site_fract_z
_atom_type_partial_charge
O1    O     O_R   0.505910 0.557140 0.441630 -0.523016
O2    O     O_R   0.175760 0.566370 0.557960 -0.523339
O3    O     O_R   0.005440 0.442860 0.558370 -0.523933
C1    C     C_R   0.344370 0.584130 0.580667 0.729292
O4    O     O_R   0.176200 0.564760 0.442040 -0.523877
O5    O     O_R   0.005880 0.441250 0.441620 -0.522171
C2    C     C_R   0.346775 0.582501 0.419597 0.688878
O6    O     O_R   0.505470 0.558750 0.558380 -0.519241
O7    O     O_3   0.339200 0.459480 0.500000 -0.347215
V1    V     V_3+5 0.064350 0.507520 0.500000 1.441411
O8    O     O_R   0.676160 0.433630 0.442040 -0.524430
C3    C     C_R   0.845478 0.415476 0.419874 0.708008
O9    O     O_R   0.675730 0.435240 0.557960 -0.520834
C4    C     C_R   0.843040 0.420383 0.577553 0.736658
V2    V     V_3+5 0.564340 0.492480 0.500000 1.463078
O10   O     O_3   0.839360 0.540520 0.500000 -0.363154
C5    C     C_3   0.993263 0.318721 0.763060 0.548818
C6    C     C_3   0.663530 0.271606 0.736652 0.505095
C7    C     C_3   0.685054 0.222521 0.789303 -0.457580
H1    H     H_    0.963529 0.291126 0.858695 0.121213
H2    H     H_    0.924492 0.364564 0.783414 0.110024
H3    H     H_    0.628614 0.245877 0.833367 0.199564
H4    H     H_    0.598875 0.176223 0.780605 0.112344
C8    C     C_1   0.927990 0.119322 0.883788 -0.201258
C9    C     C_3   0.867735 0.287972 0.710080 0.004003
C10   C     C_3   0.015367 0.268446 0.813785 -0.360977
C11   C     C_3   0.899225 0.204502 0.796885 0.146221
C12   C     C_3   0.977744 0.172979 0.735279 -0.366298
C13   C     C_3   0.963358 0.222960 0.684064 -0.431493
C14   C     C_1   0.916906 0.158109 0.844719 -0.031407
C15   C     C_1   0.856691 0.334832 0.662160 0.098140
C16   C     C_1   0.849406 0.373807 0.623145 -0.103588
H5    H     H_    0.109088 0.233745 0.665580 0.248903
H6    H     H_    0.879803 0.200356 0.644972 0.137426
H7    H     H_    0.130367 0.158333 0.740260 0.165214
H8    H     H_    0.169741 0.256208 0.819094 0.198486
H9    H     H_    0.894247 0.127180 0.722076 0.156145
C17   C     C_1   0.921727 0.130484 0.138379 -0.211184
C18   C     C_1   0.910262 0.173843 0.181161 0.003540
C19   C     C_1   0.895616 0.225026 0.232031 0.002681
C20   C     C_1   0.883038 0.268159 0.274977 0.002615
C21   C     C_1   0.868393 0.319344 0.325846 0.003704
C22   C     C_1   0.856930 0.362705 0.368626 -0.207257
C23   C     C_1   0.354836 0.635389 0.633661 -0.205633
C24   C     C_1   0.366720 0.677004 0.678112 0.012777
C25   C     C_1   0.382509 0.725962 0.731161 0.006184
C26   C     C_1   0.396160 0.767120 0.775913 0.003608
C27   C     C_1   0.411949 0.816081 0.828959 0.005242
C28   C     C_1   0.423834 0.857705 0.873404 -0.215393
C29   C     C_1   0.360178 0.633879 0.368147 -0.206262
C30   C     C_1   0.371072 0.675729 0.325706 0.012235
C31   C     C_1   0.384065 0.725699 0.274794 -0.001284
C32   C     C_1   0.394909 0.767422 0.232241 -0.000658
C33   C     C_1   0.407893 0.817392 0.181330 0.014323
C34   C     C_1   0.418764 0.859244 0.138889 -0.206019
O11   O     O_R   0.273200 0.934350 0.948680 -0.519108
O12   O     O_R   0.602630 0.928390 0.064980 -0.520444
O13   O     O_R   0.772790 0.051930 0.065390 -0.520025
C35   C     C_R   0.432088 0.910626 0.087441 0.702674
O14   O     O_R   0.602920 0.926780 0.949060 -0.522151
O15   O     O_R   0.773080 0.050310 0.948640 -0.529674
C36   C     C_R   0.434303 0.908984 0.926381 0.718723
O16   O     O_R   0.272900 0.935970 0.065430 -0.519113
O17   O     O_3   0.439420 0.033650 0.007040 -0.354028
V3    V     V_3+5 0.714330 0.985650 0.007020 1.415407
O18   O     O_R   0.102790 0.057980 0.949020 -0.534212
C37   C     C_R   0.935379 0.072816 0.929440 0.743057
O19   O     O_R   0.102500 0.059590 0.064940 -0.522574
C38   C     C_R   0.933185 0.077718 0.087128 0.717335
V4    V     V_3+5 0.214320 0.000760 0.006970 1.414164
O20   O     O_3   0.939360 0.952680 0.006990 -0.356195
F1    F     F_    0.172902 0.336835 0.740889 -0.610622
C39   C     C_2   0.532029 0.242732 0.686936 0.495157
H10   H     H_    0.512134 0.189353 0.680169 -0.060197
O21   O     O_2   0.453932 0.279172 0.651807 -0.494981
F2    F     F_    0.580629 0.329681 0.761337 -0.631518

loop_
_geom_bond_atom_site_label_1
_geom_bond_atom_site_label_2
_ccdc_geom_bond_type
C9    C15   S    
C34   C35   S    
C39   H10   S    
O2    C1    A    
C1    O6    A    
C32   C33   S    
C23   C24   T    
C10   C11   S    
C5    C10   S    
C12   C13   S    
C3    C22   S    
O5    C3    A    
C17   C18   T    
O12   C35   A    
V2    O10   S    
C13   H5    S    
O14   C36   A    
C6    C7    S    
C20   C21   S    
C8    C37   S    
C25   C26   T    
O8    V2    S    
C26   C27   S    
C12   H7    S    
V3    O20   S    
O19   C38   A    
V4    O20   S    
O1    V2    S    
O17   V4    S    
C7    C11   S    
O7    V1    S    
O18   C37   A    
C17   C38   S    
O9    C4    A    
C11   C14   S    
C39   O21   D    
C6    C9    S    
C9    C13   S    
C30   C31   S    
C7    H3    S    
O12   V3    S    
C18   C19   S    
O4    C2    A    
C1    C23   S    
C24   C25   S    
C13   H6    S    
C5    H2    S    
C7    H4    S    
O15   C37   A    
O13   V3    S    
C15   C16   T    
O16   V4    S    
C29   C30   T    
O3    C4    A    
C10   H8    S    
C27   C28   T    
O14   V3    S    
C6    C39   S    
O11   V4    S    
O9    V2    S    
O11   C36   A    
C21   C22   T    
O2    V1    S    
C31   C32   T    
C33   C34   T    
C19   C20   T    
C6    F2    S    
C28   C36   S    
O1    C2    A    
C2    C29   S    
C4    C16   S    
O5    V1    S    
O8    C3    A    
O13   C38   A    
O6    V2    S    
C35   O16   A    
C5    C9    S    
O17   V3    S    
O7    V2    S    
O4    V1    S    
O3    V1    S    
V1    O10   S    
O18   V4    S    
H1    C10   S    
C12   H9    S    
C8    C14   T    
O15   V3    S    
C5    F1    S    
O19   V4    S    
C11   C12   S    
