data_mof_unit_41748.cif
_audit_creation_date              2012-10-26T18:50:06-0400
_audit_creation_method            fapswitch 2.2
_symmetry_space_group_name_H-M    P1
_symmetry_Int_Tables_number       1
_space_group_crystal_system       triclinic
_cell_length_a                    10.84756
_cell_length_b                    13.005594
_cell_length_c                    11.633864
_cell_angle_alpha                 99.751821
_cell_angle_beta                  95.570343
_cell_angle_gamma                 90.190536
_cell_volume                      1609.61237499

loop_
_atom_site_label
_atom_site_type_symbol
_atom_type_description
_atom_site_fract_x
_atom_site_fract_y
_atom_site_fract_z
_atom_type_partial_charge
C1    C     C_R   0.498214 0.298940 0.478655 0.551541
C2    C     C_R   0.495852 0.860801 0.433265 -0.123964
C3    C     C_R   0.503685 0.031207 0.556263 0.048775
C4    C     C_R   0.496315 0.968793 0.443737 0.048776
C5    C     C_R   0.384666 0.399273 0.017987 0.215927
C6    C     C_R   0.615334 0.600727 0.982013 0.215927
C7    C     C_R   0.396027 0.409854 0.141835 0.048764
C8    C     C_R   0.603973 0.590146 0.858165 0.048764
C9    C     C_R   0.548938 0.543319 0.159183 0.054561
C10   C     C_R   0.451062 0.456680 0.840817 0.054561
C11   C     C_R   0.541661 0.536502 0.035649 -0.000608
C12   C     C_R   0.501786 0.701059 0.521345 0.551540
C13   C     C_R   0.458338 0.463498 0.964351 -0.000608
C14   C     C_R   0.261995 0.510614 0.498969 0.545363
C15   C     C_R   0.738004 0.489386 0.501031 0.545363
C16   C     C_R   0.138596 0.611328 0.700943 -0.118342
C17   C     C_R   0.861404 0.388672 0.299057 -0.118342
C18   C     C_R   0.093557 0.623969 0.810311 -0.102037
C19   C     C_R   0.906443 0.376031 0.189689 -0.102037
C20   C     C_R   0.982218 0.574751 0.823369 0.252636
C21   C     C_R   0.017782 0.425249 0.176631 0.252637
C22   C     C_R   0.912693 0.520679 0.724120 -0.039865
C23   C     C_R   0.502608 0.814368 0.533736 -0.000102
C24   C     C_R   0.087307 0.479322 0.275880 -0.039865
C25   C     C_R   0.951197 0.516175 0.610139 -0.033974
C26   C     C_R   0.048803 0.483825 0.389861 -0.033974
C27   C     C_R   0.072836 0.549910 0.601622 0.002532
C28   C     C_R   0.927164 0.450090 0.398378 0.002532
C29   C     C_R   0.873977 0.477824 0.505268 -0.029800
C30   C     C_R   0.126023 0.522176 0.494732 -0.029800
C31   C     C_R   0.497392 0.185632 0.466263 -0.000102
C32   C     C_R   0.489496 0.015316 0.343448 -0.132033
C33   C     C_R   0.510504 0.984684 0.656552 -0.132033
C34   C     C_R   0.490015 0.123378 0.354643 -0.136190
C35   C     C_R   0.509985 0.876622 0.645357 -0.136190
C36   C     C_R   0.504147 0.139199 0.566735 -0.123964
Cu1   Cu    Cu3+1 0.509250 0.507730 0.615930 0.930002
Cu2   Cu    Cu3+1 0.490750 0.492270 0.384070 0.930002
H1    H     H_    0.224701 0.651268 0.694553 0.140911
H2    H     H_    0.484718 0.158080 0.276028 0.129212
H3    H     H_    0.483801 0.968279 0.256709 0.113771
H4    H     H_    0.516199 0.031721 0.743291 0.113771
H5    H     H_    0.387551 0.401320 0.784566 0.190228
H6    H     H_    0.612449 0.598680 0.215434 0.190228
H7    H     H_    0.659983 0.638766 0.815940 0.127670
H8    H     H_    0.340017 0.361234 0.184060 0.127670
H9    H     H_    0.002626 0.379847 0.007961 0.345626
H10   H     H_    0.997374 0.620153 0.992039 0.345626
H11   H     H_    0.260350 0.288162 0.000105 0.334387
H12   H     H_    0.775299 0.348733 0.305447 0.140911
H13   H     H_    0.739650 0.711838 0.999895 0.334387
H14   H     H_    0.147238 0.669623 0.885084 0.103253
H15   H     H_    0.852761 0.330377 0.114916 0.103253
H16   H     H_    0.832157 0.478264 0.739763 0.166782
H17   H     H_    0.167843 0.521737 0.260237 0.166782
H18   H     H_    0.490237 0.813140 0.346795 0.130307
H19   H     H_    0.509763 0.186860 0.653205 0.130307
H20   H     H_    0.515282 0.841920 0.723972 0.129212
N1    N     N_R   0.523180 0.519350 0.790130 -0.280553
N2    N     N_R   0.476820 0.480650 0.209870 -0.280553
O1    O     O_R   0.506570 0.354460 0.582000 -0.508064
O2    O     O_3   0.938000 0.578895 0.931238 -0.686699
O3    O     O_3   0.303191 0.327183 0.948875 -0.708974
O4    O     O_3   0.696809 0.672817 0.051125 -0.708973
O5    O     O_R   0.493430 0.645540 0.418000 -0.508064
O6    O     O_R   0.490940 0.341410 0.386200 -0.514252
O7    O     O_R   0.509060 0.658590 0.613800 -0.514251
O8    O     O_R   0.327470 0.506520 0.597900 -0.499044
O9    O     O_R   0.672530 0.493480 0.402100 -0.499044
O10   O     O_R   0.311840 0.493460 0.402100 -0.517751
O11   O     O_R   0.688160 0.506540 0.597900 -0.517751
O12   O     O_3   0.062000 0.421105 0.068762 -0.686699

loop_
_geom_bond_atom_site_label_1
_geom_bond_atom_site_label_2
_ccdc_geom_bond_type
C17   H12   S    
Cu1   O1    S    
C32   H3    S    
Cu2   O10   S    
C15   C29   S    
Cu1   Cu2   S    
H11   O3    S    
C25   C27   A    
C15   O11   A    
C12   O5    A    
H10   O2    S    
C6    C11   A    
Cu2   O5    S    
C20   C22   A    
C9    C11   A    
C9    N2    A    
C19   H15   S    
C16   C27   A    
C10   N1    A    
Cu2   O9    S    
C18   H14   S    
C22   H16   S    
C2    H18   S    
C26   C28   A    
C27   C30   A    
C20   O2    S    
C24   H17   S    
C14   O10   A    
C12   C23   S    
Cu1   N1    S    
C2    C4    A    
C3    C36   A    
C14   C30   S    
C35   H20   S    
Cu2   N2    S    
C33   H4    S    
Cu1   O7    S    
C28   C29   A    
C33   C35   A    
C24   C26   A    
C26   C30   A    
C23   C35   A    
Cu1   O11   S    
C8    N1    A    
C25   C29   A    
C15   O9    A    
C12   O7    A    
C34   H2    S    
H9    O12   S    
C31   C34   A    
C11   C13   A    
C3    C33   A    
C16   H1    S    
C4    C32   A    
C7    H8    S    
Cu2   O6    S    
C7    N2    A    
C1    C31   S    
Cu1   O8    S    
C5    O3    S    
C18   C20   A    
C16   C18   A    
C36   H19   S    
C21   C24   A    
C6    O4    S    
C2    C23   A    
C5    C7    A    
C14   O8    A    
C31   C36   A    
C9    H6    S    
C6    C8    A    
C21   O12   S    
C17   C19   A    
C10   H5    S    
C8    H7    S    
C17   C28   A    
C5    C13   A    
C10   C13   A    
H13   O4    S    
C3    C4    A    
C1    O1    A    
C32   C34   A    
C19   C21   A    
C22   C25   A    
C1    O6    A    
