data_mof_unit_67545.cif
_audit_creation_date              2013-03-05T15:41:21-0500
_audit_creation_method            fapswitch 2.2
_symmetry_space_group_name_H-M    P1
_symmetry_Int_Tables_number       1
_space_group_crystal_system       triclinic
_cell_length_a                    10.619446
_cell_length_b                    8.787223
_cell_length_c                    7.43649
_cell_angle_alpha                 102.600733
_cell_angle_beta                  95.073364
_cell_angle_gamma                 92.115453
_cell_volume                      673.443427049

loop_
_atom_site_label
_atom_site_type_symbol
_atom_site_description
_atom_site_fract_x
_atom_site_fract_y
_atom_site_fract_z
_atom_type_partial_charge
O1    O     O_R   0.509190 0.286130 0.619780 -0.580049
O2    O     O_R   0.490810 0.713870 0.380220 -0.583804
O3    O     O_R   0.485310 0.256770 0.308360 -0.607245
O4    O     O_R   0.514690 0.743230 0.691640 -0.602109
C1    C     C_R   0.488587 0.200731 0.455512 0.873745
C2    C     C_R   0.501310 0.799635 0.546324 0.871694
O5    O     O_R   0.328790 0.514640 0.655680 -0.555147
O6    O     O_R   0.671210 0.485360 0.344320 -0.569387
O7    O     O_R   0.304910 0.485280 0.344260 -0.607101
O8    O     O_R   0.695090 0.514720 0.655740 -0.591658
C3    C     C_R   0.259492 0.499876 0.500895 0.826923
C4    C     C_R   0.740434 0.498507 0.499055 0.854245
Cu1   Cu    Cu3+1 0.514140 0.517380 0.684380 0.955407
Cu2   Cu    Cu3+1 0.485860 0.482620 0.315620 0.944734
N1    N     N_2   0.464560 0.456420 0.038510 -0.232288
N2    N     N_2   0.535440 0.543580 0.961490 -0.232435
C5    C     C_3   0.040908 0.377409 0.564547 0.052646
C6    C     C_3   0.959102 0.619470 0.436495 0.043608
C7    C     C_3   0.947435 0.364323 0.390337 -0.242234
C8    C     C_3   0.052613 0.632429 0.610579 -0.219695
H1    H     H_    0.903035 0.253056 0.304474 0.156290
H2    H     H_    0.098088 0.742518 0.698258 0.156621
C9    C     C_3   0.876940 0.498400 0.499197 -0.051899
C10   C     C_3   0.122980 0.498495 0.501491 -0.042345
C11   C     C_3   0.968788 0.509773 0.674711 -0.213251
C12   C     C_3   0.031085 0.486950 0.326120 -0.220268
H3    H     H_    0.941747 0.518669 0.817361 0.152217
H4    H     H_    0.058010 0.478333 0.183423 0.157278
H5    H     H_    0.400249 0.380048 0.948050 0.254380
H6    H     H_    0.599643 0.620163 0.052117 0.246755
C13   C     C_2   0.459887 0.036466 0.438695 -0.107886
C14   C     C_2   0.511553 0.966685 0.573621 -0.124590
C15   C     C_2   0.086468 0.239255 0.634335 0.777681
O9    O     O_2   0.011308 0.131856 0.638498 -0.610253
O10   O     O_R   0.214580 0.232058 0.690811 -0.792263
H7    H     H_    0.234044 0.131060 0.729251 0.317479
C16   C     C_2   0.914987 0.758052 0.366489 0.829835
O11   O     O_2   0.992368 0.844973 0.321071 -0.606951
O12   O     O_R   0.786743 0.788608 0.355073 -0.789067
H8    H     H_    0.769651 0.886158 0.307122 0.317483
C17   C     C_3   0.369384 0.953089 0.268815 -0.408657
C18   C     C_3   0.250244 0.041234 0.232041 -0.346000
C19   C     C_3   0.172845 0.957424 0.052500 -0.770709
H9    H     H_    0.229690 0.953821 0.933485 0.225958
H10   H     H_    0.144508 0.835795 0.058342 0.273294
H11   H     H_    0.086177 0.020700 0.030318 0.262652
H12   H     H_    0.190944 0.047226 0.348413 0.266054
H13   H     H_    0.272982 0.161975 0.219122 0.241344
H14   H     H_    0.423378 0.933253 0.145024 0.213822
H15   H     H_    0.329157 0.839514 0.284587 0.237490
C20   C     C_3   0.587206 0.052015 0.758002 -0.397005
C21   C     C_3   0.721497 0.110322 0.733464 -0.266471
C22   C     C_3   0.782492 0.213914 0.914724 -0.787002
H16   H     H_    0.727683 0.319015 0.955575 0.268165
H17   H     H_    0.785329 0.147367 0.025666 0.230061
H18   H     H_    0.880571 0.252972 0.899454 0.252043
H19   H     H_    0.779545 0.007879 0.693623 0.250214
H20   H     H_    0.721965 0.176645 0.622647 0.219354
H21   H     H_    0.532154 0.143989 0.836945 0.227126
H22   H     H_    0.600552 0.975878 0.858309 0.201172

loop_
_geom_bond_atom_site_label_1
_geom_bond_atom_site_label_2
_geom_bond_distance
_ccdc_geom_bond_type
C2    C14   1.436001 S    
O7    Cu2   1.952418 S    
C14   C20   1.549137 S    
C16   O11   1.219850 D    
C11   H3    1.110516 S    
C19   H10   1.110658 S    
C17   C18   1.542405 S    
C3    C10   1.449694 S    
C7    C9    1.536230 S    
C13   C14   1.371020 D    
C6    C12   1.540687 S    
O6    C4    1.289942 A    
C19   H9    1.110142 S    
C5    C11   1.539977 S    
O3    C1    1.292604 A    
C22   H17   1.109471 S    
C15   O9    1.220724 D    
C16   O12   1.396602 S    
C18   H13   1.105839 S    
C22   H16   1.110200 S    
C21   H20   1.108535 S    
O5    C3    1.288911 A    
O7    C3    1.282426 A    
C4    C9    1.449559 S    
O2    C2    1.292075 A    
O3    Cu2   1.973298 S    
C5    C15   1.500346 S    
O10   H7    1.012851 S    
O1    C1    1.282143 A    
N1    N2    1.306254 D    
O8    C4    1.281283 A    
C17   H14   1.112352 S    
C7    H1    1.107387 S    
C6    C16   1.499669 S    
C10   C12   1.540551 S    
N1    H5    1.028229 S    
C6    C8    1.541091 S    
C18   H12   1.107789 S    
C9    C11   1.541314 S    
O2    Cu2   1.981030 S    
C19   H11   1.111034 S    
Cu1   N2    2.014317 S    
C5    C10   1.527456 S    
O1    Cu1   1.981029 S    
C21   H19   1.111314 S    
N2    H6    1.029031 S    
C20   C21   1.537025 S    
C8    C10   1.535312 S    
C17   H15   1.104871 S    
O5    Cu1   1.959681 S    
C20   H21   1.108231 S    
C21   C22   1.527025 S    
O4    C2    1.282719 A    
C18   C19   1.527340 S    
C22   H18   1.107714 S    
O12   H8    1.014048 S    
C7    C12   1.551501 S    
Cu2   N1    2.014317 S    
C5    C7    1.541430 S    
O6    Cu2   1.959683 S    
C20   H22   1.109127 S    
C13   C17   1.544629 S    
C15   O10   1.395769 S    
Cu1   Cu2   2.680615 S    
C12   H4    1.110749 S    
O8    Cu1   1.952418 S    
C6    C9    1.526563 S    
O4    Cu1   1.973298 S    
C8    H2    1.108508 S    
C1    C13   1.440152 S    
C8    C11   1.552436 S    
