data_mof_unit_37911.cif
_audit_creation_date              2012-12-10T18:49:22-0500
_audit_creation_method            fapswitch 2.2
_symmetry_space_group_name_H-M    P1
_symmetry_Int_Tables_number       1
_space_group_crystal_system       triclinic
_cell_length_a                    9.962738
_cell_length_b                    10.670311
_cell_length_c                    13.584996
_cell_angle_alpha                 92.002266
_cell_angle_beta                  82.049504
_cell_angle_gamma                 89.561045
_cell_volume                      1429.29147954

loop_
_atom_site_label
_atom_site_type_symbol
_atom_type_description
_atom_site_fract_x
_atom_site_fract_y
_atom_site_fract_z
_atom_type_partial_charge
C1    C     C_R   0.500237 0.739325 0.497745 0.872682
C2    C     C_R   0.499843 0.260642 0.501759 0.870699
C3    C     C_R   0.499601 0.128052 0.502989 -0.066356
C4    C     C_R   0.500417 0.871898 0.495773 -0.066031
C5    C     C_R   0.474710 0.500613 0.685747 0.901918
C6    C     C_R   0.525220 0.500120 0.314275 0.896163
C7    C     C_R   0.943233 0.427289 0.431390 0.097993
C8    C     C_R   0.057226 0.571064 0.570924 0.078149
C9    C     C_R   0.086555 0.426714 0.433040 0.017391
C10   C     C_R   0.913121 0.574863 0.566503 0.034106
C11   C     C_1   0.545140 0.501958 0.209968 -0.173213
C12   C     C_1   0.454415 0.502434 0.790169 -0.172549
C13   C     C_2   0.558564 0.504632 0.017713 -0.152723
C14   C     C_2   0.440734 0.505538 0.982610 -0.154071
C15   C     C_1   0.442793 0.504085 0.878437 0.006556
C16   C     C_1   0.556533 0.503420 0.121798 0.010502
C17   C     C_R   0.604628 0.934703 0.437398 0.006981
C18   C     C_R   0.395273 0.065167 0.561171 0.005130
C19   C     C_R   0.603467 0.063629 0.441789 -0.238419
C20   C     C_R   0.396100 0.936375 0.556306 -0.240545
H1    H     H_    0.344331 0.506165 0.031214 0.158708
H2    H     H_    0.654981 0.503567 0.969113 0.158725
H3    H     H_    0.681690 0.113990 0.396021 0.143030
H4    H     H_    0.317188 0.886095 0.601234 0.147811
N1    N     N_R   0.142790 0.500030 0.500020 -0.130018
N2    N     N_R   0.857210 0.499970 0.499980 -0.127416
O1    O     O_R   0.385380 0.683250 0.500010 -0.640891
O2    O     O_R   0.614620 0.316750 0.499990 -0.642618
O3    O     O_R   0.614710 0.683220 0.500000 -0.602932
O4    O     O_R   0.385290 0.316780 0.500000 -0.602592
O5    O     O_R   0.368830 0.499990 0.640350 -0.639723
O6    O     O_R   0.631170 0.500010 0.359650 -0.626306
O7    O     O_R   0.598160 0.499960 0.640350 -0.600035
O8    O     O_R   0.401840 0.500040 0.359650 -0.601166
Zn1   Zn    Zn3+2 0.346870 0.500020 0.500000 0.946741
Zn2   Zn    Zn3+2 0.653130 0.499980 0.500000 0.951374
C21   C     C_3   0.889100 0.348086 0.351090 -0.393686
C22   C     C_3   0.917314 0.408248 0.249233 -0.345228
C23   C     C_3   0.866479 0.325748 0.168417 -0.859255
H5    H     H_    0.922740 0.234862 0.159558 0.264914
H6    H     H_    0.756582 0.307487 0.187719 0.261526
H7    H     H_    0.882772 0.373704 0.096574 0.252201
H8    H     H_    0.866435 0.501601 0.252540 0.251949
H9    H     H_    0.027623 0.422632 0.228080 0.217454
H10   H     H_    0.935277 0.252538 0.347015 0.177160
H11   H     H_    0.780563 0.332634 0.368374 0.258663
C24   C     C_3   0.119281 0.627636 0.659235 -0.380974
C25   C     C_3   0.043672 0.728648 0.729685 -0.439722
C26   C     C_3   0.133395 0.780265 0.803964 -0.851531
H12   H     H_    0.166183 0.703573 0.848891 0.264426
H13   H     H_    0.224400 0.825713 0.764833 0.254795
H14   H     H_    0.075451 0.851262 0.854958 0.262737
H15   H     H_    0.012888 0.807850 0.686356 0.245969
H16   H     H_    0.954337 0.687026 0.774293 0.243581
H17   H     H_    0.139966 0.548403 0.705992 0.228437
H18   H     H_    0.214859 0.671264 0.629797 0.263481
C27   C     C_1   0.174287 0.342741 0.367022 0.241451
N3    N     N_1   0.243717 0.274873 0.313969 -0.213791
C28   C     C_1   0.822058 0.660103 0.627902 0.243984
N4    N     N_1   0.748175 0.728935 0.676622 -0.222458
C29   C     C_1   0.710106 0.869819 0.370297 0.177239
N5    N     N_1   0.794432 0.817830 0.316667 -0.207913
C30   C     C_1   0.289798 0.129701 0.628532 0.178975
N6    N     N_1   0.205446 0.181316 0.682391 -0.201439

loop_
_geom_bond_atom_site_label_1
_geom_bond_atom_site_label_2
_ccdc_geom_bond_type
C19   H3    S    
C26   H12   S    
C3    C19   A    
C21   C22   S    
C11   C16   T    
C18   C20   A    
C24   C25   S    
C12   C15   T    
C2    O4    A    
C26   H14   S    
O1    Zn1   S    
C1    C4    S    
C1    O3    A    
C10   C28   S    
C7    C21   S    
C8    C24   S    
C9    N1    A    
C28   N4    T    
C23   H6    S    
C13   C14   D    
C25   H16   S    
C8    N1    A    
O3    Zn2   S    
C10   N2    A    
C27   N3    T    
C22   C23   S    
C7    N2    A    
O4    Zn1   S    
N1    Zn1   S    
C4    C17   A    
O6    Zn2   S    
C14   H1    S    
C8    C10   A    
C25   C26   S    
C17   C19   A    
C13   H2    S    
C2    C3    S    
C23   H7    S    
C9    C27   S    
C6    C11   S    
C25   H15   S    
C3    C18   A    
O5    Zn1   S    
C18   C30   S    
C5    O5    A    
C6    O8    A    
C29   N5    T    
C22   H9    S    
C21   H10   S    
C30   N6    T    
C4    C20   A    
C7    C9    A    
C22   H8    S    
O7    Zn2   S    
O2    Zn2   S    
C5    C12   S    
C24   H17   S    
O8    Zn1   S    
C13   C16   S    
N2    Zn2   S    
C23   H5    S    
C1    O1    A    
C14   C15   S    
C6    O6    A    
C2    O2    A    
C17   C29   S    
C21   H11   S    
C20   H4    S    
C24   H18   S    
C26   H13   S    
C5    O7    A    
