data_mof_unit_24340.cif
_audit_creation_date              2012-12-10T17:46:33-0500
_audit_creation_method            fapswitch 2.2
_symmetry_space_group_name_H-M    P1
_symmetry_Int_Tables_number       1
_space_group_crystal_system       triclinic
_cell_length_a                    20.685098
_cell_length_b                    21.731906
_cell_length_c                    14.860628
_cell_angle_alpha                 90.020518
_cell_angle_beta                  128.288604
_cell_angle_gamma                 89.946327
_cell_volume                      5243.32138838

loop_
_atom_site_label
_atom_site_type_symbol
_atom_type_description
_atom_site_fract_x
_atom_site_fract_y
_atom_site_fract_z
_atom_type_partial_charge
C1    C     C_R   0.602125 0.913087 0.630449 0.828752
C2    C     C_R   0.397182 0.086247 0.368755 0.851767
C3    C     C_R   0.397973 0.913046 0.369623 0.828769
C4    C     C_R   0.602796 0.086183 0.631325 0.852288
C5    C     C_R   0.102053 0.413033 0.630379 0.826588
C6    C     C_R   0.897105 0.586185 0.368649 0.846536
C7    C     C_R   0.897400 0.413619 0.368754 0.843245
C8    C     C_R   0.102847 0.586191 0.631329 0.850868
C9    C     C_R   0.372321 0.691679 0.033935 0.476460
C10   C     C_R   0.630397 0.309754 0.962737 0.476477
C11   C     C_R   0.627909 0.690942 0.964809 0.476937
C12   C     C_R   0.367491 0.310730 0.037274 0.471201
C13   C     C_R   0.870763 0.190656 0.036238 0.477207
C14   C     C_R   0.132741 0.810617 0.963105 0.472804
C15   C     C_R   0.127942 0.192136 0.966529 0.476912
C16   C     C_R   0.867128 0.811329 0.038066 0.473225
C17   C     C_R   0.321584 0.984793 0.667102 -0.146060
C18   C     C_R   0.678536 0.985471 0.332882 -0.145607
C19   C     C_R   0.821415 0.486553 0.667285 -0.146686
C20   C     C_R   0.178429 0.484337 0.332975 -0.145914
C21   C     C_R   0.350627 0.990996 0.604194 0.480960
C22   C     C_R   0.649470 0.991404 0.395807 0.479988
C23   C     C_R   0.850430 0.492262 0.604296 0.503038
C24   C     C_R   0.149364 0.490760 0.395838 0.480811
C25   C     C_R   0.487963 0.004665 0.775523 0.509386
C26   C     C_R   0.511948 0.004463 0.224445 0.510154
C27   C     C_R   0.988189 0.504074 0.775594 0.506435
C28   C     C_R   0.012096 0.504752 0.224489 0.510314
C29   C     C_R   0.461761 0.994121 0.845000 -0.122316
C30   C     C_R   0.538225 0.994153 0.154975 -0.122227
C31   C     C_R   0.961898 0.494064 0.845121 -0.122375
C32   C     C_R   0.038316 0.493993 0.155064 -0.121986
C33   C     C_R   0.376488 0.986016 0.787183 -0.014387
C34   C     C_R   0.623584 0.986484 0.212804 -0.014498
C35   C     C_R   0.876472 0.486993 0.787335 -0.014591
C36   C     C_R   0.123558 0.485587 0.212899 -0.014336
C37   C     C_R   0.516170 0.990363 0.968786 0.115797
C38   C     C_R   0.483840 0.990239 0.031200 0.115811
C39   C     C_R   0.016272 0.489956 0.968888 0.116746
C40   C     C_R   0.983933 0.490313 0.031297 0.116041
C41   C     C_R   0.399253 0.979390 0.968358 -0.212722
C42   C     C_R   0.600861 0.979895 0.031666 -0.212822
C43   C     C_R   0.899215 0.480166 0.968425 -0.213388
C44   C     C_R   0.100811 0.478764 0.031738 -0.212881
C45   C     C_R   0.347125 0.977392 0.849933 -0.146317
C46   C     C_R   0.653020 0.978076 0.150088 -0.146467
C47   C     C_R   0.847021 0.478665 0.850024 -0.145086
C48   C     C_R   0.152912 0.476701 0.150170 -0.146731
C49   C     C_R   0.667346 0.130874 0.713554 -0.155013
C50   C     C_R   0.335536 0.866238 0.289547 -0.243470
C51   C     C_R   0.332524 0.131138 0.287034 -0.155365
C52   C     C_R   0.664789 0.866392 0.710713 -0.243068
C53   C     C_R   0.167603 0.630898 0.713299 -0.154613
C54   C     C_R   0.833452 0.368492 0.286338 -0.158827
C55   C     C_R   0.832207 0.630829 0.286529 -0.152047
C56   C     C_R   0.164579 0.366229 0.710543 -0.241635
C57   C     C_R   0.814888 0.149437 0.846533 0.352377
C58   C     C_R   0.188088 0.846584 0.155526 0.446032
C59   C     C_R   0.185076 0.150740 0.156546 0.351719
C60   C     C_R   0.812393 0.847440 0.845972 0.446148
C61   C     C_R   0.315103 0.650091 0.843987 0.351087
C62   C     C_R   0.686092 0.348841 0.153745 0.345039
C63   C     C_R   0.684552 0.649337 0.154530 0.350181
C64   C     C_R   0.312085 0.346749 0.844836 0.444703
C65   C     C_R   0.744946 0.128532 0.738577 0.256510
C66   C     C_R   0.257623 0.865535 0.264825 0.246265
C67   C     C_R   0.255422 0.129341 0.263690 0.257611
C68   C     C_R   0.743003 0.866222 0.736362 0.245541
C69   C     C_R   0.244730 0.628901 0.736729 0.257406
C70   C     C_R   0.756122 0.369178 0.262257 0.256921
C71   C     C_R   0.754813 0.628389 0.262188 0.254387
C72   C     C_R   0.242523 0.365553 0.735392 0.245888
C73   C     C_R   0.655416 0.170017 0.778334 -0.137038
C74   C     C_R   0.347708 0.829727 0.222057 -0.107682
C75   C     C_R   0.343847 0.170394 0.221809 -0.137493
C76   C     C_R   0.652459 0.829590 0.777666 -0.107521
C77   C     C_R   0.156368 0.670113 0.778727 -0.138008
C78   C     C_R   0.845319 0.330723 0.219845 -0.140004
C79   C     C_R   0.843593 0.670287 0.221608 -0.137560
C80   C     C_R   0.152477 0.329788 0.778118 -0.110200
C81   C     C_R   0.724024 0.200622 0.876742 -0.082702
C82   C     C_R   0.279320 0.800019 0.122090 -0.084078
C83   C     C_R   0.275001 0.201554 0.124511 -0.083993
C84   C     C_R   0.720890 0.800119 0.878083 -0.083887
C85   C     C_R   0.225241 0.701201 0.875997 -0.083976
C86   C     C_R   0.776975 0.299865 0.121756 -0.082721
C87   C     C_R   0.774657 0.701110 0.123803 -0.084189
C88   C     C_R   0.220929 0.300140 0.878217 -0.084063
C89   C     C_R   0.804207 0.181479 0.919274 0.003025
C90   C     C_R   0.199168 0.818413 0.080346 -0.030027
C91   C     C_R   0.195029 0.182761 0.083140 0.003364
C92   C     C_R   0.801030 0.818968 0.920612 -0.030143
C93   C     C_R   0.305196 0.682255 0.917366 0.003599
C94   C     C_R   0.696799 0.318252 0.079910 0.004653
C95   C     C_R   0.694708 0.681719 0.081628 0.003957
C96   C     C_R   0.301053 0.318543 0.920007 -0.029192
C97   C     C_R   0.716461 0.244383 0.941555 0.056614
C98   C     C_R   0.286928 0.757265 0.056088 0.060191
C99   C     C_R   0.281993 0.245427 0.059376 0.058856
C100  C     C_R   0.713251 0.757158 0.943738 0.060215
C101  C     C_R   0.218270 0.745179 0.941068 0.057688
C102  C     C_R   0.784730 0.256506 0.056703 0.059725
C103  C     C_R   0.781653 0.745263 0.059044 0.057549
C104  C     C_R   0.213362 0.257461 0.944291 0.059574
C105  C     C_R   0.359763 0.723963 0.103289 -0.318891
C106  C     C_R   0.643754 0.278055 0.893655 -0.318901
C107  C     C_R   0.640676 0.723478 0.895947 -0.318680
C108  C     C_R   0.354590 0.279087 0.106846 -0.313320
C109  C     C_R   0.857602 0.223088 0.104834 -0.316051
C110  C     C_R   0.145653 0.778911 0.893557 -0.311914
C111  C     C_R   0.140568 0.224205 0.897119 -0.319587
C112  C     C_R   0.854009 0.779359 0.107122 -0.312090
Cu1   Cu    Cu3+1 0.526640 0.000000 0.436960 1.029945
Cu2   Cu    Cu3+1 0.473360 0.000000 0.563040 1.030445
Cu3   Cu    Cu3+1 0.026640 0.500000 0.436960 1.026708
Cu4   Cu    Cu3+1 0.973360 0.500000 0.563040 1.043462
H1    H     H_    0.372119 0.967957 0.008990 0.192856
H2    H     H_    0.628102 0.968633 0.991090 0.192939
H3    H     H_    0.871945 0.468990 0.008969 0.192637
H4    H     H_    0.127917 0.467131 0.991123 0.192549
H5    H     H_    0.407650 0.722029 0.194886 0.151046
H6    H     H_    0.596483 0.280339 0.801912 0.156008
H7    H     H_    0.593173 0.721433 0.804263 0.151175
H8    H     H_    0.402220 0.281094 0.198550 0.153680
H9    H     H_    0.905185 0.221539 0.196592 0.151980
H10   H     H_    0.098002 0.780895 0.801850 0.155014
H11   H     H_    0.092754 0.222170 0.805513 0.151702
H12   H     H_    0.901281 0.781460 0.198908 0.154898
H13   H     H_    0.282696 0.968454 0.807779 0.152170
H14   H     H_    0.717539 0.969449 0.192268 0.152217
H15   H     H_    0.782451 0.470375 0.807833 0.152664
H16   H     H_    0.217311 0.467511 0.192348 0.151783
N1    N     N_R   0.433280 0.000000 0.657760 -0.242935
N2    N     N_R   0.566720 0.000000 0.342240 -0.243165
N3    N     N_R   0.933280 0.500000 0.657760 -0.245429
N4    N     N_R   0.066720 0.500000 0.342240 -0.242423
O1    O     O_R   0.600040 0.935040 0.546740 -0.597944
O2    O     O_R   0.399960 0.064960 0.453260 -0.565801
O3    O     O_R   0.399960 0.935040 0.453260 -0.596539
O4    O     O_R   0.600040 0.064960 0.546740 -0.566387
O5    O     O_R   0.100040 0.435040 0.546740 -0.597430
O6    O     O_R   0.899960 0.564960 0.453260 -0.570025
O7    O     O_R   0.899960 0.435040 0.453260 -0.550175
O8    O     O_R   0.100040 0.564960 0.546740 -0.565839
O9    O     O_R   0.555010 0.935070 0.653220 -0.545878
O10   O     O_R   0.444990 0.064930 0.346780 -0.535387
O11   O     O_R   0.444990 0.935070 0.346780 -0.545567
O12   O     O_R   0.555010 0.064930 0.653220 -0.535378
O13   O     O_R   0.055010 0.435070 0.653220 -0.545691
O14   O     O_R   0.944990 0.564930 0.346780 -0.535901
O15   O     O_R   0.944990 0.435070 0.346780 -0.563084
O16   O     O_R   0.055010 0.564930 0.653220 -0.537729
O17   O     O_3   0.447827 0.664818 0.081238 -0.618781
H17   H     H_    0.488072 0.677053 0.162860 0.328733
O18   O     O_3   0.554885 0.336732 0.914953 -0.625093
H18   H     H_    0.515246 0.325272 0.832832 0.330435
O19   O     O_3   0.552586 0.663657 0.916840 -0.619012
H19   H     H_    0.512545 0.675797 0.835116 0.328937
O20   O     O_3   0.442702 0.337932 0.084260 -0.624662
H20   H     H_    0.482503 0.327017 0.166646 0.329314
O21   O     O_3   0.946338 0.163627 0.084485 -0.618802
H21   H     H_    0.986123 0.175667 0.166282 0.328624
O22   O     O_3   0.057533 0.837919 0.916107 -0.626378
H22   H     H_    0.017765 0.827040 0.833714 0.330637
O23   O     O_3   0.052430 0.165398 0.919257 -0.618201
H23   H     H_    0.012210 0.177588 0.837588 0.329369
O24   O     O_3   0.942155 0.839038 0.085715 -0.626522
H24   H     H_    0.981705 0.828232 0.168183 0.330583
C113  C     C_1   0.427733 0.830194 0.246966 0.306289
N5    N     N_1   0.491429 0.830874 0.266814 -0.282398
C114  C     C_1   0.574780 0.171870 0.751428 0.303535
N6    N     N_1   0.510531 0.173060 0.729851 -0.266321
C115  C     C_1   0.572071 0.829550 0.751656 0.305163
N7    N     N_1   0.508078 0.829835 0.730912 -0.282198
C116  C     C_1   0.423905 0.171910 0.246965 0.303472
N8    N     N_1   0.487697 0.172858 0.267128 -0.268508
C117  C     C_1   0.924971 0.330820 0.243606 0.304628
N9    N     N_1   0.988351 0.331195 0.262497 -0.278959
C118  C     C_1   0.076400 0.671656 0.753854 0.303227
N10   N     N_1   0.012685 0.672625 0.733930 -0.267018
C119  C     C_1   0.072430 0.330283 0.753150 0.308677
N11   N     N_1   0.008721 0.330986 0.733264 -0.266945
C120  C     C_1   0.923932 0.672331 0.247672 0.303958
N12   N     N_1   0.987951 0.673695 0.268565 -0.265293
O25   O     O_3   0.246865 0.886453 0.342169 -0.689528
H25   H     H_    0.294004 0.871102 0.418792 0.362160
O26   O     O_3   0.751891 0.101868 0.660636 -0.705259
H26   H     H_    0.799188 0.120722 0.669619 0.342646
O27   O     O_3   0.754147 0.887574 0.659668 -0.690576
H27   H     H_    0.707464 0.872120 0.582872 0.362064
O28   O     O_3   0.249272 0.102836 0.342466 -0.706381
H28   H     H_    0.202603 0.122080 0.334729 0.341906
O29   O     O_3   0.749521 0.393448 0.341945 -0.676747
H29   H     H_    0.702524 0.373578 0.332420 0.344354
O30   O     O_3   0.250878 0.602394 0.657921 -0.706764
H30   H     H_    0.297671 0.621468 0.665865 0.341852
O31   O     O_3   0.253275 0.386345 0.658007 -0.689840
H31   H     H_    0.206152 0.370998 0.581413 0.362167
O32   O     O_3   0.748362 0.601673 0.340522 -0.707828
H32   H     H_    0.701123 0.620445 0.331895 0.341845
O33   O     O_3   0.393528 0.638422 0.879699 -0.613033
H33   H     H_    0.392965 0.599674 0.844092 0.353890
O34   O     O_3   0.607333 0.359564 0.117527 -0.613263
H34   H     H_    0.607510 0.397290 0.155106 0.351922
O35   O     O_3   0.606029 0.637199 0.117961 -0.613043
H35   H     H_    0.606778 0.598390 0.153541 0.351017
O36   O     O_3   0.390978 0.353610 0.879023 -0.603052
H36   H     H_    0.389760 0.377908 0.821680 0.383973
O37   O     O_3   0.893619 0.137583 0.883561 -0.611661
H37   H     H_    0.893280 0.098867 0.848071 0.354567
O38   O     O_3   0.109187 0.853231 0.121492 -0.602815
H38   H     H_    0.110343 0.877236 0.179073 0.384655
O39   O     O_3   0.106632 0.139403 0.120937 -0.612405
H39   H     H_    0.107062 0.100692 0.156479 0.355025
O40   O     O_3   0.891455 0.854584 0.880874 -0.602549
H40   H     H_    0.890434 0.878732 0.823560 0.384565
O41   O     O_3   0.433083 0.022533 0.176565 -0.703612
H41   H     H_    0.417444 0.054454 0.118544 0.308741
O42   O     O_3   0.566630 0.023149 0.823354 -0.703856
H42   H     H_    0.581884 0.055095 0.881166 0.308657
O43   O     O_3   0.933482 0.523519 0.176615 -0.705025
H43   H     H_    0.918380 0.555477 0.118894 0.308695
O44   O     O_3   0.067210 0.521552 0.823447 -0.703959
H44   H     H_    0.083151 0.553518 0.881530 0.308589
O45   O     O_3   0.708211 0.987678 0.512961 -0.673114
H45   H     H_    0.685268 0.002223 0.549621 0.413670
O46   O     O_3   0.292012 0.987043 0.487058 -0.672709
H46   H     H_    0.314591 0.002493 0.450437 0.413113
O47   O     O_3   0.207952 0.486751 0.512972 -0.673041
H47   H     H_    0.185405 0.502372 0.549567 0.413227
O48   O     O_3   0.791438 0.489460 0.487152 -0.664307
H48   H     H_    0.815087 0.502227 0.450606 0.415682
C121  C     C_1   0.233686 0.976402 0.604881 0.358377
N13   N     N_1   0.163652 0.969716 0.555172 -0.251442
C122  C     C_1   0.766526 0.977560 0.395097 0.358540
N14   N     N_1   0.836632 0.971256 0.444798 -0.251415
C123  C     C_1   0.733321 0.479515 0.605125 0.350690
N15   N     N_1   0.663138 0.473907 0.555467 -0.259187
C124  C     C_1   0.266308 0.475678 0.395235 0.357968
N16   N     N_1   0.336329 0.468778 0.444975 -0.252804

loop_
_geom_bond_atom_site_label_1
_geom_bond_atom_site_label_2
_ccdc_geom_bond_type
O34   H34   S    
C65   O26   S    
C3    O11   A    
O23   H23   S    
C29   C33   A    
C78   C117  S    
C33   C45   A    
O33   H33   S    
C5    C56   S    
C1    O9    A    
O22   H22   S    
C107  H7    S    
C6    C55   S    
C120  N12   T    
C64   C72   A    
C53   C69   A    
C76   C84   A    
C79   C87   A    
O21   H21   S    
C8    C53   S    
C1    O1    A    
Cu4   N3    S    
C119  N11   T    
C45   H13   S    
C99   C108  A    
C30   C38   A    
C77   C118  S    
C98   C105  A    
C57   C89   A    
C22   N2    A    
C32   C36   A    
C76   C115  S    
C8    O16   A    
C60   O40   S    
C51   C75   A    
C19   C123  S    
O20   H20   S    
C42   C46   A    
C67   O28   S    
Cu3   N4    S    
C10   C94   A    
C16   O24   S    
C9    C105  A    
Cu3   Cu4   S    
C4    O12   A    
C63   C95   A    
C37   C42   A    
C5    O13   A    
C62   C70   A    
C14   C110  A    
C113  N5    T    
C21   N1    A    
C14   O22   S    
C44   H4    S    
O43   H43   S    
C14   C90   A    
C74   C113  S    
C13   C109  A    
C86   C94   A    
C61   O33   S    
C72   O31   S    
C85   C93   A    
C58   C66   A    
C40   C43   A    
C124  N16   T    
C79   C120  S    
C28   O43   S    
C56   C72   A    
C87   C95   A    
C122  N14   T    
C34   C46   A    
C6    O6    A    
C25   N1    A    
C121  N13   T    
C97   C102  A    
C52   C68   A    
C59   C67   A    
C78   C86   A    
Cu2   O2    S    
C99   C104  A    
C9    O17   S    
O32   H32   S    
C12   O20   S    
C83   C99   A    
C123  N15   T    
C26   O41   S    
O19   H19   S    
C82   C98   A    
Cu2   O3    S    
O31   H31   S    
C17   C33   A    
C108  H8    S    
C73   C81   A    
Cu4   O13   S    
C88   C104  A    
C3    C50   S    
O37   H37   S    
C48   H16   S    
C60   C92   A    
C25   C29   A    
C21   O46   S    
C64   O36   S    
C57   O37   S    
O18   H18   S    
C30   C34   A    
C27   C31   A    
O36   H36   S    
C84   C100  A    
C75   C83   A    
C20   C24   A    
C28   C32   A    
Cu3   O5    S    
C64   C96   A    
C38   C41   A    
C24   O47   S    
C39   C40   A    
C22   O45   S    
C18   C122  S    
C42   H2    S    
C20   C36   A    
C51   C67   A    
Cu4   O16   S    
C28   N4    A    
O41   H41   S    
O39   H39   S    
C75   C116  S    
C100  C103  A    
C17   C21   A    
O44   H44   S    
O28   H28   S    
C47   H15   S    
C103  C112  A    
C2    O2    A    
Cu1   O10   S    
C37   C38   A    
O29   H29   S    
C53   C77   A    
O40   H40   S    
O38   H38   S    
C46   H14   S    
O47   H47   S    
C26   N2    A    
C15   C111  A    
C4    O4    A    
Cu4   O7    S    
C55   C79   A    
C15   C91   A    
C5    O5    A    
O46   H46   S    
C54   C70   A    
C16   C112  A    
C106  H6    S    
C50   C66   A    
O45   H45   S    
C7    O15   A    
Cu1   O4    S    
C105  H5    S    
C8    O8    A    
C59   C91   A    
C80   C119  S    
C13   O21   S    
C18   C34   A    
C114  N6    T    
C49   C65   A    
C110  H10   S    
C87   C103  A    
C97   C106  A    
C11   C95   A    
C109  H9    S    
C63   C71   A    
C26   C30   A    
Cu1   N2    S    
C62   C94   A    
C11   C107  A    
C31   C35   A    
C10   C106  A    
C16   C92   A    
C73   C114  S    
C29   C37   A    
C86   C102  A    
C9    C93   A    
O24   H24   S    
C85   C101  A    
C11   O19   S    
C12   C108  A    
Cu1   Cu2   S    
C74   C82   A    
C61   C69   A    
O42   H42   S    
O35   H35   S    
Cu3   O8    S    
C100  C107  A    
C13   C89   A    
C18   C22   A    
C35   C47   A    
C15   O23   S    
C7    O7    A    
Cu2   O9    S    
C57   C65   A    
C52   C76   A    
C82   C90   A    
C10   O18   S    
Cu4   O6    S    
C104  C111  A    
C59   O39   S    
C69   O30   S    
C71   O32   S    
C39   C44   A    
C17   C121  S    
C118  N10   T    
C2    O10   A    
C20   C124  S    
C83   C91   A    
C27   O44   S    
C56   C80   A    
C98   C101  A    
C23   N3    A    
C4    C49   S    
C58   C90   A    
Cu1   O1    S    
C27   N3    A    
Cu1   O11   S    
C50   C74   A    
C101  C110  A    
Cu2   O12   S    
O26   H26   S    
C80   C88   A    
C116  N8    T    
C19   C35   A    
C111  H11   S    
C24   N4    A    
O25   H25   S    
C81   C97   A    
C68   O27   S    
C77   C85   A    
C70   O29   S    
Cu3   O14   S    
Cu2   N1    S    
C31   C39   A    
C88   C96   A    
C36   C48   A    
C49   C73   A    
C32   C40   A    
C81   C89   A    
C58   O38   S    
O27   H27   S    
C1    C52   S    
C23   O48   S    
C62   O34   S    
C112  H12   S    
C25   O42   S    
C2    C51   S    
C115  N7    T    
O30   H30   S    
C6    O14   A    
C19   C23   A    
C3    O3    A    
C60   C68   A    
C117  N9    T    
C63   O35   S    
C66   O25   S    
Cu3   O15   S    
O48   H48   S    
C41   C45   A    
C12   C96   A    
C102  C109  A    
C84   C92   A    
C7    C54   S    
C41   H1    S    
O17   H17   S    
C61   C93   A    
C43   C47   A    
C55   C71   A    
C44   C48   A    
C43   H3    S    
C54   C78   A    
