data_mof_unit_55384.cif
_audit_creation_date              2012-12-10T17:02:30-0500
_audit_creation_method            fapswitch 2.2
_symmetry_space_group_name_H-M    P1
_symmetry_Int_Tables_number       1
_space_group_crystal_system       triclinic
_cell_length_a                    10.770239
_cell_length_b                    11.024171
_cell_length_c                    9.832632
_cell_angle_alpha                 109.874243
_cell_angle_beta                  100.462261
_cell_angle_gamma                 91.004668
_cell_volume                      1075.69849038

loop_
_atom_site_label
_atom_site_type_symbol
_atom_type_description
_atom_site_fract_x
_atom_site_fract_y
_atom_site_fract_z
_atom_type_partial_charge
C1    C     C_R   0.497207 0.254838 0.443130 0.839864
C2    C     C_R   0.514624 0.745545 0.557479 0.838385
C3    C     C_2   0.506766 0.117636 0.417020 -0.247275
C4    C     C_2   0.529895 0.883935 0.585830 -0.261097
C5    C     C_2   0.564729 0.072438 0.521897 0.164158
C6    C     C_2   0.561150 0.933342 0.487150 0.142155
C7    C     C_2   0.515944 0.503587 0.079498 0.685467
C8    C     C_2   0.490569 0.487682 0.917617 0.692112
C9    C     C_R   0.262353 0.514145 0.500228 0.856260
C10   C     C_R   0.737646 0.485913 0.499833 0.820864
C11   C     C_R   0.158882 0.670445 0.758732 0.462814
C12   C     C_R   0.841195 0.329242 0.241708 0.472743
C13   C     C_R   0.124262 0.699048 0.895389 0.454541
C14   C     C_R   0.875801 0.300658 0.105054 0.453126
C15   C     C_R   0.017761 0.633292 0.907142 0.528510
C16   C     C_R   0.982040 0.366762 0.093212 0.520432
C17   C     C_R   0.939826 0.546678 0.780798 0.538634
C18   C     C_R   0.059902 0.453500 0.219566 0.549096
C19   C     C_R   0.963908 0.530465 0.638468 -0.246057
C20   C     C_R   0.035987 0.469483 0.361865 -0.253755
C21   C     C_R   0.083885 0.577544 0.630608 -0.204380
C22   C     C_R   0.916104 0.422283 0.369750 -0.201309
C23   C     C_R   0.874301 0.468769 0.504643 0.081220
C24   C     C_R   0.125648 0.531165 0.495623 0.083135
Cu1   Cu    Cu3+1 0.521920 0.521810 0.644910 1.187730
Cu2   Cu    Cu3+1 0.478080 0.478190 0.355090 1.190011
H1    H     H_    0.514450 0.948515 0.691781 0.205844
H2    H     H_    0.464363 0.050333 0.307660 0.198730
N1    N     N_2   0.445130 0.445420 0.137360 0.075895
N2    N     N_2   0.554870 0.554580 0.862640 0.073052
O1    O     O_R   0.511700 0.332340 0.577400 -0.589574
O2    O     O_R   0.488300 0.667660 0.422600 -0.589697
O3    O     O_R   0.474680 0.295500 0.332650 -0.510523
O4    O     O_R   0.525320 0.704500 0.667350 -0.503169
O5    O     O_R   0.338170 0.518410 0.622370 -0.526224
O6    O     O_R   0.661830 0.481590 0.377630 -0.527837
O7    O     O_R   0.301150 0.481570 0.377630 -0.524668
O8    O     O_R   0.698850 0.518430 0.622370 -0.539363
F1    F     F_    0.010671 0.346088 0.958836 -0.510361
F2    F     F_    0.988940 0.654159 0.041466 -0.508008
F3    F     F_    0.260983 0.739780 0.750454 -0.594677
F4    F     F_    0.739207 0.259817 0.250092 -0.598257
F5    F     F_    0.196995 0.787282 0.017601 -0.546577
F6    F     F_    0.803349 0.212055 0.982981 -0.549908
F7    F     F_    0.851353 0.468402 0.800551 -0.550366
F8    F     F_    0.148065 0.532205 0.200001 -0.523995
N3    N     N_3   0.592060 0.856122 0.349099 -0.478688
H3    H     H_    0.511009 0.800212 0.278890 0.286483
H4    H     H_    0.663323 0.797630 0.369113 0.293204
N4    N     N_3   0.629903 0.153949 0.666773 -0.467058
H5    H     H_    0.696417 0.219479 0.657514 0.293282
H6    H     H_    0.564474 0.202795 0.727583 0.281914
F9    F     F_    0.397804 0.397486 0.823751 -0.629123
F10   F     F_    0.619776 0.579961 0.168653 -0.655301
F11   F     F_    0.646716 0.643332 0.954099 -0.468645
F12   F     F_    0.340153 0.373989 0.050443 -0.463768

loop_
_geom_bond_atom_site_label_1
_geom_bond_atom_site_label_2
_ccdc_geom_bond_type
C8    F9    S    
Cu1   O1    S    
C19   C23   A    
C10   O6    A    
Cu2   O7    S    
Cu2   O2    S    
C7    N1    D    
N1    F12   S    
C10   C23   S    
N2    F11   S    
Cu2   O3    S    
C2    C4    S    
N3    H3    S    
C13   F5    S    
Cu1   O4    S    
C10   O8    A    
C8    N2    D    
C2    O4    A    
C9    O7    A    
N4    H5    S    
C3    C5    D    
C1    O3    A    
C7    C8    S    
N3    H4    S    
C11   C13   A    
Cu1   O8    S    
Cu1   O5    S    
C18   F8    S    
C2    O2    A    
C3    H2    S    
C17   C19   A    
C12   C14   A    
C11   F3    S    
C14   F6    S    
C18   C20   A    
C13   C15   A    
C5    C6    S    
C5    N4    S    
C14   C16   A    
C15   F2    S    
C4    C6    D    
C6    N3    S    
C20   C22   A    
C16   F1    S    
C9    O5    A    
C12   C22   A    
C1    O1    A    
C4    H1    S    
Cu2   N1    S    
C16   C18   A    
C21   C24   A    
Cu2   O6    S    
N4    H6    S    
C15   C17   A    
C22   C23   A    
Cu1   N2    S    
C12   F4    S    
C7    F10   S    
C19   C21   A    
Cu1   Cu2   S    
C11   C21   A    
C9    C24   S    
C20   C24   A    
C17   F7    S    
C1    C3    S    
