data_mof_unit_35300.cif
_audit_creation_date              2012-12-10T20:53:02-0500
_audit_creation_method            fapswitch 2.2
_symmetry_space_group_name_H-M    P1
_symmetry_Int_Tables_number       1
_space_group_crystal_system       triclinic
_cell_length_a                    18.336249
_cell_length_b                    18.343341
_cell_length_c                    18.331437
_cell_angle_alpha                 59.920245
_cell_angle_beta                  59.968423
_cell_angle_gamma                 59.946354
_cell_volume                      4354.39962062

loop_
_atom_site_label
_atom_site_type_symbol
_atom_type_description
_atom_site_fract_x
_atom_site_fract_y
_atom_site_fract_z
_atom_type_partial_charge
C1    C     C_R   0.389872 0.110217 0.110064 0.478462
C2    C     C_R   0.369346 0.813151 0.797607 -0.127142
C3    C     C_R   0.035155 0.552199 0.910283 -0.005234
C4    C     C_R   0.442919 0.087617 0.966793 0.002449
C5    C     C_R   0.556265 0.912152 0.033440 0.003849
C6    C     C_R   0.945936 0.946011 0.553725 0.015816
C7    C     C_R   0.054069 0.053932 0.445902 0.017923
C8    C     C_R   0.946137 0.553563 0.945780 0.022432
C9    C     C_R   0.054086 0.445786 0.053935 0.014702
C10   C     C_R   0.553732 0.945941 0.946034 0.022025
C11   C     C_R   0.445942 0.054047 0.053975 0.018845
C12   C     C_3   0.028641 0.821106 0.054477 -0.316191
C13   C     C_R   0.213267 0.247531 0.598409 -0.137311
C14   C     C_3   0.054021 0.347973 0.875979 -0.303152
C15   C     C_3   0.843790 0.061136 0.055741 -0.309980
C16   C     C_3   0.219554 0.878742 0.065436 -0.315680
C17   C     C_3   0.084066 0.079296 0.855331 -0.314132
C18   C     C_3   0.978512 0.902783 0.315916 -0.289299
C19   C     C_R   0.797893 0.780184 0.370368 -0.134498
C20   C     C_R   0.176488 0.581152 0.285012 -0.077553
C21   C     C_R   0.871386 0.367761 0.722725 -0.099379
C22   C     C_R   0.563738 0.286392 0.187543 -0.063650
C23   C     C_R   0.409843 0.721765 0.835918 -0.073696
C24   C     C_R   0.297210 0.197524 0.554124 -0.062793
C25   C     C_R   0.709252 0.823017 0.414193 -0.077740
C26   C     C_R   0.087965 0.585907 0.314183 0.033308
C27   C     C_R   0.610078 0.889875 0.889843 0.477881
C28   C     C_R   0.934740 0.407676 0.690284 0.016084
C29   C     C_R   0.584604 0.315876 0.094701 0.038956
C30   C     C_R   0.411744 0.687570 0.922784 0.022012
C31   C     C_R   0.320203 0.104739 0.580582 0.042707
C32   C     C_R   0.683987 0.908329 0.415424 0.033161
C33   C     C_R   0.041494 0.634185 0.253168 -0.071540
C34   C     C_R   0.969127 0.397491 0.749622 -0.026187
C35   C     C_R   0.649492 0.256612 0.047303 -0.076500
C36   C     C_R   0.371622 0.745247 0.971565 -0.043090
C37   C     C_R   0.258340 0.062701 0.651692 -0.077176
C38   C     C_R   0.110271 0.110000 0.389878 0.478546
C39   C     C_R   0.748126 0.950293 0.372867 -0.063303
C40   C     C_R   0.082410 0.679270 0.163401 0.169947
C41   C     C_R   0.937145 0.351371 0.841984 0.171457
C42   C     C_R   0.693285 0.167970 0.092019 0.166854
C43   C     C_R   0.329635 0.837107 0.933830 0.169817
C44   C     C_R   0.174689 0.112238 0.697971 0.166953
C45   C     C_R   0.837632 0.907067 0.329660 0.159466
C46   C     C_R   0.171693 0.672736 0.134851 -0.069922
C47   C     C_R   0.872157 0.313582 0.873053 -0.101214
C48   C     C_R   0.669708 0.138876 0.185401 -0.063395
C49   C     C_R   0.889861 0.889850 0.610069 0.477636
C50   C     C_R   0.329902 0.870683 0.845994 -0.093583
C51   C     C_R   0.152351 0.205188 0.670008 -0.069030
C52   C     C_R   0.861625 0.822171 0.327768 -0.070960
C53   C     C_R   0.988656 0.591011 0.464632 -0.144817
C54   C     C_R   0.019337 0.407387 0.536590 -0.152094
C55   C     C_R   0.591093 0.464627 0.989187 -0.139161
C56   C     C_R   0.408125 0.535934 0.016391 -0.147861
C57   C     C_R   0.466205 0.993128 0.589626 -0.144667
C58   C     C_R   0.534255 0.009431 0.409690 -0.149302
C59   C     C_R   0.949538 0.551231 0.556211 0.023825
C60   C     C_R   0.110103 0.389844 0.110197 0.477924
C61   C     C_R   0.057651 0.447313 0.445021 0.020601
C62   C     C_R   0.552045 0.555364 0.946686 0.024004
C63   C     C_R   0.447229 0.445098 0.058373 0.020948
C64   C     C_R   0.555276 0.945396 0.552196 0.021441
C65   C     C_R   0.445224 0.057379 0.447065 0.017665
C66   C     C_R   0.967644 0.457288 0.593387 -0.036163
C67   C     C_R   0.043949 0.540021 0.408820 -0.031245
C68   C     C_R   0.458924 0.591822 0.961827 -0.035544
C69   C     C_R   0.539576 0.409300 0.046622 -0.027659
C70   C     C_R   0.590125 0.954513 0.460680 -0.034634
C71   C     C_R   0.889889 0.610065 0.889790 0.476625
C72   C     C_R   0.411029 0.050561 0.537826 -0.028866
C73   C     C_R   0.111212 0.390404 0.389745 0.504613
C74   C     C_R   0.890706 0.609311 0.610428 0.505889
C75   C     C_R   0.390370 0.389749 0.111698 0.503831
C76   C     C_R   0.609489 0.610279 0.889710 0.507618
C77   C     C_R   0.389770 0.111559 0.390328 0.501597
C78   C     C_R   0.610285 0.889248 0.609518 0.507203
C79   C     C_R   0.175879 0.931385 0.389029 -0.128775
C80   C     C_R   0.823325 0.069294 0.608837 -0.125975
C81   C     C_R   0.929094 0.394719 0.178404 -0.129671
C82   C     C_R   0.218248 0.624061 0.195501 -0.145584
C83   C     C_R   0.071882 0.602559 0.820498 -0.133341
C84   C     C_R   0.388042 0.175502 0.931762 -0.127258
C85   C     C_R   0.610468 0.823969 0.068768 -0.123714
C86   C     C_R   0.208325 0.845339 0.387166 -0.119147
C87   C     C_R   0.790287 0.155902 0.609514 -0.115207
C88   C     C_R   0.841648 0.395872 0.212273 -0.118899
C89   C     C_R   0.159903 0.600003 0.786043 -0.116384
C90   C     C_R   0.385490 0.207742 0.845964 -0.119110
C91   C     C_R   0.612062 0.791285 0.155033 -0.113854
C92   C     C_R   0.154675 0.791007 0.440934 0.242723
C93   C     C_R   0.840502 0.320791 0.813659 -0.134712
C94   C     C_R   0.844020 0.210161 0.555971 0.250968
C95   C     C_R   0.787377 0.449345 0.158460 0.248219
C96   C     C_R   0.214238 0.546438 0.839805 0.252259
C97   C     C_R   0.438880 0.153981 0.791773 0.248037
C98   C     C_R   0.558586 0.845006 0.209269 0.253105
C99   C     C_R   0.068592 0.823978 0.496468 -0.059711
C100  C     C_R   0.930826 0.176519 0.501904 -0.038936
C101  C     C_R   0.821843 0.501521 0.070742 -0.035021
C102  C     C_R   0.179229 0.495634 0.928097 -0.038052
C103  C     C_R   0.494778 0.068010 0.824618 -0.040850
C104  C     C_R   0.605893 0.198032 0.232645 -0.132181
C105  C     C_R   0.503610 0.931419 0.175971 -0.037303
C106  C     C_R   0.033446 0.912099 0.497924 -0.045647
C107  C     C_R   0.966307 0.088076 0.501174 -0.037976
C108  C     C_R   0.911041 0.500442 0.034529 -0.032925
C109  C     C_R   0.089564 0.497937 0.964784 -0.041245
C110  C     C_R   0.497142 0.033144 0.912427 -0.035570
C111  C     C_R   0.502012 0.966609 0.087818 -0.036805
C112  C     C_R   0.087866 0.966532 0.443504 0.000427
C113  C     C_R   0.911822 0.033708 0.555432 0.002124
C114  C     C_R   0.965426 0.446218 0.089055 -0.003135
H1    H     H_    0.977682 0.662186 0.436243 0.143594
H2    H     H_    0.033460 0.643928 0.775544 0.131612
H3    H     H_    0.346804 0.220752 0.969742 0.135675
H4    H     H_    0.651731 0.778773 0.030724 0.135376
H5    H     H_    0.275708 0.820904 0.344193 0.109779
H6    H     H_    0.722410 0.180808 0.651414 0.109693
H7    H     H_    0.816160 0.355354 0.280794 0.109948
H8    H     H_    0.185776 0.639507 0.717123 0.112057
H9    H     H_    0.342250 0.275039 0.821622 0.105457
H10   H     H_    0.654611 0.723673 0.179703 0.109774
H11   H     H_    0.030010 0.779243 0.538389 0.146215
H12   H     H_    0.030292 0.336241 0.564757 0.155087
H13   H     H_    0.969488 0.221187 0.460063 0.147197
H14   H     H_    0.777362 0.543148 0.031814 0.145969
H15   H     H_    0.223685 0.453908 0.967067 0.145335
H16   H     H_    0.536514 0.029457 0.779881 0.147301
H17   H     H_    0.461800 0.969999 0.220689 0.147809
H18   H     H_    0.205630 0.704427 0.065575 0.115160
H19   H     H_    0.845840 0.278414 0.943600 0.102816
H20   H     H_    0.699737 0.070232 0.221829 0.113610
H21   H     H_    0.299508 0.941427 0.815204 0.100057
H22   H     H_    0.087571 0.244848 0.703150 0.117188
H23   H     H_    0.661892 0.436828 0.979948 0.150713
H24   H     H_    0.929454 0.789004 0.292594 0.111079
H25   H     H_    0.286950 0.619300 0.173037 0.102953
H26   H     H_    0.791415 0.290395 0.838186 0.109133
H27   H     H_    0.588605 0.175146 0.304467 0.108165
H28   H     H_    0.369343 0.839410 0.729985 0.108868
H29   H     H_    0.195493 0.319186 0.577521 0.108421
H30   H     H_    0.817135 0.714527 0.369021 0.108645
H31   H     H_    0.213153 0.543748 0.331465 0.114380
H32   H     H_    0.845588 0.373527 0.677590 0.140112
H33   H     H_    0.514223 0.331595 0.224883 0.105156
H34   H     H_    0.337437 0.563895 0.025335 0.151673
H35   H     H_    0.441057 0.677916 0.797522 0.121473
H36   H     H_    0.344477 0.230823 0.499723 0.102751
H37   H     H_    0.660298 0.790054 0.446773 0.124220
H38   H     H_    0.973327 0.637129 0.275778 0.089649
H39   H     H_    0.018800 0.427826 0.723137 0.104732
H40   H     H_    0.665345 0.279516 0.975698 0.091075
H41   H     H_    0.375242 0.718857 0.037796 0.106809
H42   H     H_    0.275826 0.991239 0.671658 0.087126
H43   H     H_    0.728369 0.016271 0.373972 0.093479
H44   H     H_    0.751387 0.310031 0.596270 0.322429
H45   H     H_    0.439990 0.988291 0.659091 0.148946
H46   H     H_    0.246114 0.692262 0.398226 0.321517
H47   H     H_    0.316335 0.581486 0.744833 0.323399
H48   H     H_    0.686212 0.411966 0.252460 0.322688
H49   H     H_    0.600460 0.753024 0.308544 0.321754
H50   H     H_    0.395296 0.245150 0.693340 0.321313
H51   H     H_    0.974193 0.719162 0.126590 0.252052
H52   H     H_    0.987596 0.853188 0.011043 0.151073
H53   H     H_    0.095802 0.827147 0.010802 0.148515
H54   H     H_    0.996612 0.857061 0.102644 0.138994
H55   H     H_    0.946091 0.302036 0.968882 0.245134
H56   H     H_    0.560732 0.014217 0.340225 0.154359
H57   H     H_    0.105205 0.296073 0.844438 0.131584
H58   H     H_    0.068279 0.334833 0.934472 0.152322
H59   H     H_    0.057840 0.415205 0.828680 0.158575
H60   H     H_    0.762495 0.132895 0.977116 0.248358
H61   H     H_    0.888301 0.018201 0.013105 0.136524
H62   H     H_    0.837584 0.017105 0.126125 0.167572
H63   H     H_    0.874934 0.109741 0.036227 0.131981
H64   H     H_    0.276999 0.963169 0.943578 0.249015
H65   H     H_    0.162856 0.885290 0.052924 0.130651
H66   H     H_    0.195683 0.927853 0.097711 0.151609
H67   H     H_    0.221026 0.969504 0.347536 0.136629
H68   H     H_    0.242711 0.810911 0.112315 0.151653
H69   H     H_    0.129886 0.003358 0.777444 0.248758
H70   H     H_    0.037745 0.041366 0.907513 0.132055
H71   H     H_    0.047918 0.150565 0.850518 0.159306
H72   H     H_    0.142550 0.053010 0.876129 0.134968
H73   H     H_    0.875770 0.017277 0.278653 0.244842
H74   H     H_    0.956017 0.891844 0.388148 0.181027
H75   H     H_    0.023915 0.942705 0.277988 0.142564
H76   H     H_    0.016945 0.837529 0.304485 0.152708
H77   H     H_    0.778178 0.031166 0.650151 0.134840
H78   H     H_    0.967425 0.353320 0.223434 0.134223
N1    N     N_2   0.034571 0.728182 0.101908 -0.505089
N2    N     N_2   0.965571 0.345625 0.905106 -0.502870
N3    N     N_2   0.757479 0.107790 0.043347 -0.510034
N4    N     N_2   0.291475 0.896343 0.981982 -0.510740
N5    N     N_2   0.112787 0.068673 0.770852 -0.512207
N6    N     N_2   0.902268 0.950450 0.285500 -0.544921
O1    O     O_3   0.250000 0.250000 0.250000 -0.443358
O2    O     O_R   0.865800 0.694910 0.573470 -0.548071
O3    O     O_R   0.305090 0.426530 0.134200 -0.546378
O4    O     O_R   0.694910 0.573470 0.865800 -0.544278
O5    O     O_R   0.426530 0.134200 0.305090 -0.548759
O6    O     O_R   0.573470 0.865800 0.694910 -0.547373
O7    O     O_R   0.134190 0.426530 0.134200 -0.536143
O8    O     O_R   0.865810 0.573470 0.865800 -0.534074
O9    O     O_R   0.426530 0.134200 0.134190 -0.538970
O10   O     O_R   0.573470 0.865800 0.865810 -0.539383
O11   O     O_R   0.134200 0.134190 0.426530 -0.539546
O12   O     O_3   0.750000 0.750000 0.750000 -0.443216
O13   O     O_R   0.865800 0.865810 0.573470 -0.559271
O14   O     O_R   0.426530 0.305080 0.134210 -0.531865
O15   O     O_R   0.573470 0.694920 0.865790 -0.531344
O16   O     O_R   0.305080 0.134210 0.426530 -0.531485
O17   O     O_R   0.694920 0.865790 0.573470 -0.532741
O18   O     O_R   0.134210 0.426530 0.305080 -0.531773
O19   O     O_R   0.865790 0.573470 0.694920 -0.537024
O20   O     O_3   0.813614 0.296455 0.554367 -0.712078
O21   O     O_3   0.184446 0.705310 0.441281 -0.716638
O22   O     O_3   0.301849 0.541759 0.808051 -0.706702
O23   O     O_R   0.305080 0.134200 0.134200 -0.548243
O24   O     O_3   0.700334 0.452623 0.189624 -0.709293
O25   O     O_3   0.557915 0.814961 0.295219 -0.709176
O26   O     O_3   0.438554 0.183565 0.706301 -0.710800
O27   O     O_R   0.694920 0.865800 0.865800 -0.545310
O28   O     O_R   0.134200 0.134200 0.305080 -0.548678
O29   O     O_R   0.865800 0.865800 0.694920 -0.539510
O30   O     O_R   0.134200 0.305080 0.134200 -0.550578
O31   O     O_R   0.865800 0.694920 0.865800 -0.543821
O32   O     O_R   0.134200 0.305090 0.426530 -0.548045
Zn1   Zn    Zn3+2 0.206620 0.206630 0.380140 0.938393
Zn2   Zn    Zn3+2 0.793380 0.793370 0.619860 0.926850
Zn3   Zn    Zn3+2 0.206630 0.380140 0.206620 0.940139
Zn4   Zn    Zn3+2 0.793370 0.619860 0.793380 0.941134
Zn5   Zn    Zn3+2 0.380140 0.206620 0.206630 0.938587
Zn6   Zn    Zn3+2 0.619860 0.793380 0.793370 0.941328
Zn7   Zn    Zn3+2 0.206620 0.206620 0.206620 0.916463
Zn8   Zn    Zn3+2 0.793380 0.793380 0.793380 0.925027

loop_
_geom_bond_atom_site_label_1
_geom_bond_atom_site_label_2
_ccdc_geom_bond_type
C10   C27   S    
C87   C94   A    
C18   H75   S    
C19   H30   S    
O18   Zn3   S    
C22   C29   A    
C20   C82   A    
C100  H13   S    
C12   N1    S    
C15   H61   S    
C1    C11   S    
C35   H40   S    
C12   H53   S    
C53   C59   A    
O9    Zn5   S    
C99   H11   S    
C106  C112  A    
C40   C46   A    
C54   H12   S    
H69   N5    S    
C98   C105  A    
C21   C93   A    
C15   H62   S    
C103  C110  A    
C26   C67   S    
O12   Zn8   S    
C48   H20   S    
C58   H56   S    
C78   O6    A    
C19   C52   A    
C80   C87   A    
C96   C102  A    
C50   H21   S    
O1    Zn3   S    
C59   C66   A    
C46   H18   S    
C79   C86   A    
C16   H68   S    
C60   O7    A    
H46   O21   S    
C22   H33   S    
C89   H8    S    
O31   Zn8   S    
C48   C104  A    
C55   C62   A    
O1    Zn7   S    
C94   O20   S    
C101  H14   S    
C22   C104  A    
C7    C112  A    
C1    O23   A    
C27   O10   A    
O11   Zn1   S    
C32   C39   A    
C108  C114  A    
C35   C42   A    
O1    Zn1   S    
C107  C113  A    
C2    C50   A    
C13   C51   A    
C76   O15   A    
C71   O8    A    
C42   N3    S    
H48   O24   S    
C17   H71   S    
C84   H3    S    
C71   O31   A    
C81   C114  A    
C18   N6    S    
C52   H24   S    
C102  H15   S    
C73   O18   A    
C17   N5    S    
C86   H5    S    
C64   C70   A    
C49   O29   A    
O15   Zn6   S    
O8    Zn4   S    
O10   Zn6   S    
C90   C97   A    
C16   H65   S    
C39   C45   A    
C15   N3    S    
C101  C108  A    
O12   Zn4   S    
C23   H35   S    
C88   C95   A    
C28   C34   A    
C44   N5    S    
C57   C72   A    
O28   Zn7   S    
C46   C82   A    
C39   H43   S    
O27   Zn8   S    
C37   H42   S    
C62   C76   S    
O32   Zn1   S    
C34   C41   A    
C84   C90   A    
C1    O9    A    
O16   Zn1   S    
C77   O5    A    
C73   O32   A    
C77   O16   A    
C29   C69   S    
C40   N1    S    
C31   C37   A    
C9    C109  A    
C83   C89   A    
C75   O14   A    
C33   C40   A    
C65   C77   S    
O13   Zn2   S    
C92   C99   A    
H73   N6    S    
C11   C111  A    
O17   Zn2   S    
C95   O24   S    
C23   C30   A    
C63   C69   A    
C105  H17   S    
C3    C8    A    
C81   H78   S    
C27   O27   A    
C32   C70   S    
C5    C111  A    
C45   C52   A    
C61   C73   S    
C45   N6    S    
C96   O22   S    
O29   Zn8   S    
H64   N4    S    
C79   H67   S    
C13   C24   A    
C3    C109  A    
C43   N4    S    
C60   O30   A    
C56   H34   S    
C92   O21   S    
C28   C66   S    
C6    C113  A    
O5    Zn5   S    
C41   N2    S    
C16   N4    S    
O1    Zn5   S    
O4    Zn4   S    
C51   H22   S    
C61   C67   A    
C58   C65   A    
O3    Zn3   S    
C4    C84   A    
C94   C100  A    
C17   H72   S    
H44   O20   S    
C104  H27   S    
C75   O3    A    
C98   O25   S    
C49   O13   A    
C82   H25   S    
C41   C47   A    
C56   C63   A    
C42   C48   A    
C14   H57   S    
C4    C11   A    
C6    C106  A    
C59   C74   S    
C97   C103  A    
C24   H36   S    
C79   C112  A    
C44   C51   A    
C14   H58   S    
C31   C72   S    
C21   C28   A    
C74   O2    A    
O12   Zn6   S    
C91   H10   S    
C15   H63   S    
C3    C83   A    
C91   C98   A    
C2    H28   S    
C80   H77   S    
C7    C107  A    
H47   O22   S    
C9    C114  A    
C85   C91   A    
O14   Zn5   S    
C57   H45   S    
C63   C75   S    
C57   C64   A    
C34   H39   S    
C99   C106  A    
C4    C110  A    
C18   H76   S    
C100  C107  A    
C47   C93   A    
C78   O17   A    
C64   C78   S    
C83   H2    S    
C58   C70   A    
C88   H7    S    
C102  C109  A    
C33   H38   S    
H51   N1    S    
O19   Zn4   S    
C12   H54   S    
C53   H1    S    
C43   C50   A    
H55   N2    S    
C54   C66   A    
C54   C61   A    
C30   C36   A    
C14   H59   S    
C65   C72   A    
C29   C35   A    
C55   H23   S    
C97   O26   S    
C38   O28   A    
C25   H37   S    
C9    C60   S    
C21   H32   S    
C55   C69   A    
C89   C96   A    
O7    Zn3   S    
C36   H41   S    
C24   C31   A    
C5    C85   A    
C5    C10   A    
O6    Zn6   S    
C93   H26   S    
C56   C68   A    
C53   C67   A    
C12   H52   S    
C17   H70   S    
O30   Zn7   S    
C20   C26   A    
C25   C32   A    
C74   O19   A    
C18   H74   S    
C7    C38   S    
C10   C110  A    
C76   O4    A    
C62   C68   A    
C13   H29   S    
C38   O11   A    
C14   N2    S    
C85   H4    S    
C19   C25   A    
C103  H16   S    
C30   C68   S    
C81   C88   A    
C105  C111  A    
C37   C44   A    
C95   C101  A    
H60   N3    S    
C80   C113  A    
C87   H6    S    
H50   O26   S    
O23   Zn7   S    
C2    C23   A    
O12   Zn2   S    
C20   H31   S    
C8    C108  A    
C36   C43   A    
C86   C92   A    
O2    Zn2   S    
H49   O25   S    
C90   H9    S    
C47   H19   S    
C6    C49   S    
C16   H66   S    
C26   C33   A    
C8    C71   S    
