data_mof_unit_52265.cif
_audit_creation_date              2012-12-10T18:58:43-0500
_audit_creation_method            fapswitch 2.2
_symmetry_space_group_name_H-M    P1
_symmetry_Int_Tables_number       1
_space_group_crystal_system       triclinic
_cell_length_a                    12.999606
_cell_length_b                    10.864318
_cell_length_c                    9.55399
_cell_angle_alpha                 90.85946
_cell_angle_beta                  96.057892
_cell_angle_gamma                 90.3858
_cell_volume                      1341.59487463

loop_
_atom_site_label
_atom_site_type_symbol
_atom_type_description
_atom_site_fract_x
_atom_site_fract_y
_atom_site_fract_z
_atom_type_partial_charge
C1    C     C_R   0.495585 0.262235 0.498087 0.874891
C2    C     C_R   0.028188 0.517154 0.564880 0.174122
C3    C     C_R   0.972734 0.478108 0.436607 0.174722
C4    C     C_R   0.865507 0.468783 0.426933 -0.256629
C5    C     C_R   0.868065 0.541716 0.668418 -0.199447
C6    C     C_R   0.975464 0.548056 0.680527 -0.203403
C7    C     C_R   0.540331 0.066527 0.612826 0.025694
C8    C     C_R   0.495117 0.128193 0.494439 -0.227057
C9    C     C_R   0.458162 0.057635 0.372324 0.446143
C10   C     C_R   0.465672 0.929756 0.375739 -0.277338
C11   C     C_R   0.502262 0.870015 0.499581 -0.162555
C12   C     C_R   0.300625 0.499409 0.473777 0.833349
C13   C     C_R   0.543253 0.939720 0.615763 0.095353
C14   C     C_3   0.520431 0.935543 0.765415 -0.414779
C15   C     C_3   0.517110 0.075154 0.762800 -0.350633
C16   C     C_R   0.566148 0.575213 0.084328 0.256341
C17   C     C_R   0.425425 0.439708 0.062390 0.009897
C18   C     C_R   0.426457 0.437692 0.913812 -0.069865
C19   C     C_R   0.565669 0.575878 0.936924 0.257805
C20   C     C_3   0.680641 0.575366 0.947272 -0.517659
C21   C     C_3   0.681160 0.573145 0.105560 -0.487619
C22   C     C_R   0.500559 0.737275 0.500844 0.826843
C23   C     C_R   0.699542 0.500098 0.526265 0.794375
C24   C     C_R   0.812529 0.502463 0.541594 -0.046228
C25   C     C_R   0.187991 0.495699 0.458805 -0.039713
C26   C     C_R   0.025294 0.450012 0.319788 -0.211805
C27   C     C_R   0.132569 0.459909 0.330488 -0.163187
C28   C     C_R   0.135466 0.524837 0.575393 -0.268249
Cu1   Cu    Cu3+1 0.499990 0.499980 0.640670 0.949079
Cu2   Cu    Cu3+1 0.500010 0.500020 0.359330 0.994970
H1    H     H_    0.823643 0.434943 0.330242 0.142054
H2    H     H_    0.586600 0.899540 0.835841 0.190533
H3    H     H_    0.438961 0.112817 0.773847 0.217454
H4    H     H_    0.581233 0.119709 0.832089 0.208514
H5    H     H_    0.365468 0.390298 0.108084 0.183650
H6    H     H_    0.368616 0.384312 0.849036 0.147575
H7    H     H_    0.711456 0.489138 0.904261 0.220743
H8    H     H_    0.712294 0.662473 0.909008 0.188854
H9    H     H_    0.710625 0.484853 0.149592 0.213468
H10   H     H_    0.714666 0.657805 0.159633 0.200907
H11   H     H_    0.828792 0.569823 0.757318 0.150785
H12   H     H_    0.983537 0.420882 0.220490 0.138232
H13   H     H_    0.017059 0.578731 0.779327 0.139510
H14   H     H_    0.172146 0.437645 0.239288 0.153267
H15   H     H_    0.177942 0.553908 0.674334 0.152491
H16   H     H_    0.436369 0.875845 0.283685 0.210013
H17   H     H_    0.444190 0.892213 0.777577 0.213772
N1    N     N_R   0.500660 0.500930 0.148010 -0.193311
N2    N     N_R   0.500660 0.500890 0.852110 -0.193162
O1    O     O_R   0.500000 0.319640 0.618810 -0.591503
O2    O     O_R   0.500010 0.319680 0.381230 -0.502834
O3    O     O_R   0.348990 0.499960 0.599490 -0.600104
O4    O     O_R   0.349000 0.500000 0.361910 -0.578540
O5    O     O_R   0.499990 0.680320 0.618770 -0.582554
O6    O     O_R   0.500000 0.680360 0.381190 -0.590212
O7    O     O_R   0.651000 0.500000 0.638090 -0.590128
O8    O     O_R   0.651010 0.500040 0.400510 -0.590245
S1    S     S_3+6 0.390528 0.120622 0.219719 -0.027053
O9    O     O_2   0.466971 0.178654 0.132829 -0.307007
O10   O     O_2   0.331659 0.021504 0.132744 -0.325489
O11   O     O_3   0.306511 0.226275 0.267909 -0.570199
H18   H     H_    0.249784 0.226783 0.190094 0.353100

loop_
_geom_bond_atom_site_label_1
_geom_bond_atom_site_label_2
_ccdc_geom_bond_type
C10   H16   S    
C2    C28   A    
C23   C24   S    
C15   H4    S    
C16   C21   S    
Cu1   O7    S    
C25   C27   A    
C1    C8    S    
C20   H8    S    
C9    C10   A    
C19   N2    A    
C11   C22   S    
C12   O4    A    
C21   H9    S    
C17   N1    A    
C12   C25   S    
Cu2   O2    S    
Cu1   O5    S    
C16   N1    A    
S1    O11   S    
C7    C15   S    
C2    C3    A    
C22   O6    A    
C23   O7    A    
C22   O5    A    
C2    C6    A    
C13   C14   S    
C25   C28   A    
C20   H7    S    
C11   C13   A    
C26   C27   A    
C14   H17   S    
C5    C24   A    
Cu1   O1    S    
C16   C19   A    
C5    C6    A    
C27   H14   S    
Cu2   N1    S    
C12   O3    A    
C17   C18   A    
C6    H13   S    
O11   H18   S    
C4    C24   A    
Cu2   O4    S    
C28   H15   S    
C4    H1    S    
C7    C8    A    
C10   C11   A    
S1    O10   D    
C3    C4    A    
Cu2   O8    S    
C7    C13   A    
C20   C21   S    
C26   H12   S    
C9    S1    S    
C1    O1    A    
C23   O8    A    
C5    H11   S    
C14   C15   S    
Cu1   N2    S    
C1    O2    A    
C17   H5    S    
S1    O9    D    
C18   H6    S    
Cu2   O6    S    
C15   H3    S    
C3    C26   A    
Cu1   Cu2   S    
C19   C20   S    
C18   N2    A    
C14   H2    S    
C8    C9    A    
Cu1   O3    S    
C21   H10   S    
