data_mof_unit_46110.cif
_audit_creation_date              2012-12-10T16:38:02-0500
_audit_creation_method            fapswitch 2.2
_symmetry_space_group_name_H-M    P1
_symmetry_Int_Tables_number       1
_space_group_crystal_system       triclinic
_cell_length_a                    28.21673
_cell_length_b                    18.730554
_cell_length_c                    16.767059
_cell_angle_alpha                 90.098871
_cell_angle_beta                  61.100836
_cell_angle_gamma                 89.58072
_cell_volume                      7757.76778567

loop_
_atom_site_label
_atom_site_type_symbol
_atom_type_description
_atom_site_fract_x
_atom_site_fract_y
_atom_site_fract_z
_atom_type_partial_charge
C1    C     C_R   0.699627 0.263489 0.677735 0.947732
C2    C     C_R   0.101933 0.500383 0.489747 -0.009894
C3    C     C_R   0.194776 0.210584 0.901574 -0.021052
C4    C     C_R   0.613778 0.320982 0.054159 0.396145
C5    C     C_R   0.386222 0.679018 0.945841 0.396145
C6    C     C_R   0.333571 0.399279 0.014903 0.381536
C7    C     C_R   0.666429 0.600720 0.985097 0.381537
C8    C     C_R   0.113778 0.820982 0.054159 0.396145
C9    C     C_R   0.886222 0.179018 0.945841 0.396145
C10   C     C_R   0.833571 0.899279 0.014903 0.381536
C11   C     C_R   0.166429 0.100721 0.985097 0.381537
C12   C     C_R   0.645382 0.311392 0.097814 0.333958
C13   C     C_R   0.398067 0.999616 0.510253 -0.009894
C14   C     C_R   0.354618 0.688608 0.902186 0.333958
C15   C     C_R   0.313136 0.377192 0.957711 0.306310
C16   C     C_R   0.686864 0.622808 0.042288 0.306310
C17   C     C_R   0.145382 0.811392 0.097814 0.333958
C18   C     C_R   0.854618 0.188608 0.902186 0.333958
C19   C     C_R   0.813136 0.877192 0.957711 0.306310
C20   C     C_R   0.186864 0.122808 0.042288 0.306310
C21   C     C_R   0.738542 0.186845 0.799718 0.423734
C22   C     C_R   0.261458 0.813155 0.200282 0.423734
C23   C     C_R   0.279864 0.177961 0.179501 0.411818
C24   C     C_R   0.601933 0.000383 0.489747 -0.009894
C25   C     C_R   0.720136 0.822039 0.820499 0.411818
C26   C     C_R   0.238542 0.686845 0.799718 0.423734
C27   C     C_R   0.761458 0.313155 0.200282 0.423734
C28   C     C_R   0.779864 0.677961 0.179501 0.411818
C29   C     C_R   0.220136 0.322039 0.820499 0.411818
C30   C     C_R   0.770818 0.176471 0.840911 -0.125603
C31   C     C_R   0.229182 0.823529 0.159088 -0.125603
C32   C     C_R   0.256798 0.156807 0.126166 -0.151625
C33   C     C_R   0.743202 0.843193 0.873834 -0.151625
C34   C     C_R   0.270818 0.676471 0.840911 -0.125603
C35   C     C_R   0.109751 0.373872 0.461628 0.413501
C36   C     C_R   0.729181 0.323529 0.159088 -0.125603
C37   C     C_R   0.756798 0.656807 0.126166 -0.151625
C38   C     C_R   0.243202 0.343192 0.873834 -0.151625
C39   C     C_R   0.079055 0.092977 0.928711 0.991043
C40   C     C_R   0.920945 0.907023 0.071289 0.991044
C41   C     C_R   0.929111 0.104306 0.062561 0.990185
C42   C     C_R   0.070889 0.895694 0.937439 0.990185
C43   C     C_R   0.579055 0.592977 0.928711 0.991043
C44   C     C_R   0.420945 0.407023 0.071289 0.991044
C45   C     C_R   0.429111 0.604306 0.062561 0.990185
C46   C     C_R   0.890249 0.626128 0.538372 0.413501
C47   C     C_R   0.570889 0.395694 0.937439 0.990185
C48   C     C_R   0.553138 0.130008 0.484068 0.014238
C49   C     C_R   0.446862 0.869992 0.515932 0.014238
C50   C     C_R   0.444559 0.129551 0.519170 0.015166
C51   C     C_R   0.555441 0.870449 0.480830 0.015166
C52   C     C_R   0.053138 0.630008 0.484068 0.014238
C53   C     C_R   0.946862 0.369992 0.515932 0.014238
C54   C     C_R   0.944559 0.629551 0.519170 0.015166
C55   C     C_R   0.055441 0.370449 0.480830 0.015166
C56   C     C_R   0.525640 0.195345 0.492529 0.086432
C57   C     C_R   0.892411 0.372910 0.535215 0.413971
C58   C     C_R   0.474360 0.804654 0.507471 0.086432
C59   C     C_R   0.470762 0.195110 0.512283 0.076527
C60   C     C_R   0.529238 0.804890 0.487717 0.076527
C61   C     C_R   0.025640 0.695345 0.492529 0.086432
C62   C     C_R   0.974360 0.304654 0.507471 0.086432
C63   C     C_R   0.970762 0.695110 0.512283 0.076527
C64   C     C_R   0.029238 0.304890 0.487717 0.076527
C65   C     C_R   0.473090 0.065047 0.506781 -0.017125
C66   C     C_R   0.526910 0.934953 0.493219 -0.017125
C67   C     C_R   0.525789 0.065273 0.494770 -0.018975
C68   C     C_R   0.107589 0.627090 0.464784 0.413971
C69   C     C_R   0.474211 0.934727 0.505230 -0.018975
C70   C     C_R   0.973090 0.565047 0.506781 -0.017125
C71   C     C_R   0.026909 0.434953 0.493219 -0.017125
C72   C     C_R   0.025789 0.565273 0.494770 -0.018975
C73   C     C_R   0.974211 0.434727 0.505230 -0.018975
C74   C     C_R   0.947872 0.499773 0.510018 0.016351
C75   C     C_R   0.052128 0.500227 0.489982 0.016351
C76   C     C_R   0.447872 0.999773 0.510018 0.016351
C77   C     C_R   0.552128 0.000227 0.489982 0.016351
C78   C     C_R   0.873023 0.435004 0.511310 -0.068566
C79   C     C_R   0.609751 0.873872 0.461628 0.413501
C80   C     C_R   0.126977 0.564996 0.488690 -0.068566
C81   C     C_R   0.127830 0.435833 0.487424 -0.064978
C82   C     C_R   0.872170 0.564167 0.512576 -0.064978
C83   C     C_R   0.373023 0.935004 0.511310 -0.068566
C84   C     C_R   0.626977 0.064996 0.488690 -0.068566
C85   C     C_R   0.627830 0.935833 0.487424 -0.064978
C86   C     C_R   0.372170 0.064167 0.512576 -0.064978
C87   C     C_R   0.831798 0.435911 0.484582 -0.187176
C88   C     C_R   0.168202 0.564089 0.515418 -0.187176
C89   C     C_R   0.168415 0.436368 0.515256 -0.183548
C90   C     C_R   0.390249 0.126128 0.538372 0.413501
C91   C     C_R   0.831585 0.563632 0.484744 -0.183548
C92   C     C_R   0.331798 0.935911 0.484582 -0.187176
C93   C     C_R   0.668202 0.064089 0.515418 -0.187176
C94   C     C_R   0.668415 0.936368 0.515256 -0.183548
C95   C     C_R   0.331585 0.063632 0.484744 -0.183548
C96   C     C_R   0.817935 0.499778 0.459174 0.306320
C97   C     C_R   0.182065 0.500221 0.540826 0.306320
C98   C     C_R   0.317935 0.999778 0.459174 0.306320
C99   C     C_R   0.682065 0.000222 0.540826 0.306320
C100  C     C_R   0.392411 0.872910 0.535215 0.413971
C101  C     C_R   0.300372 0.736511 0.322265 0.947732
C102  C     C_R   0.607589 0.127090 0.464784 0.413971
C103  C     C_R   0.717132 0.261303 0.958135 -0.004822
C104  C     C_R   0.282868 0.738697 0.041865 -0.004822
C105  C     C_R   0.277007 0.270468 0.049582 0.003917
C106  C     C_R   0.722993 0.729532 0.950418 0.003917
C107  C     C_R   0.217132 0.761303 0.958135 -0.004822
C108  C     C_R   0.782868 0.238697 0.041865 -0.004822
C109  C     C_R   0.777007 0.770468 0.049582 0.003917
C110  C     C_R   0.222993 0.229532 0.950418 0.003916
C111  C     C_R   0.764640 0.218840 0.914533 0.069026
C112  C     C_R   0.300130 0.263803 0.322524 0.952256
C113  C     C_R   0.235360 0.781160 0.085467 0.069026
C114  C     C_R   0.249125 0.204433 0.068217 0.058986
C115  C     C_R   0.750875 0.795567 0.931783 0.058986
C116  C     C_R   0.264640 0.718840 0.914533 0.069026
C117  C     C_R   0.735360 0.281160 0.085467 0.069026
C118  C     C_R   0.749125 0.704433 0.068217 0.058986
C119  C     C_R   0.250875 0.295567 0.931783 0.058986
C120  C     C_R   0.799951 0.211947 0.953000 -0.061275
C121  C     C_R   0.200049 0.788053 0.047000 -0.061275
C122  C     C_R   0.219787 0.184944 0.021437 -0.062960
C123  C     C_R   0.699870 0.736197 0.677476 0.952256
C124  C     C_R   0.780213 0.815056 0.978563 -0.062960
C125  C     C_R   0.299951 0.711947 0.953000 -0.061275
C126  C     C_R   0.700049 0.288053 0.047000 -0.061275
C127  C     C_R   0.719787 0.684944 0.021437 -0.062960
C128  C     C_R   0.280213 0.315056 0.978563 -0.062960
C129  C     C_R   0.636639 0.313576 0.958358 -0.078580
C130  C     C_R   0.363361 0.686424 0.041642 -0.078580
C131  C     C_R   0.337360 0.351204 0.076072 -0.103428
C132  C     C_R   0.662640 0.648795 0.923928 -0.103428
C133  C     C_R   0.136639 0.813576 0.958358 -0.078580
C134  C     C_R   0.199627 0.763489 0.677735 0.947732
C135  C     C_R   0.863361 0.186424 0.041642 -0.078580
C136  C     C_R   0.837360 0.851205 0.076072 -0.103428
C137  C     C_R   0.162640 0.148795 0.923928 -0.103428
C138  C     C_R   0.609410 0.334809 0.908091 -0.150810
C139  C     C_R   0.390589 0.665191 0.091909 -0.150811
C140  C     C_R   0.374556 0.358999 0.111610 -0.191455
C141  C     C_R   0.625444 0.641001 0.888390 -0.191454
C142  C     C_R   0.109411 0.834809 0.908091 -0.150810
C143  C     C_R   0.890589 0.165191 0.091909 -0.150811
C144  C     C_R   0.874556 0.858999 0.111610 -0.191455
C145  C     C_R   0.800372 0.236511 0.322265 0.947732
C146  C     C_R   0.125444 0.141001 0.888390 -0.191454
C147  C     C_R   0.624176 0.303829 0.823776 0.285979
C148  C     C_R   0.375824 0.696171 0.176224 0.285979
C149  C     C_R   0.369358 0.315471 0.182672 0.295799
C150  C     C_R   0.630642 0.684529 0.817328 0.295799
C151  C     C_R   0.124176 0.803829 0.823776 0.285979
C152  C     C_R   0.875824 0.196171 0.176224 0.285979
C153  C     C_R   0.869358 0.815471 0.182672 0.295799
C154  C     C_R   0.130642 0.184529 0.817328 0.295799
C155  C     C_R   0.672984 0.266519 0.778440 -0.157398
C156  C     C_R   0.800130 0.763803 0.322524 0.952256
C157  C     C_R   0.327016 0.733481 0.221559 -0.157398
C158  C     C_R   0.325879 0.270658 0.222705 -0.147286
C159  C     C_R   0.674121 0.729342 0.777295 -0.147286
C160  C     C_R   0.172984 0.766519 0.778440 -0.157398
C161  C     C_R   0.827016 0.233481 0.221559 -0.157398
C162  C     C_R   0.825879 0.770658 0.222705 -0.147286
C163  C     C_R   0.174121 0.229342 0.777295 -0.147286
C164  C     C_R   0.700449 0.243919 0.827625 -0.023972
C165  C     C_R   0.299551 0.756081 0.172375 -0.023972
C166  C     C_R   0.301488 0.246554 0.170380 -0.018797
C167  C     C_R   0.199870 0.236197 0.677476 0.952256
C168  C     C_R   0.698512 0.753446 0.829620 -0.018797
C169  C     C_R   0.200449 0.743919 0.827625 -0.023972
C170  C     C_R   0.799551 0.256081 0.172375 -0.023972
C171  C     C_R   0.801488 0.746554 0.170380 -0.018797
C172  C     C_R   0.198512 0.253446 0.829620 -0.018797
C173  C     C_R   0.695042 0.128412 0.521290 0.958089
C174  C     C_R   0.304958 0.871588 0.478710 0.958089
C175  C     C_R   0.305018 0.128407 0.478476 0.960254
C176  C     C_R   0.694982 0.871593 0.521524 0.960254
C177  C     C_R   0.195042 0.628412 0.521290 0.958089
C178  C     C_R   0.898067 0.499617 0.510253 -0.009894
C179  C     C_R   0.804958 0.371588 0.478710 0.958089
C180  C     C_R   0.805018 0.628407 0.478476 0.960254
C181  C     C_R   0.194982 0.371593 0.521524 0.960254
C182  C     C_R   0.685287 0.274189 0.913952 -0.027537
C183  C     C_R   0.314713 0.725811 0.086048 -0.027537
C184  C     C_R   0.305224 0.289416 0.098426 -0.021052
C185  C     C_R   0.694776 0.710584 0.901574 -0.021052
C186  C     C_R   0.185287 0.774189 0.913952 -0.027537
C187  C     C_R   0.814713 0.225811 0.086048 -0.027537
C188  C     C_R   0.805224 0.789416 0.098426 -0.021052
Cl1   Cl    Cl    0.789733 0.499479 0.385003 -0.403785
Cl2   Cl    Cl    0.342488 0.177675 0.631959 -0.567462
Cl3   Cl    Cl    0.345882 0.820573 0.627712 -0.537235
Cl4   Cl    Cl    0.654118 0.179427 0.372288 -0.537235
Cl5   Cl    Cl    0.578101 0.304471 0.779682 -0.536172
Cl6   Cl    Cl    0.421899 0.695529 0.220318 -0.536172
Cl7   Cl    Cl    0.418017 0.310566 0.220524 -0.456468
Cl8   Cl    Cl    0.581983 0.689434 0.779476 -0.456469
Cl9   Cl    Cl    0.078101 0.804471 0.779682 -0.536172
Cl10  Cl    Cl    0.921899 0.195529 0.220318 -0.536172
Cl11  Cl    Cl    0.918017 0.810566 0.220524 -0.456468
Cl12  Cl    Cl    0.210267 0.500521 0.614997 -0.403785
Cl13  Cl    Cl    0.081983 0.189434 0.779476 -0.456469
Cl14  Cl    Cl    0.543196 0.315746 0.123050 -0.432387
Cl15  Cl    Cl    0.456804 0.684254 0.876950 -0.432387
Cl16  Cl    Cl    0.340070 0.492138 0.024432 -0.570544
Cl17  Cl    Cl    0.659930 0.507862 0.975567 -0.570544
Cl18  Cl    Cl    0.043195 0.815746 0.123050 -0.432387
Cl19  Cl    Cl    0.956804 0.184254 0.876950 -0.432387
Cl20  Cl    Cl    0.840070 0.992138 0.024432 -0.570544
Cl21  Cl    Cl    0.159930 0.007862 0.975567 -0.570544
Cl22  Cl    Cl    0.611087 0.311117 0.219005 -0.505877
Cl23  Cl    Cl    0.289733 0.999479 0.385003 -0.403785
Cl24  Cl    Cl    0.388913 0.688883 0.780995 -0.505877
Cl25  Cl    Cl    0.343044 0.420155 0.850431 -0.515752
Cl26  Cl    Cl    0.656956 0.579844 0.149569 -0.515752
Cl27  Cl    Cl    0.111087 0.811117 0.219005 -0.505877
Cl28  Cl    Cl    0.888913 0.188883 0.780995 -0.505877
Cl29  Cl    Cl    0.843044 0.920155 0.850431 -0.515752
Cl30  Cl    Cl    0.156956 0.079844 0.149569 -0.515752
Cl31  Cl    Cl    0.736555 0.114293 0.734697 -0.448201
Cl32  Cl    Cl    0.263445 0.885707 0.265303 -0.448201
Cl33  Cl    Cl    0.292347 0.110914 0.239936 -0.458705
Cl34  Cl    Cl    0.710267 0.000521 0.614997 -0.403785
Cl35  Cl    Cl    0.707653 0.889086 0.760064 -0.458705
Cl36  Cl    Cl    0.236555 0.614293 0.734697 -0.448201
Cl37  Cl    Cl    0.763445 0.385707 0.265303 -0.448201
Cl38  Cl    Cl    0.792347 0.610914 0.239936 -0.458705
Cl39  Cl    Cl    0.207653 0.389086 0.760064 -0.458705
Cl40  Cl    Cl    0.157512 0.322325 0.368041 -0.567462
Cl41  Cl    Cl    0.842488 0.677675 0.631959 -0.567462
Cl42  Cl    Cl    0.845882 0.320573 0.627712 -0.537235
Cl43  Cl    Cl    0.154117 0.679427 0.372288 -0.537235
Cl44  Cl    Cl    0.657512 0.822325 0.368041 -0.567462
H1    H     H_    0.797421 0.130288 0.820285 0.227262
H2    H     H_    0.058088 0.208376 0.427785 0.223194
H3    H     H_    0.963623 0.788916 0.458340 0.220707
H4    H     H_    0.941912 0.791624 0.572215 0.223194
H5    H     H_    0.969073 0.211041 0.451176 0.200179
H6    H     H_    0.947517 0.207674 0.564905 0.251583
H7    H     H_    0.030927 0.788959 0.548824 0.200179
H8    H     H_    0.052483 0.792326 0.435094 0.251583
H9    H     H_    0.536377 0.711083 0.541660 0.220707
H10   H     H_    0.558087 0.708376 0.427785 0.223194
H11   H     H_    0.463623 0.288916 0.458340 0.220707
H12   H     H_    0.202579 0.869712 0.179715 0.227262
H13   H     H_    0.441912 0.291624 0.572215 0.223194
H14   H     H_    0.469073 0.711041 0.451176 0.200179
H15   H     H_    0.447517 0.707674 0.564905 0.251583
H16   H     H_    0.530927 0.288959 0.548824 0.200179
H17   H     H_    0.552483 0.292326 0.435094 0.251583
H18   H     H_    0.249357 0.100648 0.125584 0.231691
H19   H     H_    0.750643 0.899352 0.874416 0.231691
H20   H     H_    0.297421 0.630288 0.820285 0.227262
H21   H     H_    0.702578 0.369712 0.179715 0.227262
H22   H     H_    0.749357 0.600648 0.125584 0.231691
H23   H     H_    0.250643 0.399352 0.874416 0.231691
H24   H     H_    0.036377 0.211084 0.541660 0.220707
N1    N     N_3   0.057323 0.238963 0.480581 -0.382610
N2    N     N_3   0.942677 0.761037 0.519419 -0.382610
N3    N     N_3   0.947599 0.238503 0.512968 -0.379008
N4    N     N_3   0.052401 0.761497 0.487032 -0.379008
N5    N     N_3   0.557323 0.738963 0.480581 -0.382610
N6    N     N_3   0.442677 0.261037 0.519419 -0.382610
N7    N     N_3   0.447599 0.738503 0.512968 -0.379008
N8    N     N_3   0.552401 0.261497 0.487032 -0.379008
O1    O     O_R   0.746490 0.236330 0.638080 -0.569152
O2    O     O_R   0.325830 0.813840 0.483730 -0.606421
O3    O     O_R   0.325830 0.186160 0.483730 -0.604649
O4    O     O_R   0.674170 0.813840 0.516270 -0.604649
O5    O     O_R   0.174170 0.686160 0.516270 -0.606421
O6    O     O_R   0.825830 0.313840 0.483730 -0.606421
O7    O     O_R   0.825830 0.686160 0.483730 -0.604649
O8    O     O_R   0.174170 0.313840 0.516270 -0.604649
O9    O     O_R   0.739960 0.127620 0.525000 -0.557500
O10   O     O_R   0.260040 0.872380 0.475000 -0.557500
O11   O     O_R   0.260040 0.127620 0.475000 -0.561418
O12   O     O_R   0.253510 0.763670 0.361920 -0.569152
O13   O     O_R   0.739960 0.872380 0.525000 -0.561418
O14   O     O_R   0.239960 0.627620 0.525000 -0.557500
O15   O     O_R   0.760040 0.372380 0.475000 -0.557500
O16   O     O_R   0.760040 0.627620 0.475000 -0.561418
O17   O     O_R   0.239960 0.372380 0.525000 -0.561418
O18   O     O_R   0.680700 0.294870 0.629350 -0.582971
O19   O     O_R   0.319300 0.705130 0.370650 -0.582971
O20   O     O_R   0.319300 0.294870 0.370650 -0.585214
O21   O     O_R   0.680700 0.705130 0.629350 -0.585214
O22   O     O_R   0.180700 0.794870 0.629350 -0.582971
O23   O     O_R   0.253510 0.236330 0.361920 -0.566251
O24   O     O_R   0.819300 0.205130 0.370650 -0.582971
O25   O     O_R   0.819300 0.794870 0.370650 -0.585214
O26   O     O_R   0.180700 0.205130 0.629350 -0.585214
O27   O     O_R   0.062020 0.072840 0.007170 -0.589845
O28   O     O_R   0.937980 0.927160 0.992830 -0.589845
O29   O     O_R   0.937980 0.072840 0.992830 -0.562141
O30   O     O_R   0.062020 0.927160 0.007170 -0.562141
O31   O     O_R   0.562020 0.572840 0.007170 -0.589845
O32   O     O_R   0.437980 0.427160 0.992830 -0.589845
O33   O     O_R   0.437980 0.572840 0.992830 -0.562141
O34   O     O_R   0.746490 0.763670 0.638080 -0.566251
O35   O     O_R   0.562020 0.427160 0.007170 -0.562141
O36   O     O_R   0.947860 0.073950 0.109290 -0.585876
O37   O     O_R   0.052140 0.926050 0.890710 -0.585876
O38   O     O_R   0.052140 0.073950 0.890710 -0.560385
O39   O     O_R   0.947860 0.926050 0.109290 -0.560384
O40   O     O_R   0.447860 0.573950 0.109290 -0.585876
O41   O     O_R   0.552140 0.426050 0.890710 -0.585876
O42   O     O_R   0.552140 0.573950 0.890710 -0.560385
O43   O     O_R   0.447860 0.426050 0.109290 -0.560384
O44   O     O_R   0.246490 0.736330 0.638080 -0.569152
O45   O     O_R   0.753510 0.263670 0.361920 -0.569152
O46   O     O_R   0.753510 0.736330 0.361920 -0.566251
O47   O     O_R   0.246490 0.263670 0.638080 -0.566251
O48   O     O_R   0.674170 0.186160 0.516270 -0.606421
Zn1   Zn    Zn3+2 0.792340 0.208750 0.507670 1.172111
Zn2   Zn    Zn3+2 0.494040 0.500000 0.919480 1.196729
Zn3   Zn    Zn3+2 0.005960 0.000000 0.080520 1.196729
Zn4   Zn    Zn3+2 0.994040 0.000000 0.919480 1.196729
Zn5   Zn    Zn3+2 0.207660 0.791250 0.492330 1.172111
Zn6   Zn    Zn3+2 0.207660 0.208750 0.492330 1.170165
Zn7   Zn    Zn3+2 0.792340 0.791250 0.507670 1.170165
Zn8   Zn    Zn3+2 0.292340 0.708750 0.507670 1.172111
Zn9   Zn    Zn3+2 0.707660 0.291250 0.492330 1.172111
Zn10  Zn    Zn3+2 0.707660 0.708750 0.492330 1.170165
Zn11  Zn    Zn3+2 0.292340 0.291250 0.507670 1.170165
Zn12  Zn    Zn3+2 0.505960 0.500000 0.080520 1.196729

loop_
_geom_bond_atom_site_label_1
_geom_bond_atom_site_label_2
_ccdc_geom_bond_type
C43   O31   A    
C58   N7    S    
C108  C120  A    
C59   N6    S    
C88   C177  S    
C112  C158  S    
C50   C59   A    
C41   C143  S    
C52   C61   A    
C12   C126  A    
C54   C63   A    
C58   C60   A    
O48   Zn9   S    
O26   Zn6   S    
O27   Zn3   S    
C45   O40   A    
C61   C63   A    
C103  C126  A    
C95   C175  S    
C62   C64   A    
C131  C140  A    
C91   C96   A    
C50   C90   A    
C162  C171  A    
C170  C187  A    
C70   C74   A    
C19   Cl29  S    
H11   N6    S    
C4    C12   A    
C147  C155  A    
C24   C85   A    
C88   C97   A    
C68   Cl43  S    
O16   Zn10  S    
C181  O8    A    
C119  C128  A    
C99   Cl34  S    
H9    N5    S    
C97   Cl12  S    
C109  C118  A    
O42   Zn2   S    
H24   N1    S    
C11   C20   A    
C150  C159  A    
C39   O27   A    
C165  C183  A    
C31   H12   S    
C166  C184  A    
O44   Zn8   S    
C63   N2    S    
C71   C73   A    
C106  C127  A    
C82   C91   A    
C51   C66   A    
C89   C181  S    
C142  C151  A    
C52   C72   A    
C131  C184  A    
C105  C114  A    
C54   C70   A    
C82   C178  A    
C163  C172  A    
C7    C132  A    
C38   C119  A    
C5    C130  A    
C83   C100  A    
C26   Cl36  S    
C46   Cl41  S    
C79   C85   A    
C154  Cl13  S    
C179  O6    A    
C66   C77   A    
C57   C78   A    
C18   Cl28  S    
O33   Zn2   S    
O47   Zn11  S    
C98   Cl23  S    
H4    N2    S    
C8    C17   A    
C56   C59   A    
C106  C115  A    
C80   C88   A    
C57   Cl42  S    
C174  O10   A    
C145  C161  S    
C93   C173  S    
C134  O22   A    
C84   C93   A    
C30   H1    S    
C175  O11   A    
C180  O7    A    
C86   C95   A    
C176  O4    A    
O30   Zn3   S    
C24   C77   A    
C104  C183  A    
O5    Zn5   S    
C37   H22   S    
C44   O32   A    
O7    Zn7   S    
C2    C81   A    
C61   N4    S    
O34   Zn7   S    
H15   N7    S    
C2    C75   A    
O9    Zn1   S    
H16   N8    S    
C41   O29   A    
C78   C87   A    
C134  C160  S    
O37   Zn4   S    
C84   C102  A    
C67   C77   A    
C45   C139  S    
C15   Cl25  S    
C167  O26   A    
C133  C142  A    
C123  C159  S    
C44   O43   A    
C130  C183  A    
C41   O36   A    
O11   Zn6   S    
C69   C76   A    
C112  O20   A    
C145  O24   A    
C10   Cl20  S    
C134  O44   A    
C46   C82   A    
C42   O30   A    
C29   C38   A    
C149  C158  A    
C20   C122  A    
C152  C161  A    
C135  C143  A    
C105  C184  A    
C136  C188  A    
O23   Zn6   S    
O8    Zn6   S    
O24   Zn1   S    
C72   C75   A    
C135  C187  A    
O3    Zn11  S    
C141  C150  A    
C25   C168  A    
C139  C148  A    
O32   Zn2   S    
O29   Zn4   S    
O20   Zn11  S    
C157  C165  A    
C27   Cl37  S    
C92   C174  S    
O4    Zn10  S    
C100  Cl3   S    
O21   Zn10  S    
C40   O39   A    
C91   C180  S    
H6    N3    S    
C47   O41   A    
C16   Cl26  S    
C177  O14   A    
C9    C135  A    
C116  C125  A    
C118  C127  A    
C64   N1    S    
C90   Cl2   S    
C132  C141  A    
O6    Zn1   S    
O38   Zn4   S    
O18   Zn9   S    
C108  C117  A    
O28   Zn4   S    
C177  O5    A    
C110  C119  A    
C5    Cl15  S    
O10   Zn5   S    
C149  Cl7   S    
C28   C37   A    
H3    N2    S    
C47   C138  S    
O1    Zn1   S    
C151  Cl9   S    
C16   C127  A    
C51   C79   A    
C107  C116  A    
O39   Zn3   S    
C104  C113  A    
C179  O15   A    
H5    N3    S    
C113  C121  A    
C21   Cl31  S    
O22   Zn5   S    
C49   C69   A    
C51   C60   A    
C140  C149  A    
C31   C113  A    
C25   C33   A    
C42   O37   A    
C129  C182  A    
C73   C74   A    
O17   Zn11  S    
C7    Cl17  S    
C9    Cl19  S    
C107  C186  A    
C65   C76   A    
C171  C188  A    
C39   O38   A    
C169  C186  A    
C3    C172  A    
C103  C111  A    
O12   Zn5   S    
C104  C125  A    
C23   Cl33  S    
O35   Zn12  S    
C65   C67   A    
C102  Cl4   S    
C160  C169  A    
C101  O12   A    
C3    C137  A    
C112  O23   A    
C93   C99   A    
C180  O16   A    
C81   C89   A    
C38   H23   S    
C101  C157  S    
C44   C140  S    
C21   C164  A    
C130  C139  A    
C53   C73   A    
C33   C115  A    
C101  O19   A    
C35   Cl40  S    
H7    N4    S    
C175  O3    A    
C53   C57   A    
C167  O47   A    
C45   O33   A    
C132  C185  A    
C47   O35   A    
C6    Cl16  S    
C137  C146  A    
C4    Cl14  S    
C10   C19   A    
C48   C102  A    
C46   C54   A    
H8    N4    S    
C8    Cl18  S    
C27   C170  A    
C5    C14   A    
C17   C121  A    
C143  C152  A    
C15   C128  A    
C86   C90   A    
C43   C141  S    
C107  C121  A    
C158  C166  A    
C22   Cl32  S    
C115  C124  A    
C78   C178  A    
C20   Cl30  S    
C106  C185  A    
C6    C131  A    
C4    C129  A    
O46   Zn10  S    
C27   C36   A    
C21   C30   A    
C13   C83   A    
C14   Cl24  S    
C153  C162  A    
C23   C32   A    
O15   Zn9   S    
C11   C137  A    
C12   Cl22  S    
C136  C144  A    
C110  C122  A    
C39   C146  S    
C40   O28   A    
H17   N8    S    
C79   Cl44  S    
C164  C182  A    
O19   Zn8   S    
O41   Zn2   S    
C145  O45   A    
C3    C110  A    
C94   C176  S    
C68   C80   A    
H2    N1    S    
C74   C178  A    
C48   C67   A    
C103  C182  A    
O31   Zn12  S    
C108  C187  A    
C35   C81   A    
C95   C98   A    
C92   C98   A    
C83   C92   A    
C14   C125  A    
C56   N8    S    
C10   C136  A    
C1    O18   A    
C66   C69   A    
O36   Zn3   S    
C34   C116  A    
C32   H18   S    
C159  C168  A    
C1    C155  S    
C144  C153  A    
C33   H19   S    
C123  O21   A    
C6    C15   A    
C22   C165  A    
C26   C34   A    
C37   C118  A    
C26   C169  A    
C146  C154  A    
C13   C86   A    
C42   C142  S    
C43   O42   A    
C55   C71   A    
O45   Zn9   S    
C52   C68   A    
C148  C157  A    
C156  C162  S    
H13   N6    S    
C50   C65   A    
C109  C188  A    
C19   C124  A    
C22   C31   A    
C129  C138  A    
C35   C55   A    
C154  C163  A    
C28   Cl38  S    
C87   C179  S    
C49   C58   A    
C173  O48   A    
C89   C97   A    
C111  C120  A    
C96   Cl1   S    
C163  C167  S    
C181  O17   A    
C36   C117  A    
C23   C166  A    
C85   C94   A    
C9    C18   A    
C28   C171  A    
C13   C76   A    
C138  C147  A    
O25   Zn7   S    
C87   C96   A    
C152  Cl10  S    
O40   Zn12  S    
C150  Cl8   S    
C133  C186  A    
C173  O9    A    
C161  C170  A    
C40   C144  S    
C123  O34   A    
C29   Cl39  S    
C18   C120  A    
C148  Cl6   S    
C48   C56   A    
C156  O46   A    
C7    C16   A    
C168  C185  A    
C105  C128  A    
C8    C133  A    
C60   N5    S    
O2    Zn8   S    
C34   H20   S    
C109  C124  A    
C153  Cl11  S    
C55   C64   A    
C155  C164  A    
C36   H21   S    
C174  O2    A    
C30   C111  A    
C151  C160  A    
C24   C84   A    
C25   Cl35  S    
C176  O13   A    
C11   Cl21  S    
C49   C100  A    
C71   C75   A    
C94   C99   A    
C62   N3    S    
H10   N5    S    
C156  O25   A    
C147  Cl5   S    
C29   C172  A    
O13   Zn7   S    
C2    C80   A    
O14   Zn8   S    
C114  C122  A    
C1    O1    A    
O43   Zn12  S    
C53   C62   A    
C117  C126  A    
C70   C72   A    
C32   C114  A    
C17   Cl27  S    
H14   N7    S    
