data_mof_unit_43060.cif
_audit_creation_date              2012-12-10T20:50:26-0500
_audit_creation_method            fapswitch 2.2
_symmetry_space_group_name_H-M    P1
_symmetry_Int_Tables_number       1
_space_group_crystal_system       triclinic
_cell_length_a                    23.356016
_cell_length_b                    9.265509
_cell_length_c                    8.126366
_cell_angle_alpha                 89.830447
_cell_angle_beta                  92.6422
_cell_angle_gamma                 89.559955
_cell_volume                      1756.65824136

loop_
_atom_site_label
_atom_site_type_symbol
_atom_type_description
_atom_site_fract_x
_atom_site_fract_y
_atom_site_fract_z
_atom_type_partial_charge
C1    C     C_R   0.500019 0.217497 0.500155 0.925483
C2    C     C_R   0.792579 0.472560 0.540807 0.314055
C3    C     C_R   0.388873 0.501053 0.495973 0.870304
C4    C     C_R   0.611107 0.498766 0.503993 0.869861
C5    C     C_R   0.294929 0.496962 0.626890 -0.205419
C6    C     C_R   0.702883 0.508692 0.669205 -0.207888
C7    C     C_R   0.297490 0.513656 0.328594 -0.208588
C8    C     C_R   0.704330 0.463271 0.374851 -0.207591
C9    C     C_R   0.326330 0.504021 0.484224 -0.039302
C10   C     C_R   0.673572 0.491375 0.515485 -0.038795
C11   C     C_R   0.880019 0.605509 0.547192 0.536196
C12   C     C_R   0.499981 0.782503 0.499845 0.925162
C13   C     C_R   0.120784 0.368824 0.454813 0.533680
C14   C     C_R   0.883179 0.348967 0.539201 0.525736
C15   C     C_R   0.115593 0.625259 0.442291 0.529518
C16   C     C_R   0.942077 0.350900 0.510332 -0.207897
C17   C     C_R   0.055979 0.621684 0.457161 -0.211614
C18   C     C_R   0.939332 0.611730 0.528820 -0.207008
C19   C     C_R   0.061617 0.360699 0.476901 -0.203244
C20   C     C_R   0.970162 0.483628 0.506753 -0.138360
C21   C     C_R   0.029392 0.488618 0.480371 -0.138498
C22   C     C_R   0.973644 0.224782 0.481229 0.395650
C23   C     C_1   0.500007 0.064513 0.500205 -0.176602
C24   C     C_R   0.022318 0.747431 0.456841 0.398581
C25   C     C_R   0.968216 0.742908 0.523006 0.399336
C26   C     C_R   0.033683 0.228867 0.496242 0.394487
C27   C     C_3   0.919637 0.108638 0.281477 0.176646
C28   C     C_3   0.876379 0.987130 0.258467 -0.662301
C29   C     C_3   0.040355 0.865440 0.220136 0.188280
C30   C     C_3   0.072096 0.993126 0.152524 -0.713213
C31   C     C_3   0.951391 0.865055 0.755819 0.175072
C32   C     C_3   0.921719 0.996565 0.823174 -0.708459
C33   C     C_3   0.084180 0.102854 0.694683 0.173066
C34   C     C_1   0.499994 0.935488 0.499795 -0.176637
C35   C     C_3   0.126028 0.977571 0.723434 -0.670500
C36   C     C_R   0.235438 0.497571 0.613672 -0.134618
C37   C     C_R   0.762300 0.499859 0.681530 -0.105261
C38   C     C_R   0.238012 0.514585 0.315910 -0.103681
C39   C     C_R   0.763716 0.453526 0.387831 -0.129994
C40   C     C_R   0.207176 0.505739 0.458348 0.316433
H1    H     H_    0.211131 0.490377 0.723700 0.119861
H2    H     H_    0.895864 0.211922 0.259326 0.108941
H3    H     H_    0.846620 0.987255 0.361094 0.314941
H4    H     H_    0.850654 0.002484 0.141375 0.168856
H5    H     H_    0.898639 0.881066 0.255674 0.229151
H6    H     H_    0.995413 0.867243 0.169256 0.083470
H7    H     H_    0.061622 0.765807 0.175529 0.107133
H8    H     H_    0.117737 0.990066 0.197287 0.297036
H9    H     H_    0.069729 0.986703 0.017267 0.148435
H10   H     H_    0.052430 0.096477 0.189700 0.242535
H11   H     H_    0.997658 0.867971 0.794926 0.086779
H12   H     H_    0.784871 0.516023 0.799374 0.126195
H13   H     H_    0.931835 0.767833 0.810808 0.110514
H14   H     H_    0.875596 0.997170 0.783339 0.298136
H15   H     H_    0.925579 0.991554 0.958227 0.148837
H16   H     H_    0.942098 0.097046 0.781405 0.247793
H17   H     H_    0.047274 0.090608 0.774485 0.089965
H18   H     H_    0.107174 0.203554 0.731068 0.116650
H19   H     H_    0.159735 0.981333 0.631585 0.308871
H20   H     H_    0.147322 0.984976 0.847988 0.169355
H21   H     H_    0.103028 0.873432 0.712801 0.238282
H22   H     H_    0.215885 0.520494 0.195965 0.124718
H23   H     H_    0.787540 0.433884 0.278757 0.120198
H24   H     H_    0.316215 0.489708 0.747927 0.160829
H25   H     H_    0.679999 0.530388 0.779507 0.162271
H26   H     H_    0.320796 0.519769 0.216638 0.162502
H27   H     H_    0.682603 0.448680 0.255485 0.161139
H28   H     H_    0.952383 0.101290 0.187837 0.089113
N1    N     N_R   0.853491 0.475323 0.549065 -0.356296
N2    N     N_R   0.146358 0.499914 0.446589 -0.357026
N3    N     N_1   0.500000 0.500000 0.073640 -0.039456
N4    N     N_1   0.500000 0.500000 0.926360 -0.039375
O1    O     O_R   0.500000 0.285350 0.636850 -0.612280
O2    O     O_2   0.152757 0.247916 0.440640 -0.526489
O3    O     O_2   0.855586 0.223032 0.557656 -0.538369
O4    O     O_2   0.143070 0.752026 0.429636 -0.533889
O5    O     O_3   0.946660 0.097621 0.440610 -0.483931
O6    O     O_3   0.041702 0.874539 0.393763 -0.477192
O7    O     O_3   0.944058 0.866276 0.582629 -0.481770
O8    O     O_3   0.064681 0.104301 0.527514 -0.483398
O9    O     O_R   0.500000 0.714650 0.363150 -0.612305
O10   O     O_R   0.500000 0.714650 0.636850 -0.612808
O11   O     O_R   0.500000 0.285350 0.363150 -0.612808
O12   O     O_R   0.416160 0.500000 0.636910 -0.622130
O13   O     O_R   0.583840 0.500000 0.363090 -0.621877
O14   O     O_R   0.583840 0.500000 0.636910 -0.625521
O15   O     O_R   0.416160 0.500000 0.363090 -0.625790
O16   O     O_2   0.848508 0.727771 0.555915 -0.529740
Zn1   Zn    Zn3+2 0.500000 0.500000 0.682780 0.998988
Zn2   Zn    Zn3+2 0.500000 0.500000 0.317220 0.998880

loop_
_geom_bond_atom_site_label_1
_geom_bond_atom_site_label_2
_ccdc_geom_bond_type
C11   C18   A    
C33   H18   S    
C27   H2    S    
O10   Zn1   S    
C40   N2    S    
C29   H7    S    
C30   H8    S    
C19   C21   A    
C4    O14   A    
C13   N2    A    
C5    C36   A    
C35   H19   S    
C15   N2    A    
C19   C26   A    
C27   H28   S    
C2    C39   A    
C6    H25   S    
C29   O6    S    
C16   C22   A    
C8    C39   A    
C2    N1    S    
C32   H15   S    
C15   O4    S    
C30   H10   S    
C36   H1    S    
C18   C25   A    
C32   H14   S    
C28   H5    S    
C17   C24   A    
C13   C19   A    
C3    O15   A    
C36   C40   A    
C24   C25   A    
C37   H12   S    
C4    O13   A    
C28   H4    S    
C26   O8    S    
C5    H24   S    
C35   H20   S    
C5    C9    A    
C29   C30   S    
C3    C9    S    
C31   C32   S    
C11   O16   S    
C16   C20   A    
C23   C34   T    
C6    C37   A    
C12   O10   A    
C35   H21   S    
C31   H13   S    
O9    Zn2   S    
C24   O6    S    
C30   H9    S    
C1    C23   S    
C14   N1    A    
C14   C16   A    
O12   Zn1   S    
C4    C10   S    
C27   C28   S    
C15   C17   A    
O11   Zn2   S    
C33   H17   S    
C25   O7    S    
C22   O5    S    
C31   H11   S    
C27   O5    S    
O14   Zn1   S    
C6    C10   A    
O13   Zn2   S    
C11   N1    A    
C33   O8    S    
C31   O7    S    
C1    O11   A    
C39   H23   S    
C28   H3    S    
C29   H6    S    
C1    O1    A    
C14   O3    S    
O1    Zn1   S    
N3    N4    T    
C7    H26   S    
C38   C40   A    
N4    Zn1   S    
C2    C37   A    
N3    Zn2   S    
C33   C35   S    
C7    C38   A    
C12   O9    A    
C18   C20   A    
C17   C21   A    
C7    C9    A    
C20   C21   A    
C8    H27   S    
C8    C10   A    
C22   C26   A    
O15   Zn2   S    
C3    O12   A    
C12   C34   S    
C32   H16   S    
C13   O2    S    
C38   H22   S    
