data_mof_unit_23781.cif
_audit_creation_date              2012-10-26T18:51:46-0400
_audit_creation_method            fapswitch 2.2
_symmetry_space_group_name_H-M    P1
_symmetry_Int_Tables_number       1
_space_group_crystal_system       triclinic
_cell_length_a                    11.680383
_cell_length_b                    14.740397
_cell_length_c                    14.568732
_cell_angle_alpha                 64.471777
_cell_angle_beta                  103.369247
_cell_angle_gamma                 102.881989
_cell_volume                      2180.30219905

loop_
_atom_site_label
_atom_site_type_symbol
_atom_type_description
_atom_site_fract_x
_atom_site_fract_y
_atom_site_fract_z
_atom_type_partial_charge
C1    C     C_R   0.481887 0.120203 0.311244 0.564718
C2    C     C_R   0.458213 0.601379 0.097767 0.221810
C3    C     C_R   0.726823 0.297631 0.642951 -0.029507
C4    C     C_R   0.267817 0.690964 0.374081 0.031895
C5    C     C_R   0.675998 0.206133 0.630458 0.353339
C6    C     C_R   0.315278 0.783949 0.381266 0.345185
C7    C     C_R   0.512430 0.283600 0.515357 0.081922
C8    C     C_R   0.492382 0.719155 0.482294 0.087895
C9    C     C_R   0.548724 0.371551 0.537545 -0.043022
C10   C     C_R   0.454720 0.626160 0.468359 -0.029188
C11   C     C_R   0.665643 0.383894 0.589054 -0.004824
C12   C     C_R   0.520335 0.879832 0.688558 0.574026
C13   C     C_R   0.334690 0.608843 0.424039 -0.007083
C14   C     C_R   0.475695 0.449447 0.504730 -0.018744
C15   C     C_R   0.528581 0.547727 0.502878 -0.010112
C16   C     C_R   0.284205 0.000095 0.500079 0.539895
C17   C     C_R   0.715816 0.999837 0.500037 0.554222
C18   C     C_R   0.653956 0.565144 0.531374 0.229654
C19   C     C_R   0.350481 0.429366 0.479980 0.226914
C20   C     C_R   0.721388 0.483152 0.576587 0.246551
C21   C     C_R   0.280721 0.508667 0.439604 0.237129
C22   C     C_1   0.162594 0.000218 0.500261 -0.000088
C23   C     C_R   0.418341 0.321031 0.990943 -0.015664
C24   C     C_1   0.837472 0.999594 0.500096 -0.002412
C25   C     C_1   0.060009 0.000038 0.500294 -0.030600
C26   C     C_1   0.940086 0.999718 0.500206 -0.032050
C27   C     C_R   0.466637 0.188590 0.200878 0.021347
C28   C     C_R   0.521604 0.810994 0.797806 0.020965
C29   C     C_R   0.406458 0.213941 0.020852 -0.016269
C30   C     C_R   0.501899 0.779979 0.971408 -0.014156
C31   C     C_R   0.421581 0.149630 0.125565 -0.212028
C32   C     C_R   0.514880 0.847126 0.870272 -0.211516
C33   C     C_R   0.497174 0.293631 0.170325 0.290351
C34   C     C_R   0.480815 0.673096 0.998364 0.013830
C35   C     C_R   0.521348 0.707052 0.828305 0.234650
C36   C     C_R   0.454067 0.359332 0.069261 -0.022272
C37   C     C_R   0.481654 0.637183 0.922061 -0.060980
C38   C     C_R   0.380366 0.164934 0.947088 0.108660
C39   C     C_R   0.468449 0.172905 0.891611 -0.040161
C40   C     C_R   0.444833 0.125075 0.823295 -0.092747
C41   C     C_R   0.333738 0.068482 0.810549 -0.088237
C42   C     C_R   0.246164 0.059369 0.866392 -0.124770
C43   C     C_R   0.269411 0.107035 0.934879 -0.090380
C44   C     C_R   0.508909 0.825189 0.045345 0.105307
C45   C     C_R   0.450251 0.462662 0.045041 -0.024737
C46   C     C_R   0.617536 0.838426 0.107037 -0.059505
C47   C     C_R   0.622756 0.874238 0.182614 -0.095445
C48   C     C_R   0.519823 0.896905 0.196635 -0.105114
C49   C     C_R   0.411648 0.884850 0.134466 -0.118091
C50   C     C_R   0.406160 0.849665 0.058432 -0.046608
C51   C     C_R   0.840980 0.300738 0.713001 0.072013
C52   C     C_R   0.845186 0.316504 0.802244 -0.062239
C53   C     C_R   0.952161 0.316933 0.869454 -0.107360
C54   C     C_R   0.055224 0.301370 0.848193 -0.082179
C55   C     C_R   0.051675 0.285839 0.759376 -0.092481
C56   C     C_R   0.447223 0.532378 0.942377 -0.083970
C57   C     C_R   0.945051 0.285658 0.691808 -0.064529
C58   C     C_R   0.151628 0.684910 0.307136 0.121795
C59   C     C_R   0.047329 0.693920 0.333270 -0.008435
C60   C     C_R   0.938411 0.688852 0.269591 -0.107854
C61   C     C_R   0.932961 0.675039 0.179491 -0.101856
C62   C     C_R   0.036408 0.666152 0.152983 -0.107492
C63   C     C_R   0.145495 0.671013 0.216509 -0.071354
C64   C     C_R   0.402568 0.495042 0.863565 0.238286
C65   C     C_R   0.438060 0.496393 0.119298 0.245414
C66   C     C_R   0.391520 0.390139 0.887276 0.266434
Cu1   Cu    Cu3+1 0.469550 0.918260 0.475690 0.982605
Cu2   Cu    Cu3+1 0.530450 0.081740 0.524310 1.039368
H1    H     H_    0.521085 0.928053 0.848554 0.136317
H2    H     H_    0.619669 0.395891 0.198218 0.319921
H3    H     H_    0.554985 0.216283 0.901175 0.096847
H4    H     H_    0.512736 0.131607 0.780501 0.118461
H5    H     H_    0.315735 0.031354 0.757755 0.124708
H6    H     H_    0.160364 0.015144 0.856812 0.111374
H7    H     H_    0.201101 0.099269 0.977982 0.103043
H8    H     H_    0.697228 0.819107 0.097886 0.098413
H9    H     H_    0.706238 0.883394 0.231013 0.124999
H10   H     H_    0.524215 0.923447 0.255940 0.149943
H11   H     H_    0.331704 0.901848 0.145504 0.106139
H12   H     H_    0.402849 0.068474 0.147926 0.119417
H13   H     H_    0.321754 0.839072 0.011648 0.102216
H14   H     H_    0.325349 0.612260 0.768858 0.343460
H15   H     H_    0.351228 0.458815 0.232934 0.330080
H16   H     H_    0.873580 0.565704 0.545041 0.338864
H17   H     H_    0.133149 0.421998 0.480056 0.344711
H18   H     H_    0.297840 0.922849 0.297007 0.342871
H19   H     H_    0.775736 0.118982 0.748856 0.293110
H20   H     H_    0.765615 0.327804 0.819857 0.100275
H21   H     H_    0.955053 0.328856 0.938291 0.111708
H22   H     H_    0.137614 0.301028 0.900751 0.146595
H23   H     H_    0.571478 0.729290 0.533989 0.216669
H24   H     H_    0.131290 0.273482 0.742983 0.171848
H25   H     H_    0.943251 0.273350 0.623327 0.133125
H26   H     H_    0.050483 0.704342 0.403058 0.137436
H27   H     H_    0.858247 0.695639 0.290073 0.126097
H28   H     H_    0.848592 0.671236 0.130234 0.111835
H29   H     H_    0.032082 0.655557 0.083155 0.112158
H30   H     H_    0.225114 0.664284 0.195115 0.139199
H31   H     H_    0.436866 0.278943 0.457993 0.204481
H32   H     H_    0.349213 0.410213 0.741870 0.377893
H33   H     H_    0.487130 0.582177 0.241540 0.334335
H34   H     H_    0.777106 0.662781 0.565556 0.337082
H35   H     H_    0.227157 0.329964 0.448756 0.335859
H36   H     H_    0.599190 0.612852 0.811640 0.329313
N1    N     N_R   0.576230 0.204580 0.560790 -0.221565
N2    N     N_R   0.423770 0.795420 0.439210 -0.263015
O1    O     O_R   0.459870 0.022090 0.338120 -0.563721
O2    O     O_3   0.458282 0.633872 0.173673 -0.726558
O3    O     O_3   0.711454 0.663065 0.508489 -0.745270
O4    O     O_3   0.295645 0.330490 0.503471 -0.730343
O5    O     O_3   0.565289 0.676620 0.767245 -0.660514
O6    O     O_3   0.575052 0.329938 0.238230 -0.642281
O7    O     O_3   0.357146 0.557210 0.765065 -0.673174
O8    O     O_3   0.395417 0.425753 0.208289 -0.676180
O9    O     O_3   0.843863 0.500600 0.598597 -0.697502
O10   O     O_3   0.158042 0.487756 0.424823 -0.709473
O11   O     O_3   0.246265 0.860883 0.333452 -0.704711
O12   O     O_R   0.540130 0.977910 0.661880 -0.476913
O13   O     O_3   0.726831 0.117975 0.683992 -0.662886
O14   O     O_R   0.511290 0.160150 0.379180 -0.429290
O15   O     O_R   0.488710 0.839850 0.620820 -0.443228
O16   O     O_R   0.311490 0.930960 0.479480 -0.454805
O17   O     O_R   0.688510 0.069040 0.520520 -0.435595
O18   O     O_R   0.362910 0.069020 0.520540 -0.511916
O19   O     O_R   0.637090 0.930980 0.479460 -0.511786
O20   O     O_3   0.350040 0.353747 0.810780 -0.710198

loop_
_geom_bond_atom_site_label_1
_geom_bond_atom_site_label_2
_ccdc_geom_bond_type
C15   C18   A    
C30   C32   A    
C34   C37   A    
C65   O8    S    
C18   O3    S    
C2    C65   A    
Cu1   O1    S    
Cu2   O18   S    
C46   H8    S    
C61   H28   S    
C31   H12   S    
C5    N1    A    
C53   C54   A    
C27   C33   A    
C62   C63   A    
C7    H31   S    
C5    O13   S    
H35   O4    S    
H32   O20   S    
C23   C29   A    
C23   C66   A    
C35   C37   A    
C24   C26   T    
C54   H22   S    
C63   H30   S    
C10   C15   A    
Cu1   O19   S    
C38   C39   A    
C33   C36   A    
C41   C42   A    
C48   H10   S    
C4    C13   A    
C16   O16   A    
Cu2   O12   S    
C46   C47   A    
C37   C56   A    
C17   O17   A    
C12   O15   A    
C28   C35   A    
C22   C25   T    
C29   C38   S    
C7    N1    A    
C51   C57   A    
C59   H26   S    
C6    O11   S    
C2    C34   A    
H33   O2    S    
C59   C60   A    
C57   H25   S    
H15   O8    S    
C30   C44   S    
C21   O10   S    
Cu1   O15   S    
Cu2   O17   S    
C44   C46   A    
C43   H7    S    
C11   C20   A    
C42   H6    S    
C17   C24   S    
C30   C34   A    
C27   C31   A    
Cu1   Cu2   S    
C28   C32   A    
C45   C56   A    
C4    C6    A    
C39   C40   A    
C33   O6    S    
C3    C51   S    
C25   C26   S    
C51   C52   A    
C60   C61   A    
C1    O14   A    
C64   C66   A    
C9    C14   A    
H19   O13   S    
C55   H24   S    
H36   O5    S    
C62   H29   S    
C47   C48   A    
C52   H20   S    
C56   C64   A    
C6    N2    A    
C13   C21   A    
C36   C45   A    
C8    H23   S    
C9    C11   A    
H2    O6    S    
C1    O1    A    
C12   O12   A    
C40   C41   A    
C12   C28   S    
C23   C36   A    
H16   O9    S    
C55   C57   A    
C53   H21   S    
C42   C43   A    
C47   H9    S    
Cu1   O16   S    
C49   H11   S    
C35   O5    S    
C52   C53   A    
C19   O4    S    
C44   C50   A    
C58   C63   A    
C7    C9    A    
C54   C55   A    
C48   C49   A    
C16   C22   S    
C64   O7    S    
C40   H4    S    
C19   C21   A    
C14   C19   A    
H17   O10   S    
H14   O7    S    
C3    C5    A    
C10   C13   A    
C8    N2    A    
C20   O9    S    
Cu1   N2    S    
C32   H1    S    
C58   C59   A    
C38   C43   A    
C29   C31   A    
Cu2   O14   S    
C45   C65   A    
C17   O19   A    
C2    O2    S    
H18   O11   S    
C18   C20   A    
C16   O18   A    
C61   C62   A    
C3    C11   A    
C41   H5    S    
C60   H27   S    
C66   O20   S    
C8    C10   A    
C49   C50   A    
Cu2   N1    S    
C4    C58   S    
C1    C27   S    
C39   H3    S    
C14   C15   A    
H34   O3    S    
C50   H13   S    
