data_mof_unit_60613.cif
_audit_creation_date              2012-12-10T20:16:51-0500
_audit_creation_method            fapswitch 2.2
_symmetry_space_group_name_H-M    P1
_symmetry_Int_Tables_number       1
_space_group_crystal_system       triclinic
_cell_length_a                    19.147168
_cell_length_b                    18.504092
_cell_length_c                    19.042606
_cell_angle_alpha                 90.190823
_cell_angle_beta                  91.484095
_cell_angle_gamma                 90.357378
_cell_volume                      6744.37800418

loop_
_atom_site_label
_atom_site_type_symbol
_atom_type_description
_atom_site_fract_x
_atom_site_fract_y
_atom_site_fract_z
_atom_type_partial_charge
C1    C     C_R   0.365864 0.499740 0.500143 1.035113
C2    C     C_R   0.634140 0.500063 0.500755 1.033587
C3    C     C_R   0.853271 0.497510 0.526894 -0.024972
C4    C     C_R   0.147981 0.500835 0.525891 -0.020916
C5    C     C_R   0.709124 0.499685 0.509223 -0.214325
C6    C     C_R   0.291263 0.499061 0.508228 -0.227785
C7    C     C_R   0.964234 0.564735 0.535046 -0.144996
C8    C     C_R   0.037467 0.434161 0.537436 -0.143802
C9    C     C_R   0.036641 0.565647 0.534477 -0.146163
C10   C     C_R   0.965061 0.433245 0.537635 -0.145232
C11   C     C_R   0.072946 0.500317 0.534405 0.188905
C12   C     C_R   0.928710 0.498507 0.535171 0.189972
C13   C     C_R   0.547277 0.727649 0.541167 0.498842
C14   C     C_R   0.450398 0.271711 0.462279 0.469820
C15   C     C_R   0.453547 0.726460 0.457655 0.463721
C16   C     C_R   0.549403 0.273875 0.539342 0.491131
C17   C     C_R   0.547552 0.803566 0.541927 -0.197008
C18   C     C_R   0.450683 0.195799 0.461728 -0.200543
C19   C     C_R   0.452443 0.802457 0.457460 -0.203053
C20   C     C_R   0.550818 0.197876 0.539898 -0.195766
C21   C     C_R   0.499658 0.841928 0.500063 0.115365
C22   C     C_R   0.501313 0.157989 0.500552 0.116284
C23   C     C_R   0.519211 0.961760 0.439764 0.313710
C24   C     C_R   0.482462 0.038317 0.561107 0.313866
C25   C     C_R   0.481567 0.961932 0.560811 0.309568
C26   C     C_R   0.519870 0.038138 0.440027 0.313810
C27   C     C_R   0.501556 0.077028 0.500700 -0.193837
C28   C     C_R   0.499904 0.922970 0.500117 -0.191739
C29   C     C_R   0.501722 0.500122 0.365166 1.008943
C30   C     C_R   0.499108 0.499935 0.635547 1.010341
C31   C     C_R   0.567183 0.546457 0.263082 0.391953
C32   C     C_R   0.508297 0.431870 0.749467 0.411897
C33   C     C_R   0.515144 0.563588 0.752410 0.407552
C34   C     C_R   0.479127 0.451952 0.244795 0.372887
C35   C     C_R   0.584018 0.541650 0.192562 -0.147169
C36   C     C_R   0.529132 0.430200 0.819717 -0.170158
C37   C     C_R   0.535881 0.560469 0.822903 -0.159008
C38   C     C_R   0.497728 0.446613 0.175123 -0.164437
C39   C     C_R   0.550190 0.491067 0.148820 -0.064019
C40   C     C_R   0.544312 0.493981 0.856554 -0.067803
C41   C     C_R   0.514928 0.500538 0.290021 -0.223924
C42   C     C_R   0.505409 0.498804 0.713152 -0.216603
C43   C     C_R   0.559283 0.491078 0.932246 0.353590
C44   C     C_R   0.563260 0.489225 0.073947 0.346850
C45   C     C_R   0.750276 0.481249 0.452083 0.309128
C46   C     C_R   0.247097 0.516094 0.450879 0.330244
C47   C     C_R   0.264276 0.482018 0.574139 0.293289
C48   C     C_R   0.739433 0.514064 0.575886 0.335996
C49   C     C_R   0.822968 0.480600 0.460855 0.020884
C50   C     C_R   0.174868 0.517236 0.459808 0.006195
C51   C     C_R   0.192074 0.482842 0.582979 0.023221
C52   C     C_R   0.812126 0.513806 0.584549 0.013293
H1    H     H_    0.623827 0.577047 0.171996 0.200756
H2    H     H_    0.531778 0.378398 0.845971 0.209097
H3    H     H_    0.543202 0.610502 0.851946 0.207250
H4    H     H_    0.468908 0.409678 0.140716 0.204587
H5    H     H_    0.935817 0.615164 0.532826 0.163739
H6    H     H_    0.065773 0.383647 0.537094 0.164552
H7    H     H_    0.064331 0.616780 0.531991 0.162806
H8    H     H_    0.937278 0.382054 0.537492 0.163593
H9    H     H_    0.585510 0.832563 0.574655 0.209353
H10   H     H_    0.410965 0.166345 0.431628 0.209554
H11   H     H_    0.415138 0.830586 0.423860 0.210802
H12   H     H_    0.590271 0.170056 0.571165 0.207782
N1    N     N_R   0.550796 0.427627 0.037043 -0.136765
N2    N     N_R   0.574882 0.552139 0.969228 -0.141898
N3    N     N_R   0.549088 0.428516 0.967434 -0.144274
N4    N     N_R   0.576907 0.551226 0.039020 -0.136498
N5    N     N_R   0.500000 0.689440 0.500000 -0.170344
N6    N     N_R   0.500000 0.310560 0.500000 -0.170804
O1    O     O_R   0.398180 0.560840 0.499980 -0.585200
O2    O     O_R   0.601820 0.439160 0.500020 -0.580070
O3    O     O_R   0.601820 0.560840 0.500020 -0.562843
O4    O     O_R   0.398180 0.439160 0.499980 -0.558115
O5    O     O_R   0.499990 0.560830 0.398130 -0.556003
O6    O     O_R   0.500010 0.439170 0.601870 -0.548867
O7    O     O_R   0.500010 0.560830 0.601870 -0.557157
O8    O     O_R   0.499990 0.439170 0.398130 -0.576102
Zn1   Zn    Zn3+2 0.500000 0.581210 0.500000 1.137020
Zn2   Zn    Zn3+2 0.500000 0.418790 0.500000 1.136405
Cl1   Cl    Cl    0.614548 0.609579 0.315485 -0.485607
Cl2   Cl    Cl    0.481840 0.347905 0.712794 -0.431622
Cl3   Cl    Cl    0.497140 0.650459 0.719074 -0.452262
Cl4   Cl    Cl    0.406621 0.401261 0.271111 -0.424520
Cl5   Cl    Cl    0.711179 0.458251 0.369795 -0.570731
Cl6   Cl    Cl    0.281727 0.533456 0.367370 -0.477389
Cl7   Cl    Cl    0.320539 0.460750 0.646192 -0.575730
Cl8   Cl    Cl    0.686795 0.528275 0.649605 -0.549186
N7    N     N_3   0.866779 0.463631 0.403121 -0.416989
H13   H     H_    0.853865 0.411744 0.384966 0.243464
H14   H     H_    0.856446 0.500434 0.362690 0.248700
N8    N     N_3   0.128065 0.533683 0.402063 -0.417094
H15   H     H_    0.140566 0.585080 0.383332 0.242783
H16   H     H_    0.135738 0.496042 0.361985 0.250883
N9    N     N_3   0.162759 0.466251 0.649664 -0.417324
H17   H     H_    0.178092 0.414119 0.664036 0.247416
H18   H     H_    0.183125 0.502725 0.687022 0.247714
N10   N     N_3   0.844913 0.529023 0.651633 -0.416844
H19   H     H_    0.829425 0.580379 0.667882 0.246101
H20   H     H_    0.827330 0.491077 0.687796 0.247345
Cl9   Cl    Cl    0.610897 0.684110 0.592925 -0.443433
Cl10  Cl    Cl    0.382826 0.314063 0.415131 -0.440531
Cl11  Cl    Cl    0.395128 0.680954 0.400407 -0.459361
Cl12  Cl    Cl    0.611811 0.319456 0.592350 -0.484267
Cl13  Cl    Cl    0.545140 0.914692 0.363907 -0.427404
Cl14  Cl    Cl    0.457312 0.085632 0.637101 -0.414389
Cl15  Cl    Cl    0.455005 0.915046 0.636435 -0.422400
Cl16  Cl    Cl    0.545740 0.085243 0.364285 -0.436383

loop_
_geom_bond_atom_site_label_1
_geom_bond_atom_site_label_2
_ccdc_geom_bond_type
N2    N4    A    
C35   H1    S    
C14   C18   A    
C10   H8    S    
N9    H17   S    
C24   C27   A    
O1    Zn1   S    
C3    C49   A    
C25   C28   A    
C15   C19   A    
C26   C27   A    
C1    O1    A    
C33   C42   A    
C32   C36   A    
C19   C21   A    
C37   C40   A    
C8    C11   A    
C38   C39   A    
O8    Zn2   S    
C14   Cl10  S    
C23   Cl13  S    
C23   C26   A    
C3    C12   S    
C17   H9    S    
C30   O7    A    
C16   Cl12  S    
C40   C43   S    
C29   O8    A    
C19   H11   S    
N1    N3    A    
C48   Cl8   S    
N7    H14   S    
C6    C46   A    
C8    H6    S    
C36   H2    S    
C18   C22   A    
C14   N6    A    
C44   N1    A    
C34   C41   A    
C34   Cl4   S    
C2    O2    A    
O7    Zn1   S    
C7    C12   A    
C15   N5    A    
C5    C48   A    
C6    C47   A    
C4    C51   A    
N6    Zn2   S    
C1    C6    S    
C36   C40   A    
C16   N6    A    
C24   C25   A    
C26   Cl16  S    
C18   H10   S    
C47   C51   A    
C5    C45   A    
C33   C37   A    
C4    C50   A    
C9    H7    S    
C47   Cl7   S    
C20   H12   S    
C45   Cl5   S    
C30   O6    A    
C45   C49   A    
C16   C20   A    
N8    H16   S    
O3    Zn1   S    
C23   C28   A    
C4    C11   S    
C33   Cl3   S    
C2    O3    A    
C10   C12   A    
C50   N8    S    
C21   C28   S    
C20   C22   A    
N10   H20   S    
C22   C27   S    
C9    C11   A    
C31   C35   A    
C44   N4    A    
C2    C5    S    
C24   Cl14  S    
C1    O4    A    
C13   Cl9   S    
C25   Cl15  S    
C7    C9    A    
C31   C41   A    
C29   C41   S    
C34   C38   A    
C8    C10   A    
O6    Zn2   S    
C49   N7    S    
C3    C52   A    
N9    H18   S    
C39   C44   S    
C29   O5    A    
C32   Cl2   S    
C46   C50   A    
C31   Cl1   S    
C13   C17   A    
O2    Zn2   S    
C13   N5    A    
C43   N2    A    
C35   C39   A    
C52   N10   S    
N8    H15   S    
C17   C21   A    
N5    Zn1   S    
C37   H3    S    
C48   C52   A    
C38   H4    S    
C43   N3    A    
N10   H19   S    
C32   C42   A    
C30   C42   S    
O4    Zn2   S    
C15   Cl11  S    
N7    H13   S    
O5    Zn1   S    
C7    H5    S    
C51   N9    S    
C46   Cl6   S    
