data_mof_unit_52700.cif
_audit_creation_date              2012-12-10T16:56:34-0500
_audit_creation_method            fapswitch 2.2
_symmetry_space_group_name_H-M    P1
_symmetry_Int_Tables_number       1
_space_group_crystal_system       triclinic
_cell_length_a                    7.953172
_cell_length_b                    8.627711
_cell_length_c                    15.676234
_cell_angle_alpha                 91.788076
_cell_angle_beta                  85.748175
_cell_angle_gamma                 95.335499
_cell_volume                      1067.73835851

loop_
_atom_site_label
_atom_site_type_symbol
_atom_type_description
_atom_site_fract_x
_atom_site_fract_y
_atom_site_fract_z
_atom_type_partial_charge
C1    C     C_R   0.546229 0.794229 0.497801 0.943057
C2    C     C_3   0.369522 0.378905 0.032734 0.369296
C3    C     C_1   0.504513 0.490912 0.749840 -0.143631
C4    C     C_1   0.491110 0.503478 0.249728 -0.146380
C5    C     C_3   0.325864 0.511508 0.977051 0.369199
C6    C     C_3   0.635918 0.470807 0.023048 0.315648
C7    C     C_3   0.483953 0.482183 0.916872 -0.185378
C8    C     C_3   0.480358 0.500392 0.082937 -0.149715
C9    C     C_1   0.499878 0.484703 0.825225 0.090883
C10   C     C_1   0.483561 0.504163 0.174539 0.134378
C11   C     C_3   0.834259 0.782946 0.960050 0.144571
C12   C     C_R   0.453776 0.205771 0.502203 0.938919
C13   C     C_3   0.959739 0.862835 0.893220 -0.760569
C14   C     C_3   0.180646 0.153457 0.035939 0.154355
C15   C     C_3   0.085443 0.034630 0.097466 -0.776806
C16   C     C_3   0.795836 0.329129 0.102969 0.122052
C17   C     C_3   0.905239 0.367888 0.177596 -0.676923
C18   C     C_3   0.134416 0.454656 0.872504 0.072841
C19   C     C_3   0.949238 0.409349 0.861948 -0.747492
C20   C     C_R   0.501694 0.498717 0.661239 0.884100
C21   C     C_R   0.498019 0.500964 0.338607 0.877737
C22   C     C_2   0.568924 0.959271 0.496660 -0.335760
C23   C     C_2   0.431080 0.040731 0.503342 -0.336132
C24   C     C_3   0.436565 0.634263 0.028152 0.039938
C25   C     C_3   0.527713 0.347311 0.972329 -0.088444
C26   C     C_3   0.592764 0.603034 0.968022 0.409640
H1    H     H_    0.698189 0.013100 0.490389 0.202256
H2    H     H_    0.952377 0.055388 0.113412 0.207290
H3    H     H_    0.083471 0.915698 0.068773 0.230278
H4    H     H_    0.147563 0.035884 0.158659 0.303516
H5    H     H_    0.846647 0.239855 0.059711 0.170286
H6    H     H_    0.669445 0.278258 0.129229 0.156466
H7    H     H_    0.844483 0.451116 0.222574 0.245928
H8    H     H_    0.920387 0.260734 0.212246 0.224265
H9    H     H_    0.030995 0.423426 0.154678 0.307198
H10   H     H_    0.196947 0.344250 0.863513 0.137693
H11   H     H_    0.180397 0.537587 0.821309 0.180054
H12   H     H_    0.301812 0.986900 0.509617 0.202381
H13   H     H_    0.879001 0.513355 0.860808 0.287765
H14   H     H_    0.934092 0.343155 0.800665 0.225475
H15   H     H_    0.898638 0.334409 0.915163 0.281580
H16   H     H_    0.901847 0.695050 0.989846 0.236813
H17   H     H_    0.795212 0.869926 0.009448 0.176816
H18   H     H_    0.910066 0.968491 0.870079 0.269825
H19   H     H_    0.082805 0.896591 0.920448 0.213202
H20   H     H_    0.982899 0.782547 0.837757 0.272854
H21   H     H_    0.275626 0.092142 0.996845 0.196435
H22   H     H_    0.093082 0.196108 0.992210 0.143602
I1    I     I_    0.432025 0.851801 0.094785 -0.398104
I2    I     I_    0.592667 0.133979 0.909359 -0.432472
I3    I     I_    0.032304 0.283283 0.395250 -0.253629
I4    I     I_    0.967476 0.710950 0.608872 -0.233465
N1    N     N_2   0.950320 0.457950 0.477300 0.022681
N2    N     N_2   0.049680 0.542050 0.522700 0.022090
O1    O     O_R   0.389250 0.738570 0.505570 -0.603698
O2    O     O_3   0.257901 0.276922 0.084095 -0.597041
O3    O     O_3   0.794988 0.463769 0.055087 -0.608077
O4    O     O_3   0.159406 0.527304 0.953529 -0.577411
O5    O     O_R   0.610750 0.261430 0.494430 -0.604150
O6    O     O_R   0.678390 0.711630 0.491020 -0.600191
O7    O     O_R   0.321610 0.288370 0.508980 -0.601059
O8    O     O_R   0.355460 0.513480 0.630490 -0.615836
O9    O     O_R   0.644540 0.486520 0.369510 -0.616295
O10   O     O_R   0.644600 0.486540 0.615950 -0.591156
O11   O     O_R   0.355400 0.513460 0.384050 -0.588149
O12   O     O_3   0.692508 0.717255 0.918679 -0.581080
Zn1   Zn    Zn3+2 0.306940 0.517990 0.509710 1.033767
Zn2   Zn    Zn3+2 0.693060 0.482010 0.490290 1.031912

loop_
_geom_bond_atom_site_label_1
_geom_bond_atom_site_label_2
_ccdc_geom_bond_type
C20   O10   A    
O1    Zn1   S    
C11   H17   S    
C14   H21   S    
C3    C9    T    
O5    Zn2   S    
C16   H6    S    
C23   H12   S    
O7    Zn1   S    
C14   O2    S    
C7    C25   S    
C11   O12   S    
C22   H1    S    
C5    C24   S    
C1    O1    A    
C1    C22   S    
C2    O2    S    
N1    N2    D    
C16   H5    S    
C13   H19   S    
C4    C21   S    
C11   C13   S    
C12   C23   S    
C5    O4    S    
C15   H2    S    
C6    C26   S    
C7    C26   S    
C17   H7    S    
O8    Zn1   S    
C15   H4    S    
C19   H13   S    
C8    C24   S    
C18   H11   S    
C24   C26   S    
C15   H3    S    
C2    C25   S    
C5    C7    S    
C16   O3    S    
C22   C23   D    
C20   O8    A    
C13   H20   S    
C21   O9    A    
C6    C25   S    
C6    O3    S    
C17   H8    S    
I3    N1    S    
C4    C10   T    
C2    C5    S    
O10   Zn2   S    
C3    C20   S    
C12   O7    A    
O6    Zn2   S    
C11   H16   S    
C8    C10   S    
C18   C19   S    
C19   H14   S    
C1    O6    A    
C24   I1    S    
C7    C9    S    
N1    Zn2   S    
C14   H22   S    
O9    Zn2   S    
C6    C8    S    
N2    Zn1   S    
C17   H9    S    
C21   O11   A    
C14   C15   S    
C12   O5    A    
C18   H10   S    
C25   I2    S    
C18   O4    S    
C13   H18   S    
C2    C8    S    
C19   H15   S    
I4    N2    S    
C16   C17   S    
O11   Zn1   S    
C26   O12   S    
