data_mof_unit_15894.cif
_audit_creation_date              2012-12-11T16:13:56-0500
_audit_creation_method            fapswitch 2.2
_symmetry_space_group_name_H-M    P1
_symmetry_Int_Tables_number       1
_space_group_crystal_system       triclinic
_cell_length_a                    26.092268
_cell_length_b                    7.369965
_cell_length_c                    23.644171
_cell_angle_alpha                 90.00017
_cell_angle_beta                  101.248745
_cell_angle_gamma                 90.000061
_cell_volume                      4459.40769637

loop_
_atom_site_label
_atom_site_type_symbol
_atom_type_description
_atom_site_fract_x
_atom_site_fract_y
_atom_site_fract_z
_atom_type_partial_charge
O1    O     O_R   0.192370 0.384760 0.193350 -0.539471
O2    O     O_R   0.807630 0.615240 0.806650 -0.537327
O3    O     O_R   0.307630 0.884760 0.306650 -0.539474
O4    O     O_R   0.692370 0.115240 0.693350 -0.537330
O5    O     O_R   0.296630 0.711620 0.196480 -0.521356
O6    O     O_R   0.703370 0.288380 0.803520 -0.542481
O7    O     O_R   0.203370 0.211620 0.303520 -0.521356
O8    O     O_R   0.796630 0.788380 0.696480 -0.542480
C1    C     C_R   0.312440 0.545382 0.184806 0.836706
C2    C     C_R   0.687578 0.454166 0.815951 0.798845
C3    C     C_R   0.187560 0.045382 0.315194 0.836712
C4    C     C_R   0.812422 0.954166 0.684049 0.798844
O9    O     O_R   0.192080 0.714290 0.186600 -0.521922
O10   O     O_R   0.807920 0.285710 0.813400 -0.528203
O11   O     O_R   0.307920 0.214290 0.313400 -0.521918
O12   O     O_R   0.692080 0.785710 0.686600 -0.528199
O13   O     O_R   0.202340 0.887460 0.296690 -0.532512
O14   O     O_R   0.797660 0.112540 0.703310 -0.506289
O15   O     O_R   0.297660 0.387460 0.203310 -0.532511
O16   O     O_R   0.702340 0.612540 0.796690 -0.506289
C5    C     C_R   0.173922 0.546042 0.171567 0.721059
C6    C     C_R   0.826097 0.453960 0.828423 0.746058
C7    C     C_R   0.326078 0.046043 0.328433 0.721059
C8    C     C_R   0.673903 0.953960 0.671577 0.746056
O17   O     O_3   0.253490 0.552180 0.286130 -0.384506
O18   O     O_3   0.746510 0.447820 0.713870 -0.388284
O19   O     O_3   0.246510 0.052180 0.213870 -0.384506
O20   O     O_3   0.753490 0.947820 0.786130 -0.388285
V1    V     V_3+5 0.249350 0.825920 0.243300 1.543597
V2    V     V_3+5 0.750650 0.174080 0.756700 1.486035
V3    V     V_3+5 0.250650 0.325920 0.256700 1.543609
V4    V     V_3+5 0.749350 0.674080 0.743300 1.486046
C9    C     C_3   0.542638 0.999951 0.476454 -0.110786
C10   C     C_3   0.457072 0.000126 0.523797 -0.146542
C11   C     C_3   0.957382 0.498436 0.023578 -0.110807
C12   C     C_3   0.042908 0.501639 0.976170 -0.146562
C13   C     C_3   0.501723 0.154887 0.470663 -0.115662
C14   C     C_3   0.497993 0.845185 0.529594 -0.140614
C15   C     C_3   0.998070 0.654154 0.029643 -0.115412
C16   C     C_3   0.002214 0.345917 0.970101 -0.140629
H1    H     H_    0.503025 0.282843 0.446203 0.139022
H2    H     H_    0.496680 0.717213 0.554041 0.118133
H3    H     H_    0.996598 0.781511 0.054354 0.139348
H4    H     H_    0.003697 0.218544 0.945402 0.118153
H5    H     H_    0.578140 0.999725 0.457123 0.146404
H6    H     H_    0.421544 0.000367 0.543087 0.115680
H7    H     H_    0.921898 0.496960 0.042937 0.146420
H8    H     H_    0.078418 0.503129 0.956853 0.115691
H9    H     H_    0.503653 0.258832 0.566028 0.117984
H10   H     H_    0.496056 0.741254 0.434224 0.141214
H11   H     H_    0.995932 0.760272 0.934473 0.117977
H12   H     H_    0.004358 0.239813 0.065275 0.140933
C17   C     C_1   0.371844 0.036809 0.374454 -0.127879
C18   C     C_1   0.628041 0.963200 0.625643 -0.149607
C19   C     C_1   0.128156 0.536807 0.125546 -0.127878
C20   C     C_1   0.871959 0.463203 0.874357 -0.149610
C21   C     C_3   0.497900 0.858285 0.464118 -0.120054
C22   C     C_3   0.501817 0.141793 0.536140 -0.144862
C23   C     C_3   0.002327 0.357498 0.035609 -0.120308
C24   C     C_3   0.997955 0.642579 0.964133 -0.144843
C25   C     C_3   0.457608 0.013057 0.458937 0.149454
C26   C     C_3   0.542115 0.987016 0.541321 0.148535
C27   C     C_3   0.042392 0.513051 0.041063 0.149451
C28   C     C_3   0.957885 0.487020 0.958679 0.148540
C29   C     C_1   0.410380 0.026903 0.412642 -0.025734
C30   C     C_1   0.589415 0.973140 0.587550 -0.039760
C31   C     C_1   0.089620 0.526898 0.087357 -0.025745
C32   C     C_1   0.910584 0.473144 0.912450 -0.039769
C33   C     C_R   0.878959 0.114709 0.633334 0.246375
C34   C     C_R   0.100243 0.950390 0.333896 0.287768
C35   C     C_R   0.621040 0.614709 0.866666 0.246376
C36   C     C_R   0.399756 0.450387 0.166104 0.287760
C37   C     C_R   0.908934 0.107777 0.589716 0.335652
C38   C     C_R   0.065260 0.921617 0.371553 0.351023
C39   C     C_R   0.591065 0.607778 0.910284 0.335652
C40   C     C_R   0.434739 0.421615 0.128446 0.351020
C41   C     C_R   0.926691 0.941407 0.573357 -0.258882
C42   C     C_R   0.079978 0.965808 0.430831 -0.299416
C43   C     C_R   0.573308 0.441407 0.926642 -0.258883
C44   C     C_R   0.420022 0.465808 0.069168 -0.299414
C45   C     C_R   0.902536 0.785339 0.589677 0.412706
C46   C     C_R   0.130645 0.038801 0.451404 0.384460
C47   C     C_R   0.597464 0.285340 0.910323 0.412708
C48   C     C_R   0.369355 0.538803 0.048596 0.384461
C49   C     C_R   0.855990 0.801581 0.611712 0.332691
C50   C     C_R   0.164650 0.073807 0.412963 0.351371
C51   C     C_R   0.644009 0.301582 0.888288 0.332690
C52   C     C_R   0.335350 0.573809 0.087037 0.351370
C53   C     C_R   0.850327 0.958707 0.643742 -0.295939
C54   C     C_R   0.149610 0.029312 0.354151 -0.338048
C55   C     C_R   0.649673 0.458707 0.856258 -0.295939
C56   C     C_R   0.350390 0.529312 0.145849 -0.338050
N1    N     N_R   0.972074 0.801577 0.500494 -0.168365
N2    N     N_R   0.040363 0.079200 0.510853 -0.215457
N3    N     N_R   0.527926 0.301577 0.999505 -0.168365
N4    N     N_R   0.459637 0.579201 0.989147 -0.215455
N5    N     N_R   0.007656 0.808658 0.466836 -0.196501
N6    N     N_R   0.005224 0.071384 0.544731 -0.243573
N7    N     N_R   0.492344 0.308657 0.033163 -0.196501
N8    N     N_R   0.494776 0.571385 0.955269 -0.243571
C57   C     C_R   0.041916 0.949655 0.470466 0.602804
C58   C     C_R   0.969605 0.934744 0.539632 0.597483
C59   C     C_R   0.458083 0.449655 0.029534 0.602802
C60   C     C_R   0.530395 0.434745 0.960367 0.597482
Cl1   Cl    Cl    0.885652 0.304460 0.679230 -0.705103
Cl2   Cl    Cl    0.081127 0.893673 0.260006 -0.546911
Cl3   Cl    Cl    0.614347 0.804458 0.820769 -0.705099
Cl4   Cl    Cl    0.418872 0.393668 0.239993 -0.546887
Cl5   Cl    Cl    0.911298 0.290009 0.542964 -0.496271
Cl6   Cl    Cl    0.001824 0.840140 0.342354 -0.420873
Cl7   Cl    Cl    0.588702 0.790010 0.957035 -0.496271
Cl8   Cl    Cl    0.498175 0.340134 0.157645 -0.420871
O21   O     O_3   0.927007 0.620830 0.590595 -0.496129
C61   C     C_3   0.967919 0.613609 0.639519 -0.054451
H13   H     H_    0.953509 0.640835 0.680066 0.119357
H14   H     H_    0.999920 0.709435 0.635487 0.080008
H15   H     H_    0.984845 0.475058 0.642872 0.207577
O22   O     O_3   0.147287 0.083790 0.508931 -0.513678
C62   C     C_3   0.159900 0.923609 0.541635 -0.170443
H16   H     H_    0.179394 0.818880 0.519132 0.103646
H17   H     H_    0.124546 0.864314 0.553913 0.144249
H18   H     H_    0.187361 0.959276 0.582095 0.158351
O23   O     O_3   0.572993 0.120831 0.909405 -0.496129
C63   C     C_3   0.532080 0.113608 0.860481 -0.054453
H19   H     H_    0.546490 0.140832 0.819933 0.119354
H20   H     H_    0.500080 0.209433 0.864513 0.080009
H21   H     H_    0.515155 0.975057 0.857128 0.207579
O24   O     O_3   0.352714 0.583795 0.991069 -0.513678
C64   C     C_3   0.340100 0.423615 0.958364 -0.170445
H22   H     H_    0.320605 0.318886 0.980867 0.103647
H23   H     H_    0.375453 0.364319 0.946086 0.144250
H24   H     H_    0.312639 0.459284 0.917904 0.158351
O25   O     O_3   0.809814 0.734241 0.579330 -0.553151
C65   C     C_3   0.804217 0.548764 0.589503 -0.028222
H25   H     H_    0.765379 0.504492 0.565565 0.127466
H26   H     H_    0.805119 0.521048 0.635673 0.178545
H27   H     H_    0.833659 0.468893 0.572842 0.230994
O26   O     O_3   0.211561 0.162334 0.432570 -0.524238
C66   C     C_3   0.251537 0.032967 0.449190 -0.200119
H28   H     H_    0.289781 0.102843 0.453797 0.145580
H29   H     H_    0.250992 0.923054 0.416758 0.092080
H30   H     H_    0.249411 0.973950 0.491792 0.150674
O27   O     O_3   0.690186 0.234241 0.920669 -0.553152
C67   C     C_3   0.695782 0.048764 0.910495 -0.028223
H31   H     H_    0.734620 0.004492 0.934433 0.127466
H32   H     H_    0.694879 0.021048 0.864326 0.178547
H33   H     H_    0.666341 0.968893 0.927157 0.230994
O28   O     O_3   0.288440 0.662340 0.067431 -0.524240
C68   C     C_3   0.248463 0.532976 0.050810 -0.200109
H34   H     H_    0.210219 0.602855 0.046203 0.145565
H35   H     H_    0.249007 0.423063 0.083241 0.092083
H36   H     H_    0.250588 0.473959 0.008208 0.150676

loop_
_geom_bond_atom_site_label_1
_geom_bond_atom_site_label_2
_ccdc_geom_bond_type
C48   O24   S    
N7    C59   A    
C22   C26   S    
C35   Cl3   S    
O19   V1    S    
O13   V1    S    
O3    C7    A    
N8    C60   A    
C44   C48   A    
C11   H7    S    
O24   C64   S    
C65   H27   S    
C61   H13   S    
C46   C50   A    
O23   C63   S    
O1    C5    A    
C28   C32   S    
C11   C23   S    
C64   H22   S    
C51   C55   A    
C68   H35   S    
C11   C15   S    
O4    C8    A    
C66   H30   S    
N3    N7    A    
N2    N6    A    
C8    C18   S    
O27   C67   S    
O1    V3    S    
C9    H5    S    
C19   C31   T    
O2    V4    S    
O3    V1    S    
O22   C62   S    
C1    O15   A    
C36   Cl4   S    
N2    C57   A    
C2    O16   A    
C9    C26   S    
C43   C47   A    
C34   C38   A    
C9    C21   S    
C33   C37   A    
C11   C28   S    
C10   H6    S    
C12   C27   S    
C17   C29   T    
C13   C22   S    
C40   Cl8   S    
C64   H24   S    
O11   C7    A    
O15   V3    S    
O12   C8    A    
C16   C23   S    
C42   C57   S    
C41   C58   S    
C34   C54   A    
O10   V2    S    
C67   H33   S    
C33   C53   A    
C1    C56   S    
C7    C17   S    
O5    V1    S    
C62   H17   S    
C66   H28   S    
C27   C31   S    
O7    V3    S    
C26   C30   S    
C44   C59   S    
O8    V4    S    
C52   C56   A    
C4    C53   S    
C12   C16   S    
O28   C68   S    
C67   H32   S    
C34   Cl2   S    
C68   H36   S    
C5    C19   S    
C33   Cl1   S    
O18   V4    S    
C65   H26   S    
C20   C32   T    
C10   C25   S    
C9    C13   S    
H9    C22   S    
N1    C58   A    
O7    C3    A    
O5    C1    A    
H12   C23   S    
C14   C21   S    
C42   C46   A    
C61   H14   S    
C41   C45   A    
O8    C4    A    
N5    C57   A    
C52   O28   S    
O9    C5    A    
C36   C40   A    
C21   C25   S    
C63   H21   S    
O14   V2    S    
O6    V2    S    
C2    C55   S    
C50   C54   A    
O25   C65   S    
C43   C60   S    
C40   C44   A    
C46   O22   S    
C45   O21   S    
N1    N5    A    
N3    C60   A    
C63   H20   S    
O21   C61   S    
O16   V4    S    
C62   H18   S    
O9    V1    S    
C3    O13   A    
C49   C53   A    
C13   C25   S    
C10   C14   S    
H10   C21   S    
C23   C27   S    
O17   V3    S    
C48   C52   A    
C67   H31   S    
C12   C24   S    
C47   C51   A    
O6    C2    A    
C15   H3    S    
C62   H16   S    
O11   V3    S    
C65   H25   S    
C18   C30   T    
O12   V4    S    
C15   C27   S    
C39   Cl7   S    
C16   C28   S    
C6    C20   S    
C24   C28   S    
C51   O27   S    
O10   C6    A    
O20   V2    S    
N6    C58   A    
C68   H34   S    
C35   C39   A    
C66   H29   S    
C3    C54   S    
C36   C56   A    
C15   C24   S    
N4    N8    A    
C64   H23   S    
O2    C6    A    
C12   H8    S    
C37   Cl5   S    
C13   H1    S    
C45   C49   A    
C61   H15   S    
O26   C66   S    
C50   O26   S    
C14   H2    S    
C25   C29   S    
C16   H4    S    
C35   C55   A    
C38   C42   A    
N4    C59   A    
C4    O14   A    
C10   C22   S    
C37   C41   A    
H11   C24   S    
C47   O23   S    
C38   Cl6   S    
C39   C43   A    
O4    V2    S    
C49   O25   S    
C63   H19   S    
C14   C26   S    
