data_mof_unit_8694.cif
_audit_creation_date              2012-12-11T18:51:22-0500
_audit_creation_method            fapswitch 2.2
_symmetry_space_group_name_H-M    P1
_symmetry_Int_Tables_number       1
_space_group_crystal_system       triclinic
_cell_length_a                    8.183443
_cell_length_b                    15.018897
_cell_length_c                    14.992303
_cell_angle_alpha                 99.47739
_cell_angle_beta                  97.620627
_cell_angle_gamma                 98.533554
_cell_volume                      1773.92756641

loop_
_atom_site_label
_atom_site_type_symbol
_atom_type_description
_atom_site_fract_x
_atom_site_fract_y
_atom_site_fract_z
_atom_type_partial_charge
Ba1   Ba    Ba6+2 0.844890 0.542420 0.457460 1.622017
Ba2   Ba    Ba6+2 0.344950 0.457650 0.542550 1.619381
C1    C     C_3   0.603904 0.871652 0.234246 -0.383259
C2    C     C_R   0.890776 0.450304 0.920889 -0.040562
C3    C     C_R   0.033700 0.462983 0.108402 -0.033170
C4    C     C_3   0.078607 0.727638 0.218433 0.358467
C5    C     C_R   0.870961 0.415390 0.072857 -0.038266
C6    C     C_R   0.799663 0.410970 0.982073 -0.109176
C7    C     C_R   0.104257 0.473011 0.202903 0.053359
C8    C     C_R   0.268414 0.518990 0.232587 -0.303076
C9    C     C_R   0.082479 0.527620 0.797839 0.030291
C10   C     C_R   0.153747 0.535054 0.891999 -0.037109
C11   C     C_R   0.057875 0.495665 0.953148 0.014822
C12   C     C_3   0.602502 0.780785 0.266442 0.358450
C13   C     C_R   0.318890 0.578880 0.927165 -0.057602
C14   C     C_R   0.389266 0.583827 0.017878 -0.094323
C15   C     C_R   0.296654 0.546686 0.079341 -0.037968
C16   C     C_3   0.062965 0.752023 0.123495 -0.379576
C17   C     C_R   0.129167 0.502071 0.047133 0.005491
C18   C     C_R   0.366422 0.553364 0.172214 -0.002046
C19   C     C_R   0.919640 0.479027 0.767693 -0.283530
C20   C     C_R   0.315875 0.827206 0.455295 0.019960
C21   C     C_R   0.575430 0.793443 0.530429 0.062274
C22   C     C_R   0.773911 0.228592 0.517497 -0.277261
C23   C     C_3   0.425048 0.318915 0.257916 0.328776
C24   C     C_R   0.872202 0.171299 0.554057 0.012712
C25   C     C_R   0.806742 0.078676 0.548223 -0.155712
C26   C     C_R   0.641615 0.041025 0.502325 0.016396
C27   C     C_R   0.545719 0.100354 0.461715 -0.017485
C28   C     C_3   0.372219 0.748027 0.784663 0.257430
C29   C     C_R   0.567559 0.947021 0.495847 0.004635
C30   C     C_R   0.397296 0.916420 0.453411 -0.030238
C31   C     C_R   0.310465 0.976141 0.411759 -0.103493
C32   C     C_R   0.384396 0.065122 0.413776 -0.059382
C33   C     C_R   0.656204 0.882218 0.529852 -0.151281
C34   C     C_3   0.388477 0.292591 0.153344 -0.226524
C35   C     C_R   0.401750 0.770142 0.502475 -0.233236
C36   C     C_R   0.613054 0.194088 0.470083 0.014804
C37   C     C_3   0.333036 0.797492 0.874356 -0.425029
C38   C     C_3   0.939090 0.249441 0.319904 0.295414
C39   C     C_3   0.966283 0.153200 0.279474 -0.231080
C40   C     C_3   0.781783 0.666458 0.737086 0.297167
C41   C     C_3   0.840825 0.698541 0.839784 -0.421393
C42   C     C_3   0.928150 0.083655 0.340004 -0.508829
C43   C     C_3   0.509804 0.233248 0.115497 -0.369719
C44   C     C_3   0.187361 0.203553 0.920180 -0.384375
C45   C     C_3   0.085973 0.266799 0.781303 0.389437
C46   C     C_3   0.305716 0.690490 0.532930 -0.212717
C47   C     C_3   0.036512 0.225888 0.862611 -0.227652
C48   C     C_3   0.576148 0.215589 0.729028 0.361832
C49   C     C_3   0.536866 0.119766 0.749975 -0.375682
C50   C     C_R   0.821426 0.443335 0.827805 -0.008165
H1    H     H_    0.697595 0.791026 0.328858 0.094825
H2    H     H_    0.673501 0.609677 0.725973 0.057577
H3    H     H_    0.580944 0.924450 0.290053 0.078076
H4    H     H_    0.957058 0.750305 0.851927 0.131589
H5    H     H_    0.865956 0.640289 0.872950 0.065264
H6    H     H_    0.743919 0.729999 0.872483 0.109190
H7    H     H_    0.476889 0.759348 0.284089 -0.067750
H8    H     H_    0.504259 0.863853 0.174105 0.110223
H9    H     H_    0.315516 0.344533 0.282604 -0.020382
H10   H     H_    0.535570 0.374586 0.277071 0.066920
H11   H     H_    0.258263 0.254487 0.131977 0.100528
H12   H     H_    0.260492 0.748810 0.908682 0.103647
H13   H     H_    0.398130 0.356069 0.123921 0.057894
H14   H     H_    0.727135 0.894449 0.214477 0.133948
H15   H     H_    0.074778 0.692174 0.071951 0.074058
H16   H     H_    0.190912 0.325533 0.805298 0.086468
H17   H     H_    0.979638 0.275493 0.906611 0.075263
H18   H     H_    0.941456 0.162605 0.837393 0.111166
H19   H     H_    0.710272 0.229502 0.722656 -0.068936
H20   H     H_    0.608757 0.116649 0.817303 0.104328
H21   H     H_    0.571685 0.069283 0.696077 0.073072
H22   H     H_    0.979067 0.668488 0.217210 0.106184
H23   H     H_    0.451384 0.830508 0.920765 0.085457
H24   H     H_    0.400995 0.101394 0.751637 0.145160
H25   H     H_    0.794712 0.381876 0.114769 0.107162
H26   H     H_    0.672454 0.374986 0.960479 0.104588
H27   H     H_    0.518031 0.617476 0.038720 0.109490
H28   H     H_    0.399217 0.608728 0.885355 0.087776
H29   H     H_    0.323152 0.525186 0.303581 0.070646
H30   H     H_    0.865777 0.472032 0.696470 0.069784
H31   H     H_    0.787291 0.899062 0.558094 0.101684
H32   H     H_    0.202762 0.707777 0.234543 -0.053042
H33   H     H_    0.825632 0.300236 0.522700 0.067465
H34   H     H_    0.258153 0.851135 0.860768 0.126349
H35   H     H_    0.887536 0.038469 0.580074 0.077385
H36   H     H_    0.939028 0.771773 0.105254 0.142486
H37   H     H_    0.163358 0.810050 0.122046 0.109177
H38   H     H_    0.466704 0.704729 0.797783 0.039373
H39   H     H_    0.432463 0.800782 0.749774 0.047117
H40   H     H_    0.949177 0.015735 0.306401 0.150504
H41   H     H_    0.012149 0.104036 0.406713 0.156013
H42   H     H_    0.795455 0.077436 0.349779 0.135431
H43   H     H_    0.509196 0.234014 0.041634 0.106138
H44   H     H_    0.639161 0.258763 0.152292 0.149856
H45   H     H_    0.812348 0.245947 0.338694 -0.001776
H46   H     H_    0.472245 0.161321 0.123899 0.143238
H47   H     H_    0.976663 0.293777 0.751065 -0.091448
H48   H     H_    0.146340 0.173361 0.977995 0.111697
H49   H     H_    0.246945 0.153280 0.878572 0.162051
H50   H     H_    0.279896 0.267313 0.947770 0.134114
H51   H     H_    0.499234 0.217001 0.662711 0.096418
H52   H     H_    0.368519 0.681188 0.599198 0.098076
H53   H     H_    0.181394 0.704103 0.547085 0.156078
H54   H     H_    0.295407 0.626681 0.481838 0.137637
H55   H     H_    0.182142 0.956093 0.378583 0.110525
H56   H     H_    0.034765 0.279029 0.381211 0.071927
H57   H     H_    0.309759 0.106491 0.379285 0.099836
H58   H     H_    0.883555 0.128557 0.212051 0.128162
H59   H     H_    0.098110 0.156526 0.267619 0.125279
H60   H     H_    0.884976 0.641968 0.705185 0.042927
O1    O     O_2   0.826410 0.445300 0.275350 -0.469502
O2    O     O_2   0.217721 0.177947 0.555758 -0.495835
O3    O     O_3   0.135787 0.199088 0.719022 -0.598941
O4    O     O_3   0.098900 0.448430 0.388910 -0.500345
O5    O     O_3   0.590780 0.611410 0.551120 -0.499321
O6    O     O_2   0.326530 0.274990 0.446290 -0.468071
O7    O     O_3   0.455661 0.242108 0.295211 -0.652487
O8    O     O_2   0.478710 0.446364 0.822233 -0.488328
O9    O     O_3   0.539046 0.279505 0.799789 -0.601947
O10   O     O_3   0.628630 0.613330 0.338230 -0.485303
O11   O     O_2   0.708674 0.550621 0.176711 -0.496395
O12   O     O_3   0.735719 0.740549 0.700449 -0.640446
O13   O     O_3   0.948285 0.299761 0.249815 -0.662050
O14   O     O_3   0.641770 0.716338 0.196868 -0.606277
O15   O     O_2   0.863180 0.725040 0.553770 -0.452354
O16   O     O_3   0.060890 0.661420 0.386090 -0.503800
O17   O     O_2   0.968520 0.820659 0.443923 -0.494517
O18   O     O_3   0.059939 0.803495 0.282461 -0.610955
O19   O     O_2   0.363300 0.554730 0.724710 -0.490413
O20   O     O_3   0.090820 0.551650 0.611100 -0.477322
O21   O     O_3   0.561090 0.386750 0.661790 -0.477369
O22   O     O_3   0.222588 0.702552 0.727175 -0.633929
O23   O     O_3   0.598940 0.388670 0.448890 -0.478900
O24   O     O_3   0.128820 0.338650 0.613920 -0.475086
P1    P     P_3+3 0.996530 0.418490 0.288400 0.962475
P2    P     P_3+3 0.693090 0.712100 0.580610 0.985204
P3    P     P_3+3 0.100627 0.779725 0.393180 0.932773
P4    P     P_3+3 0.193180 0.581580 0.711620 0.962174
P5    P     P_3+3 0.088850 0.220300 0.608137 0.958651
P6    P     P_3+3 0.585739 0.606441 0.220147 0.936315
P7    P     P_3+3 0.501789 0.273690 0.414392 0.931053
P8    P     P_3+3 0.601509 0.390117 0.779329 0.943153

loop_
_geom_bond_atom_site_label_1
_geom_bond_atom_site_label_2
_ccdc_geom_bond_type
O3    P5    S    
O7    P7    S    
C36   P7    S    
C21   P2    S    
O5    P2    S    
C31   H55   S    
Ba1   O16   S    
C2    C6    A    
Ba1   O20   S    
Ba2   O6    S    
C40   O12   S    
C5    C6    A    
C45   C47   S    
C45   O3    S    
C37   H12   S    
C44   H50   S    
C44   C47   S    
C24   C25   A    
C50   P8    S    
C20   C30   A    
C2    C50   A    
O12   P2    S    
C26   C27   A    
O16   P3    S    
C22   C24   A    
C43   H46   S    
O22   P4    S    
C13   C14   A    
C46   H52   S    
C15   C18   A    
C45   H47   S    
Ba1   Ba2   S    
C2    C11   A    
C40   H60   S    
Ba1   O10   S    
C42   H41   S    
C41   H6    S    
Ba2   O4    S    
C46   H54   S    
C46   H53   S    
C8    C18   A    
C14   C15   A    
C28   O22   S    
O8    P8    D    
C27   C36   A    
Ba2   O20   S    
O19   P4    D    
O15   P2    D    
C37   H23   S    
C24   P5    S    
C7    C8    A    
C42   H40   S    
C4    O18   S    
C5    H25   S    
C1    H8    S    
O23   P7    S    
C48   H51   S    
C47   H17   S    
C6    H26   S    
O9    P8    S    
Ba1   O15   S    
C48   O9    S    
C1    H3    S    
O18   P3    S    
C23   O7    S    
Ba2   O5    S    
C4    H22   S    
C4    C16   S    
C44   H49   S    
Ba2   O21   S    
C4    H32   S    
C11   C17   A    
O2    P5    D    
C18   P6    S    
C19   C50   A    
C31   C32   A    
C49   H24   S    
O6    P7    D    
C38   H45   S    
C3    C5    A    
C33   H31   S    
C34   H13   S    
C23   H9    S    
O13   P1    S    
C16   H15   S    
C21   C35   A    
C20   C35   A    
C20   P3    S    
O14   P6    S    
Ba2   O24   S    
C9    P4    S    
C3    C7    A    
O24   P5    S    
C12   H7    S    
C22   C36   A    
C29   C30   A    
O17   P3    D    
C10   C13   A    
Ba2   O19   S    
C34   C43   S    
C48   C49   S    
C48   H19   S    
Ba1   O5    S    
C19   H30   S    
C35   C46   S    
C25   H35   S    
C1    C12   S    
C38   C39   S    
Ba1   O4    S    
C21   C33   A    
C47   H18   S    
C39   H59   S    
C39   C42   S    
O1    P1    D    
C1    H14   S    
C49   H20   S    
O10   P6    S    
C34   H11   S    
C45   H16   S    
Ba1   P1    S    
O4    P1    S    
C22   H33   S    
C44   H48   S    
O21   P8    S    
C16   H37   S    
C26   C29   A    
C49   H21   S    
C28   H39   S    
C9    C10   A    
C3    C17   A    
O20   P4    S    
C8    H29   S    
Ba2   O23   S    
C12   O14   S    
C38   H56   S    
C39   H58   S    
C14   H27   S    
Ba2   P4    S    
C30   C31   A    
C7    P1    S    
C40   H2    S    
C38   O13   S    
C27   C32   A    
O11   P6    D    
C15   C17   A    
C9    C19   A    
C28   C37   S    
C29   C33   A    
C23   H10   S    
Ba1   O1    S    
C16   H36   S    
C13   H28   S    
C42   H42   S    
C41   H5    S    
C23   C34   S    
C41   H4    S    
C12   H1    S    
C10   C11   A    
C40   C41   S    
C25   C26   A    
C32   H57   S    
C37   H34   S    
Ba1   O23   S    
C43   H44   S    
C28   H38   S    
Ba1   P2    S    
C43   H43   S    
