data_mof_unit_45115.cif
_audit_creation_date              2012-12-11T16:57:12-0500
_audit_creation_method            fapswitch 2.2
_symmetry_space_group_name_H-M    P1
_symmetry_Int_Tables_number       1
_space_group_crystal_system       triclinic
_cell_length_a                    14.541818
_cell_length_b                    16.175405
_cell_length_c                    6.921782
_cell_angle_alpha                 90.032819
_cell_angle_beta                  98.610956
_cell_angle_gamma                 90.025503
_cell_volume                      1609.7868793

loop_
_atom_site_label
_atom_site_type_symbol
_atom_type_description
_atom_site_fract_x
_atom_site_fract_y
_atom_site_fract_z
_atom_type_partial_charge
O1    O     O_R   0.584990 0.413650 0.534420 -0.531284
O2    O     O_R   0.584990 0.586350 0.534420 -0.535206
O3    O     O_R   0.596190 0.585230 0.208380 -0.542472
O4    O     O_R   0.596190 0.414770 0.208380 -0.537410
O5    O     O_R   0.415010 0.586420 0.976930 -0.541432
O6    O     O_R   0.415010 0.413580 0.976930 -0.536879
C1    C     C_R   0.616911 0.615820 0.383080 0.684264
C2    C     C_R   0.621282 0.387485 0.385057 0.703889
O7    O     O_3   0.440560 0.500000 0.319140 -0.372166
V1    V     V_3+5 0.511030 0.500000 0.068070 1.418486
O8    O     O_R   0.403810 0.414840 0.643540 -0.546238
O9    O     O_R   0.403810 0.585160 0.643540 -0.545990
C3    C     C_R   0.382419 0.385517 0.806086 0.764570
C4    C     C_R   0.382424 0.614462 0.806160 0.766182
V2    V     V_3+5 0.488970 0.500000 0.560620 1.411804
O10   O     O_3   0.559440 0.500000 0.859420 -0.367881
H1    H     H_    0.330062 0.702581 0.102146 0.139295
H2    H     H_    0.329790 0.297744 0.102061 0.141626
C5    C     C_2   0.316870 0.684543 0.796525 -0.335183
C6    C     C_2   0.316918 0.315336 0.796377 -0.340950
C7    C     C_2   0.299486 0.724817 0.958674 -0.234766
C8    C     C_2   0.299427 0.275241 0.958606 -0.236519
H3    H     H_    0.212148 0.784357 0.241354 0.084199
H4    H     H_    0.212094 0.215827 0.241375 0.083876
C9    C     C_2   0.196570 0.819572 0.106743 -0.353599
C10   C     C_2   0.196627 0.180450 0.106866 -0.351029
C11   C     C_2   0.237888 0.798879 0.949739 0.399683
C12   C     C_2   0.237995 0.201035 0.949877 0.398305
H5    H     H_    0.283874 0.704067 0.652697 0.132143
H6    H     H_    0.284101 0.295577 0.652528 0.133409
C13   C     C_R   0.755765 0.685626 0.574650 0.048224
C14   C     C_R   0.710506 0.279506 0.596713 0.128847
C15   C     C_R   0.685596 0.685086 0.411723 -0.196768
C16   C     C_R   0.696801 0.323817 0.420438 -0.229493
C17   C     C_R   0.687540 0.750447 0.273014 0.341249
C18   C     C_R   0.758889 0.304921 0.284366 0.326266
C19   C     C_R   0.756458 0.812951 0.306237 -0.181837
C20   C     C_R   0.819009 0.235690 0.316034 -0.189945
H7    H     H_    0.755428 0.862522 0.200750 0.139688
H8    H     H_    0.862617 0.220898 0.206867 0.149629
C21   C     C_R   0.820103 0.816525 0.481050 -0.174202
C22   C     C_R   0.824113 0.186815 0.486363 -0.193701
C23   C     C_R   0.819956 0.749790 0.609499 0.096480
C24   C     C_R   0.772867 0.214087 0.629945 0.129958
C25   C     C_3   0.819008 0.747528 0.824477 -0.386160
C26   C     C_3   0.710625 0.167298 0.743975 -0.409672
C27   C     C_3   0.749416 0.676868 0.786806 -0.351364
C28   C     C_3   0.642327 0.238879 0.707217 -0.385504
H9    H     H_    0.788931 0.804567 0.879122 0.188266
H10   H     H_    0.684201 0.108921 0.670785 0.163382
H11   H     H_    0.887111 0.728141 0.906796 0.161472
H12   H     H_    0.741339 0.160776 0.900201 0.184018
H13   H     H_    0.679136 0.692490 0.819980 0.217961
H14   H     H_    0.576389 0.222064 0.612185 0.153299
H15   H     H_    0.777645 0.616754 0.846657 0.165061
H16   H     H_    0.633619 0.273325 0.842252 0.207348
O11   O     O_R   0.921430 0.915960 0.371040 -0.543613
O12   O     O_R   0.921430 0.084040 0.371040 -0.544927
O13   O     O_R   0.910450 0.087500 0.697310 -0.546178
O14   O     O_R   0.910450 0.912500 0.697310 -0.548387
O15   O     O_R   0.091710 0.087460 0.928430 -0.502938
O16   O     O_R   0.091710 0.912540 0.928430 -0.503694
C29   C     C_R   0.888263 0.114623 0.519775 0.712502
C30   C     C_R   0.887946 0.885709 0.519416 0.707083
O17   O     O_3   0.065970 1.000000 0.586140 -0.335211
V3    V     V_3+5 0.995640 0.000000 0.837400 1.496412
O18   O     O_R   0.103020 0.915700 0.261710 -0.544472
O19   O     O_R   0.103020 0.084300 0.261710 -0.545111
C31   C     C_R   0.126985 0.887208 0.099719 0.783875
C32   C     C_R   0.127027 0.112777 0.099785 0.785849
V4    V     V_3+5 0.017940 1.000000 0.344880 1.466144
O20   O     O_3   0.947330 1.000000 0.046180 -0.392319
O21   O     O_3   0.223655 0.847871 0.783846 -0.621174
H17   H     H_    0.274621 0.838116 0.706529 0.287021
O22   O     O_3   0.223970 0.151795 0.784225 -0.620987
H18   H     H_    0.274958 0.161582 0.706982 0.284494
O23   O     O_3   0.620240 0.759889 0.111456 -0.658324
H19   H     H_    0.563698 0.729164 0.131899 0.282797
O24   O     O_3   0.763250 0.351328 0.119175 -0.646256
H20   H     H_    0.751925 0.409805 0.150513 0.292190

loop_
_geom_bond_atom_site_label_1
_geom_bond_atom_site_label_2
_ccdc_geom_bond_type
O15   C32   A    
O1    C2    A    
C1    C15   S    
O21   H17   S    
O2    C1    A    
O4    C2    A    
C6    H6    S    
O23   H19   S    
C28   H14   S    
C13   C23   A    
C5    C7    D    
H4    C10   S    
C20   C22   A    
O3    C1    A    
O13   V3    S    
O12   V4    S    
C25   H11   S    
V2    O10   S    
C26   H12   S    
O8    V2    S    
O15   V3    S    
V3    O20   S    
C13   C15   A    
O1    V2    S    
O7    V1    S    
C16   C18   A    
C27   H13   S    
C7    C11   S    
O14   V3    S    
C13   C27   S    
C21   C23   A    
C22   C24   A    
C24   C26   S    
C25   C27   S    
C26   C28   S    
O16   V3    S    
O17   V4    S    
C17   O23   S    
H1    C7    S    
O16   C31   A    
O18   C31   A    
C14   C16   A    
O22   H18   S    
O9    V2    S    
C25   H9    S    
C14   C24   A    
C2    C16   S    
O11   V4    S    
O2    V2    S    
C23   C25   S    
O5    C4    A    
O9    C4    A    
C10   C32   S    
C9    C31   S    
O4    V1    S    
C5    H5    S    
O11   C30   A    
C27   H15   S    
O12   C29   A    
C28   H16   S    
C3    C6    S    
C17   C19   A    
H2    C8    S    
O13   C29   A    
C4    C5    S    
C6    C8    D    
C18   O24   S    
O6    V1    S    
C9    C11   D    
C26   H10   S    
C10   C12   D    
O14   C30   A    
C18   C20   A    
O7    V2    S    
O5    V1    S    
C19   H7    S    
O3    V1    S    
V1    O10   S    
O6    C3    A    
C20   H8    S    
O8    C3    A    
C14   C28   S    
O19   V4    S    
C15   C17   A    
O18   V4    S    
H3    C9    S    
C19   C21   A    
O24   H20   S    
V4    O20   S    
O19   C32   A    
O17   V3    S    
C8    C12   S    
C21   C30   S    
C11   O21   S    
C12   O22   S    
C22   C29   S    
