data_mof_unit_64478.cif
_audit_creation_date              2013-03-05T16:00:26-0500
_audit_creation_method            fapswitch 2.2
_symmetry_space_group_name_H-M    P1
_symmetry_Int_Tables_number       1
_space_group_crystal_system       triclinic
_cell_length_a                    21.643911
_cell_length_b                    21.643902
_cell_length_c                    35.604403
_cell_angle_alpha                 90.000039
_cell_angle_beta                  90.00003
_cell_angle_gamma                 89.999964
_cell_volume                      16679.1919371

loop_
_atom_site_label
_atom_site_type_symbol
_atom_site_description
_atom_site_fract_x
_atom_site_fract_y
_atom_site_fract_z
_atom_type_partial_charge
O1    O     O_R   0.448380 0.908480 0.999900 -0.613834
O2    O     O_R   0.091520 0.448380 0.999900 -0.613824
O3    O     O_R   0.551620 0.091520 0.999900 -0.613834
O4    O     O_R   0.908480 0.551620 0.999900 -0.613824
O5    O     O_R   0.448380 0.091520 0.000100 -0.613804
O6    O     O_R   0.091520 0.551620 0.000100 -0.613815
O7    O     O_R   0.551620 0.908480 0.000100 -0.613804
O8    O     O_R   0.908480 0.448380 0.000100 -0.613815
O9    O     O_R   0.948380 0.408480 0.499900 -0.613821
O10   O     O_R   0.591520 0.948380 0.499900 -0.613827
O11   O     O_R   0.051620 0.591520 0.499900 -0.613821
O12   O     O_R   0.408480 0.051620 0.499900 -0.613827
O13   O     O_R   0.948380 0.591520 0.500100 -0.613818
O14   O     O_R   0.591520 0.051620 0.500100 -0.613810
O15   O     O_R   0.051620 0.408480 0.500100 -0.613818
O16   O     O_R   0.408480 0.948380 0.500100 -0.613810
C1    C     C_R   0.500000 0.880012 0.000000 0.918340
C2    C     C_R   0.119988 0.500000 0.000000 0.918340
C3    C     C_R   0.500000 0.119988 1.000000 0.918339
C4    C     C_R   0.880012 0.500000 0.000000 0.918341
C5    C     C_R   1.000000 0.380012 0.500000 0.918340
C6    C     C_R   0.619988 1.000000 0.500000 0.918339
C7    C     C_R   1.000000 0.619988 0.500000 0.918340
C8    C     C_R   0.380012 0.000000 0.500000 0.918340
O17   O     O_R   0.448380 0.000100 0.944450 -0.621860
O18   O     O_R   0.999900 0.448380 0.944450 -0.621860
O19   O     O_R   0.551620 0.999900 0.944450 -0.621860
O20   O     O_R   0.000100 0.551620 0.944450 -0.621859
O21   O     O_R   0.448380 0.999900 0.055550 -0.621861
O22   O     O_R   0.999900 0.551620 0.055550 -0.621861
O23   O     O_R   0.551620 0.000100 0.055550 -0.621861
O24   O     O_R   0.000100 0.448380 0.055550 -0.621861
O25   O     O_R   0.948380 0.500100 0.444450 -0.621859
O26   O     O_R   0.499900 0.948380 0.444450 -0.621861
O27   O     O_R   0.051620 0.499900 0.444450 -0.621859
O28   O     O_R   0.500100 0.051620 0.444450 -0.621860
O29   O     O_R   0.948380 0.499900 0.555550 -0.621861
O30   O     O_R   0.499900 0.051620 0.555550 -0.621861
O31   O     O_R   0.051620 0.500100 0.555550 -0.621861
O32   O     O_R   0.500100 0.948380 0.555550 -0.621861
C9    C     C_R   0.538940 0.782950 0.024533 -0.217187
C10   C     C_R   0.217050 0.538941 0.024532 -0.217188
C11   C     C_R   0.461059 0.217050 0.024532 -0.217186
C12   C     C_R   0.782950 0.461059 0.024532 -0.217188
C13   C     C_R   0.538940 0.217050 0.975467 -0.217191
C14   C     C_R   0.217050 0.461059 0.975467 -0.217189
C15   C     C_R   0.461060 0.782950 0.975467 -0.217190
C16   C     C_R   0.782950 0.538941 0.975468 -0.217189
C17   C     C_R   0.038941 0.282950 0.524532 -0.217188
C18   C     C_R   0.717050 0.038940 0.524533 -0.217187
C19   C     C_R   0.961058 0.717050 0.524532 -0.217188
C20   C     C_R   0.282950 0.961061 0.524533 -0.217187
C21   C     C_R   0.038942 0.717050 0.475468 -0.217188
C22   C     C_R   0.717050 0.961060 0.475467 -0.217191
C23   C     C_R   0.961058 0.282950 0.475468 -0.217188
C24   C     C_R   0.282950 0.038940 0.475467 -0.217190
C25   C     C_R   0.500000 0.000000 0.926555 0.881939
C26   C     C_R   0.000000 0.500000 0.926555 0.881938
C27   C     C_R   0.500000 0.000000 0.073445 0.881939
C28   C     C_R   0.000000 0.500000 0.073445 0.881940
C29   C     C_R   1.000000 0.500000 0.426555 0.881938
C30   C     C_R   0.500000 1.000000 0.426555 0.881940
C31   C     C_R   0.000000 0.500000 0.573445 0.881941
C32   C     C_R   0.500000 0.000000 0.573445 0.881939
Zn1   Zn    Zn3+2 0.431030 0.000000 0.000000 1.010868
Zn2   Zn    Zn3+2 0.000000 0.431030 0.000000 1.010868
Zn3   Zn    Zn3+2 0.568970 0.000000 0.000000 1.010868
Zn4   Zn    Zn3+2 0.000000 0.568970 0.000000 1.010868
Zn5   Zn    Zn3+2 0.931030 0.500000 0.500000 1.010868
Zn6   Zn    Zn3+2 0.500000 0.931030 0.500000 1.010868
Zn7   Zn    Zn3+2 0.068970 0.500000 0.500000 1.010868
Zn8   Zn    Zn3+2 0.500000 0.068970 0.500000 1.010867
C33   C     C_R   0.500000 0.686791 0.000000 -0.247340
C34   C     C_R   0.313209 0.500000 1.000000 -0.247340
C35   C     C_R   0.500000 0.313209 1.000000 -0.247339
C36   C     C_R   0.686791 0.500000 0.000000 -0.247339
C37   C     C_R   1.000000 0.186791 0.500000 -0.247341
C38   C     C_R   0.813209 0.000000 0.500000 -0.247339
C39   C     C_R   0.000000 0.813209 0.500000 -0.247341
C40   C     C_R   0.186791 1.000000 0.500000 -0.247338
C41   C     C_R   0.500000 0.814189 1.000000 -0.137558
C42   C     C_R   0.185811 0.500000 0.000000 -0.137559
C43   C     C_R   0.500000 0.185811 1.000000 -0.137558
C44   C     C_R   0.814188 0.500000 0.000000 -0.137559
C45   C     C_R   1.000000 0.314188 0.500000 -0.137555
C46   C     C_R   0.685811 1.000000 0.500000 -0.137560
C47   C     C_R   1.000000 0.685811 0.500000 -0.137555
C48   C     C_R   0.314189 0.000000 0.500000 -0.137559
C49   C     C_R   0.499922 0.943607 0.673443 0.011861
C50   C     C_R   0.056393 0.499762 0.673443 0.011860
C51   C     C_R   0.500078 0.056394 0.673443 0.011861
C52   C     C_R   0.943607 0.500238 0.673443 0.011860
C53   C     C_R   0.499803 0.056393 0.326557 0.011861
C54   C     C_R   0.056393 0.500269 0.326557 0.011860
C55   C     C_R   0.500197 0.943607 0.326557 0.011861
C56   C     C_R   0.943607 0.499732 0.326557 0.011860
C57   C     C_R   0.999860 0.443607 0.173443 0.011860
C58   C     C_R   0.556393 0.999938 0.173443 0.011861
C59   C     C_R   0.000140 0.556393 0.173443 0.011860
C60   C     C_R   0.443607 0.000061 0.173443 0.011860
C61   C     C_R   0.999789 0.556393 0.826557 0.011861
C62   C     C_R   0.556392 0.000280 0.826557 0.011860
C63   C     C_R   0.000212 0.443607 0.826557 0.011860
C64   C     C_R   0.443607 0.999721 0.826557 0.011860
C65   C     C_R   0.499921 0.943924 0.634317 -0.207960
C66   C     C_R   0.056076 0.499764 0.634317 -0.207959
C67   C     C_R   0.500079 0.056076 0.634317 -0.207959
C68   C     C_R   0.943924 0.500236 0.634317 -0.207959
C69   C     C_R   0.499805 0.056076 0.365683 -0.207959
C70   C     C_R   0.056076 0.500266 0.365683 -0.207959
C71   C     C_R   0.500196 0.943924 0.365683 -0.207959
C72   C     C_R   0.943924 0.499735 0.365683 -0.207960
C73   C     C_R   0.999860 0.443924 0.134317 -0.207959
C74   C     C_R   0.556076 0.999937 0.134317 -0.207960
C75   C     C_R   0.000140 0.556076 0.134317 -0.207959
C76   C     C_R   0.443924 0.000063 0.134317 -0.207960
C77   C     C_R   0.999790 0.556076 0.865683 -0.207960
C78   C     C_R   0.556075 0.000276 0.865683 -0.207958
C79   C     C_R   0.000210 0.443924 0.865683 -0.207960
C80   C     C_R   0.443924 0.999724 0.865683 -0.207959
H1    H     H_    0.499855 0.900324 0.619318 0.174527
H2    H     H_    0.099676 0.499571 0.619318 0.174523
H3    H     H_    0.500145 0.099677 0.619318 0.174527
H4    H     H_    0.900324 0.500429 0.619318 0.174523
H5    H     H_    0.499644 0.099676 0.380682 0.174524
H6    H     H_    0.099675 0.500483 0.380682 0.174522
H7    H     H_    0.500356 0.900324 0.380682 0.174524
H8    H     H_    0.900324 0.499518 0.380682 0.174522
H9    H     H_    0.999744 0.400324 0.119318 0.174525
H10   H     H_    0.599676 0.999883 0.119318 0.174527
H11   H     H_    0.000255 0.599676 0.119318 0.174525
H12   H     H_    0.400324 0.000117 0.119318 0.174527
H13   H     H_    0.999618 0.599676 0.880682 0.174524
H14   H     H_    0.599675 0.000502 0.880682 0.174522
H15   H     H_    0.000382 0.400324 0.880682 0.174524
H16   H     H_    0.400325 0.999498 0.880682 0.174522
C81   C     C_R   0.500000 0.000000 0.614576 -0.070050
C82   C     C_R   0.000000 0.500000 0.614576 -0.070046
C83   C     C_R   0.500000 1.000000 0.385424 -0.070048
C84   C     C_R   1.000000 0.500000 0.385424 -0.070047
C85   C     C_R   1.000000 0.500000 0.114576 -0.070049
C86   C     C_R   0.500000 1.000000 0.114576 -0.070051
C87   C     C_R   0.000000 0.500000 0.885424 -0.070048
C88   C     C_R   0.500000 0.000000 0.885424 -0.070046
C89   C     C_R   0.500000 0.000000 0.693092 0.049323
C90   C     C_R   0.000000 0.500000 0.693092 0.049318
C91   C     C_R   0.500000 1.000000 0.306908 0.049320
C92   C     C_R   1.000000 0.500000 0.306908 0.049318
C93   C     C_R   1.000000 0.500000 0.193092 0.049321
C94   C     C_R   0.500000 1.000000 0.193092 0.049324
C95   C     C_R   0.000000 0.500000 0.806908 0.049320
C96   C     C_R   0.500000 0.000000 0.806908 0.049318
C97   C     C_1   0.500000 0.000000 0.733235 -0.013428
C98   C     C_1   0.000000 0.500000 0.733235 -0.013430
C99   C     C_1   0.500000 1.000000 0.266765 -0.013429
C100  C     C_1   1.000000 0.500000 0.266765 -0.013431
C101  C     C_1   1.000000 0.500000 0.233235 -0.013429
C102  C     C_1   0.500000 1.000000 0.233235 -0.013428
C103  C     C_1   0.000000 0.500000 0.766765 -0.013430
C104  C     C_1   0.500000 0.000000 0.766765 -0.013430
Zn9   Zn    Zn3+2 0.500000 0.500000 0.041690 1.184055
Zn10  Zn    Zn3+2 0.500000 0.500000 0.958310 1.184058
Zn11  Zn    Zn3+2 1.000000 0.000000 0.541690 1.184057
Zn12  Zn    Zn3+2 1.000000 0.000000 0.458310 1.184058
C105  C     C_R   0.539562 0.718985 0.024934 0.303692
C106  C     C_R   0.281015 0.539562 0.024934 0.303694
C107  C     C_R   0.460438 0.281015 0.024934 0.303693
C108  C     C_R   0.718985 0.460438 0.024934 0.303693
C109  C     C_R   0.539561 0.281015 0.975066 0.303697
C110  C     C_R   0.281015 0.460438 0.975066 0.303695
C111  C     C_R   0.460438 0.718985 0.975066 0.303697
C112  C     C_R   0.718985 0.539562 0.975066 0.303694
C113  C     C_R   0.039563 0.218985 0.524934 0.303695
C114  C     C_R   0.781015 0.039561 0.524935 0.303692
C115  C     C_R   0.960437 0.781015 0.524933 0.303694
C116  C     C_R   0.218985 0.960440 0.524935 0.303694
C117  C     C_R   0.039564 0.781015 0.475067 0.303694
C118  C     C_R   0.781015 0.960439 0.475065 0.303697
C119  C     C_R   0.960437 0.218985 0.475066 0.303695
C120  C     C_R   0.218985 0.039560 0.475065 0.303696
O33   O     O_R   0.408370 0.500100 0.031180 -0.585464
O34   O     O_R   0.499900 0.408370 0.031180 -0.585465
O35   O     O_R   0.591630 0.499900 0.031180 -0.585465
O36   O     O_R   0.500100 0.591630 0.031180 -0.585465
O37   O     O_R   0.408370 0.499900 0.968820 -0.585465
O38   O     O_R   0.499900 0.591630 0.968820 -0.585463
O39   O     O_R   0.591630 0.500100 0.968820 -0.585464
O40   O     O_R   0.500100 0.408370 0.968820 -0.585464
O41   O     O_R   0.908370 0.000100 0.531180 -0.585464
O42   O     O_R   0.999900 0.908370 0.531180 -0.585465
O43   O     O_R   0.091630 0.999900 0.531180 -0.585464
O44   O     O_R   0.000100 0.091630 0.531180 -0.585465
O45   O     O_R   0.908370 0.999900 0.468820 -0.585463
O46   O     O_R   0.999900 0.091630 0.468820 -0.585465
O47   O     O_R   0.091630 0.000100 0.468820 -0.585463
O48   O     O_R   0.000100 0.908370 0.468820 -0.585465
C121  C     C_R   0.379593 0.500000 1.000000 1.015893
C122  C     C_R   0.500000 0.379593 1.000000 1.015893
C123  C     C_R   0.620407 0.500000 0.000000 1.015893
C124  C     C_R   0.500000 0.620407 0.000000 1.015892
C125  C     C_R   0.879593 0.000000 0.500000 1.015893
C126  C     C_R   1.000000 0.879593 0.500000 1.015894
C127  C     C_R   0.120407 1.000000 0.500000 1.015892
C128  C     C_R   1.000000 0.120407 0.500000 1.015892
H17   H     H_    0.569048 0.808528 0.043267 0.189898
H18   H     H_    0.191472 0.569049 0.043267 0.189894
H19   H     H_    0.430952 0.191472 0.043267 0.189898
H20   H     H_    0.808528 0.430951 0.043266 0.189894
H21   H     H_    0.569048 0.191471 0.956733 0.189884
H22   H     H_    0.191472 0.430951 0.956733 0.189889
H23   H     H_    0.430952 0.808528 0.956733 0.189885
H24   H     H_    0.808528 0.569049 0.956734 0.189890
H25   H     H_    0.069050 0.308528 0.543266 0.189888
H26   H     H_    0.691472 0.069047 0.543268 0.189896
H27   H     H_    0.930949 0.691472 0.543265 0.189888
H28   H     H_    0.308529 0.930954 0.543268 0.189896
H29   H     H_    0.069051 0.691471 0.456735 0.189888
H30   H     H_    0.691472 0.930953 0.456732 0.189889
H31   H     H_    0.930950 0.308528 0.456734 0.189887
H32   H     H_    0.308528 0.069046 0.456732 0.189888
N1    N     N_R   0.581315 0.687949 0.050126 0.226912
O49   O     O_R   0.591785 0.710768 0.083340 -0.352347
O50   O     O_R   0.615913 0.642912 0.038193 -0.358214
N2    N     N_R   0.312051 0.581316 0.050126 0.226911
O51   O     O_R   0.289231 0.591787 0.083339 -0.352350
O52   O     O_R   0.357088 0.615914 0.038192 -0.358216
N3    N     N_R   0.418684 0.312051 0.050126 0.226912
O53   O     O_R   0.408214 0.289232 0.083340 -0.352347
O54   O     O_R   0.384087 0.357088 0.038193 -0.358214
N4    N     N_R   0.687949 0.418683 0.050126 0.226911
O55   O     O_R   0.710769 0.408212 0.083339 -0.352350
O56   O     O_R   0.642911 0.384086 0.038192 -0.358216
N5    N     N_R   0.581315 0.312051 0.949874 0.226911
O57   O     O_R   0.591784 0.289232 0.916660 -0.352356
O58   O     O_R   0.615913 0.357088 0.961807 -0.358214
N6    N     N_R   0.312051 0.418684 0.949874 0.226912
O59   O     O_R   0.289232 0.408214 0.916660 -0.352350
O60   O     O_R   0.357088 0.384086 0.961808 -0.358213
N7    N     N_R   0.418685 0.687949 0.949874 0.226912
O61   O     O_R   0.408216 0.710768 0.916660 -0.352356
O62   O     O_R   0.384087 0.642912 0.961807 -0.358214
N8    N     N_R   0.687949 0.581316 0.949874 0.226912
O63   O     O_R   0.710768 0.591786 0.916660 -0.352350
O64   O     O_R   0.642912 0.615914 0.961808 -0.358213
N9    N     N_R   0.081317 0.187949 0.550125 0.226911
O65   O     O_R   0.091788 0.210768 0.583339 -0.352355
O66   O     O_R   0.115914 0.142911 0.538191 -0.358218
N10   N     N_R   0.812051 0.081314 0.550127 0.226912
O67   O     O_R   0.789232 0.091783 0.583341 -0.352346
O68   O     O_R   0.857087 0.115913 0.538194 -0.358211
N11   N     N_R   0.918682 0.812051 0.550125 0.226911
O69   O     O_R   0.908210 0.789231 0.583338 -0.352355
O70   O     O_R   0.884086 0.857089 0.538191 -0.358218
N12   N     N_R   0.187949 0.918687 0.550128 0.226912
O71   O     O_R   0.210768 0.908220 0.583342 -0.352346
O72   O     O_R   0.142913 0.884088 0.538195 -0.358209
N13   N     N_R   0.081319 0.812051 0.449876 0.226912
O73   O     O_R   0.091794 0.789230 0.416663 -0.352355
O74   O     O_R   0.115914 0.857090 0.461810 -0.358218
N14   N     N_R   0.812051 0.918686 0.449873 0.226911
O75   O     O_R   0.789232 0.908219 0.416658 -0.352352
O76   O     O_R   0.857087 0.884087 0.461806 -0.358211
N15   N     N_R   0.918682 0.187949 0.449875 0.226912
O77   O     O_R   0.908211 0.210769 0.416662 -0.352355
O78   O     O_R   0.884086 0.142911 0.461809 -0.358216
N16   N     N_R   0.187949 0.081313 0.449873 0.226912
O79   O     O_R   0.210767 0.091780 0.416658 -0.352351
O80   O     O_R   0.142913 0.115913 0.461806 -0.358211
C129  C     C_1   0.499844 0.884940 0.692851 0.199075
N17   N     N_1   0.499783 0.837991 0.708406 -0.149114
C130  C     C_1   0.115059 0.499513 0.692852 0.199082
N18   N     N_1   0.162007 0.499314 0.708407 -0.149110
C131  C     C_1   0.500156 0.115060 0.692851 0.199074
N19   N     N_1   0.500216 0.162009 0.708406 -0.149113
C132  C     C_1   0.884942 0.500487 0.692852 0.199082
N20   N     N_1   0.837994 0.500685 0.708407 -0.149110
C133  C     C_1   0.499599 0.115059 0.307148 0.199080
N21   N     N_1   0.499436 0.162008 0.291594 -0.149110
C134  C     C_1   0.115058 0.500550 0.307148 0.199083
N22   N     N_1   0.162006 0.500775 0.291594 -0.149108
C135  C     C_1   0.500402 0.884941 0.307148 0.199080
N23   N     N_1   0.500565 0.837992 0.291594 -0.149110
C136  C     C_1   0.884941 0.499450 0.307148 0.199083
N24   N     N_1   0.837993 0.499226 0.291594 -0.149108
C137  C     C_1   0.999716 0.384941 0.192852 0.199078
N25   N     N_1   0.999601 0.337992 0.208407 -0.149112
C138  C     C_1   0.615060 0.999878 0.192851 0.199074
N26   N     N_1   0.662009 0.999831 0.208406 -0.149114
C139  C     C_1   0.000284 0.615060 0.192852 0.199078
N27   N     N_1   0.000398 0.662008 0.208406 -0.149113
C140  C     C_1   0.384940 0.000121 0.192851 0.199074
N28   N     N_1   0.337991 0.000168 0.208406 -0.149114
C141  C     C_1   0.999568 0.615059 0.807148 0.199080
N29   N     N_1   0.999392 0.662007 0.791593 -0.149110
C142  C     C_1   0.615058 0.000573 0.807148 0.199083
N30   N     N_1   0.662006 0.000807 0.791594 -0.149107
C143  C     C_1   0.000432 0.384941 0.807148 0.199080
N31   N     N_1   0.000608 0.337992 0.791594 -0.149110
C144  C     C_1   0.384941 0.999428 0.807148 0.199083
N32   N     N_1   0.337993 0.999194 0.791594 -0.149107

loop_
_geom_bond_atom_site_label_1
_geom_bond_atom_site_label_2
_geom_bond_distance
_ccdc_geom_bond_type
O7    C1    1.275903 A    
C68   C82   1.402549 A    
Zn10  O38   2.018224 S    
C75   C85   1.402548 A    
C23   C45   1.389411 A    
C6    C46   1.424676 S    
O29   Zn5   2.013159 S    
O2    C2    1.275903 A    
C141  N29   1.157279 T    
C11   C43   1.389408 A    
C143  N31   1.157276 T    
C72   C84   1.402548 A    
C50   C130  1.445632 S    
O34   C122  1.272939 A    
C38   C125  1.436803 S    
C12   H20   1.084463 S    
O33   C121  1.272940 A    
N2    O51   1.301433 A    
C61   C141  1.445625 S    
C17   C113  1.384587 A    
Zn12  O47   2.018224 S    
C114  N10   1.439597 S    
N11   O69   1.301433 A    
C75   H11   1.084303 S    
O10   C6    1.275903 A    
C132  N20   1.157267 T    
O23   Zn3   2.013159 S    
C10   C42   1.389408 A    
C59   C93   1.406846 A    
C58   C94   1.406848 A    
C37   C119  1.416646 A    
C109  N5    1.439597 S    
O46   C128  1.272939 A    
C49   C129  1.445626 S    
C40   C120  1.416644 A    
C22   C118  1.384588 A    
C80   C88   1.402549 A    
C77   C87   1.402549 A    
O41   C125  1.272938 A    
C60   C140  1.445622 S    
C78   C88   1.402547 A    
O31   C31   1.286167 A    
N8    O64   1.300567 A    
C59   C75   1.393078 A    
Zn10  O39   2.018224 S    
O11   Zn7   2.016133 S    
C96   C104  1.429257 S    
C24   C48   1.389407 A    
C40   C127  1.436803 S    
O47   C127  1.272941 A    
C18   H26   1.084464 S    
C64   C80   1.393075 A    
C113  N9    1.439598 S    
C130  N18   1.157265 T    
C33   C124  1.436802 S    
C17   H25   1.084464 S    
O26   C30   1.286168 A    
O45   C125  1.272941 A    
N6    O59   1.301434 A    
O13   C7    1.275903 A    
O7    Zn3   2.016136 S    
C63   C143  1.445626 S    
N13   O73   1.301433 A    
C12   C108  1.384588 A    
C53   C91   1.406848 A    
O23   C27   1.286169 A    
Zn9   O34   2.018226 S    
C36   C112  1.416645 A    
C111  N7    1.439599 S    
C65   C81   1.402547 A    
N12   O72   1.300564 A    
O35   C123  1.272937 A    
C54   C134  1.445626 S    
C16   C112  1.384588 A    
C119  N15   1.439598 S    
C26   C87   1.464420 S    
C52   C68   1.393078 A    
N7    O61   1.301432 A    
C27   C86   1.464423 S    
C73   C85   1.402549 A    
C55   C135  1.445627 S    
C60   C76   1.393075 A    
O37   C121  1.272937 A    
C35   C109  1.416645 A    
O1    Zn1   2.016135 S    
C134  N22   1.157274 T    
C39   C117  1.416648 A    
C10   H18   1.084464 S    
Zn11  O44   2.018224 S    
O39   C123  1.272940 A    
C67   H3    1.084301 S    
C30   C83   1.464427 S    
C33   C111  1.416643 A    
N14   O76   1.300567 A    
C91   C99   1.429253 S    
N5    O57   1.301431 A    
C20   C116  1.384588 A    
C53   C133  1.445626 S    
C78   H14   1.084303 S    
C63   C95   1.406847 A    
C89   C97   1.429253 S    
C140  N28   1.157281 T    
O6    Zn4   2.016134 S    
O12   Zn8   2.016137 S    
C77   H13   1.084300 S    
O16   C8    1.275904 A    
C11   H19   1.084465 S    
C14   C42   1.389409 A    
C133  N21   1.157276 T    
C69   H5    1.084299 S    
C99   C102  1.193844 T    
C21   H29   1.084463 S    
C74   H10   1.084301 S    
O38   C124  1.272940 A    
C62   C78   1.393075 A    
C13   C43   1.389409 A    
O43   C127  1.272938 A    
C68   H4    1.084301 S    
C3    C43   1.424675 S    
O9    Zn5   2.016135 S    
O29   C31   1.286168 A    
N10   O68   1.300565 A    
C22   H30   1.084464 S    
O30   C32   1.286168 A    
C32   C81   1.464423 S    
O18   C26   1.286170 A    
C54   C92   1.406847 A    
C79   C87   1.402548 A    
C56   C92   1.406846 A    
O6    C2    1.275904 A    
O30   Zn8   2.013159 S    
C56   C136  1.445628 S    
C34   C110  1.416645 A    
C71   C83   1.402547 A    
O48   C126  1.272940 A    
O18   Zn2   2.013159 S    
C16   H24   1.084463 S    
C51   C131  1.445625 S    
C55   C91   1.406847 A    
C50   C66   1.393078 A    
C34   C106  1.416645 A    
Zn11  O41   2.018227 S    
O19   C25   1.286170 A    
C106  N2    1.439597 S    
C142  N30   1.157275 T    
C22   C46   1.389408 A    
Zn12  O45   2.018227 S    
O42   C126  1.272936 A    
C23   H31   1.084463 S    
C7    C47   1.424677 S    
O28   C30   1.286169 A    
O36   C124  1.272938 A    
C135  N23   1.157276 T    
C14   H22   1.084463 S    
C52   C90   1.406845 A    
C61   C95   1.406848 A    
C5    C45   1.424677 S    
C13   H21   1.084465 S    
O4    Zn4   2.016137 S    
C14   C110  1.384588 A    
C57   C137  1.445628 S    
N13   O74   1.300563 A    
N7    O62   1.300566 A    
C95   C103  1.429253 S    
Zn9   O35   2.018225 S    
C49   C89   1.406849 A    
C144  N32   1.157276 T    
C116  N12   1.439597 S    
O16   Zn6   2.016136 S    
C55   C71   1.393075 A    
C137  N25   1.157273 T    
C51   C67   1.393075 A    
C28   C85   1.464423 S    
N1    O49   1.301434 A    
C56   C72   1.393078 A    
O21   C27   1.286170 A    
C115  N11   1.439599 S    
N3    O53   1.301434 A    
C76   H12   1.084299 S    
C34   C121  1.436803 S    
O40   C122  1.272937 A    
N4    O56   1.300565 A    
C39   C126  1.436802 S    
C9    C41   1.389408 A    
O3    C3    1.275905 A    
C66   H2    1.084303 S    
O5    Zn1   2.016134 S    
Zn9   O33   2.018227 S    
C131  N19   1.157280 T    
O44   C128  1.272937 A    
O17   Zn1   2.013159 S    
C21   C47   1.389408 A    
C21   C117  1.384589 A    
O8    C4    1.275904 A    
C52   C132  1.445632 S    
C19   C115  1.384587 A    
C51   C89   1.406848 A    
N5    O58   1.300566 A    
C40   C116  1.416646 A    
N16   O80   1.300564 A    
C70   H6    1.084304 S    
O21   Zn1   2.013159 S    
O10   Zn6   2.016134 S    
C105  N1    1.439598 S    
C33   C105  1.416642 A    
N3    O54   1.300564 A    
N11   O70   1.300565 A    
N1    O50   1.300566 A    
C11   C107  1.384587 A    
N9    O66   1.300565 A    
C138  N26   1.157279 T    
C71   H7    1.084302 S    
C136  N24   1.157273 T    
C90   C98   1.429257 S    
C31   C82   1.464423 S    
C76   C86   1.402547 A    
O24   C28   1.286169 A    
C57   C73   1.393075 A    
C67   C81   1.402548 A    
O9    C5    1.275905 A    
C37   C128  1.436802 S    
C74   C86   1.402548 A    
O17   C25   1.286169 A    
C24   H32   1.084464 S    
O22   C28   1.286168 A    
N10   O67   1.301433 A    
O24   Zn2   2.013159 S    
C24   C120  1.384585 A    
C35   C122  1.436804 S    
C19   H27   1.084464 S    
N15   O78   1.300566 A    
C57   C93   1.406847 A    
O26   Zn6   2.013159 S    
C100  C101  1.193844 T    
C37   C113  1.416644 A    
C94   C102  1.429253 S    
C25   C88   1.464423 S    
O20   Zn4   2.013159 S    
C38   C118  1.416645 A    
O14   Zn8   2.016134 S    
C8    C48   1.424676 S    
C63   C79   1.393078 A    
O12   C8    1.275903 A    
N9    O65   1.301432 A    
N14   O75   1.301432 A    
O2    Zn2   2.016134 S    
C36   C123  1.436803 S    
N2    O52   1.300565 A    
C66   C82   1.402549 A    
Zn10  O37   2.018227 S    
C15   C111  1.384589 A    
O20   C26   1.286171 A    
Zn12  O48   2.018226 S    
C29   C84   1.464420 S    
C62   C142  1.445626 S    
O5    C3    1.275903 A    
O25   Zn5   2.013159 S    
O15   Zn7   2.016136 S    
O32   Zn6   2.013159 S    
C19   C47   1.389409 A    
O1    C1    1.275905 A    
O32   C32   1.286169 A    
Zn9   O36   2.018224 S    
C12   C44   1.389407 A    
C65   H1    1.084300 S    
C18   C114  1.384588 A    
C60   C94   1.406847 A    
C118  N14   1.439594 S    
C64   C96   1.406847 A    
N12   O71   1.301432 A    
C70   C84   1.402548 A    
C53   C69   1.393075 A    
C61   C77   1.393075 A    
C98   C103  1.193841 T    
C50   C90   1.406845 A    
C54   C70   1.393075 A    
C58   C138  1.445624 S    
Zn10  O40   2.018226 S    
C39   C115  1.416643 A    
O14   C6    1.275904 A    
C117  N13   1.439597 S    
C59   C139  1.445627 S    
O13   Zn5   2.016134 S    
O27   C29   1.286172 A    
C64   C144  1.445625 S    
N15   O77   1.301431 A    
N8    O63   1.301433 A    
O11   C7    1.275905 A    
C35   C107  1.416644 A    
C2    C42   1.424678 S    
C108  N4    1.439597 S    
N6    O60   1.300565 A    
C15   H23   1.084464 S    
C36   C108  1.416645 A    
Zn11  O42   2.018226 S    
C1    C41   1.424675 S    
C15   C41   1.389408 A    
C9    H17   1.084464 S    
N4    O55   1.301435 A    
C10   C106  1.384588 A    
C20   C48   1.389409 A    
C79   H15   1.084301 S    
C72   H8    1.084301 S    
C58   C74   1.393075 A    
N16   O79   1.301433 A    
C18   C46   1.389409 A    
C110  N6    1.439596 S    
O27   Zn7   2.013159 S    
C9    C105  1.384587 A    
O4    C4    1.275903 A    
C16   C44   1.389408 A    
O15   C5    1.275903 A    
C23   C119  1.384587 A    
C20   H28   1.084464 S    
O25   C29   1.286170 A    
Zn12  O46   2.018224 S    
C49   C65   1.393075 A    
O19   Zn3   2.013159 S    
C38   C114  1.416644 A    
C97   C104  1.193841 T    
O31   Zn7   2.013159 S    
C139  N27   1.157273 T    
Zn11  O43   2.018225 S    
C120  N16   1.439597 S    
C92   C100  1.429253 S    
C17   C45   1.389406 A    
C80   H16   1.084302 S    
O3    Zn3   2.016133 S    
C129  N17   1.157278 T    
C93   C101  1.429253 S    
C107  N3    1.439597 S    
C112  N8    1.439598 S    
C69   C83   1.402546 A    
O22   Zn4   2.013159 S    
C13   C109  1.384587 A    
O28   Zn8   2.013159 S    
C73   H9    1.084302 S    
C62   C96   1.406846 A    
C4    C44   1.424678 S    
O8    Zn2   2.016136 S    
