data_mof_unit_55571.cif
_audit_creation_date              2012-12-11T14:29:33-0500
_audit_creation_method            fapswitch 2.2
_symmetry_space_group_name_H-M    P1
_symmetry_Int_Tables_number       1
_space_group_crystal_system       triclinic
_cell_length_a                    6.924105
_cell_length_b                    14.76922
_cell_length_c                    16.293147
_cell_angle_alpha                 90.356879
_cell_angle_beta                  90.247902
_cell_angle_gamma                 89.907729
_cell_volume                      1666.14635105

loop_
_atom_site_label
_atom_site_type_symbol
_atom_type_description
_atom_site_fract_x
_atom_site_fract_y
_atom_site_fract_z
_atom_type_partial_charge
O1    O     O_R   0.494400 0.416610 0.413880 -0.546014
O2    O     O_R   0.823920 0.406790 0.585520 -0.520472
O3    O     O_R   0.994250 0.583390 0.586120 -0.546503
C1    C     C_R   0.655523 0.384437 0.613265 0.806879
O4    O     O_R   0.824110 0.405730 0.414490 -0.544560
O5    O     O_R   0.994440 0.582310 0.413870 -0.513803
C2    C     C_R   0.654349 0.383423 0.386630 0.778033
O6    O     O_R   0.494210 0.417690 0.586130 -0.534996
O7    O     O_3   0.660810 0.557940 0.500000 -0.357341
V1    V     V_3+5 0.935650 0.489250 0.500000 1.592769
O8    O     O_R   0.324160 0.593210 0.414480 -0.531792
C3    C     C_R   0.153951 0.616417 0.387306 0.777464
O9    O     O_R   0.323970 0.594270 0.585510 -0.547313
C4    C     C_R   0.154711 0.616179 0.614016 0.675315
V2    V     V_3+5 0.435660 0.510750 0.500000 1.575462
O10   O     O_3   0.160630 0.442060 0.500000 -0.363222
C5    C     C_R   0.969429 0.575108 0.769070 -0.214063
C6    C     C_R   0.897541 0.549810 0.845098 0.401652
C7    C     C_R   0.934704 0.603122 0.913363 -0.120496
C8    C     C_R   0.029918 0.685500 0.905242 0.281038
C9    C     C_R   0.069883 0.721435 0.826115 -0.010225
C10   C     C_R   0.058247 0.660691 0.757975 -0.021885
C11   C     C_R   0.121634 0.813944 0.813221 -0.112420
C12   C     C_R   0.183753 0.841891 0.733236 -0.076413
C13   C     C_R   0.208926 0.774643 0.670446 -0.019619
C14   C     C_R   0.141779 0.684740 0.681863 -0.058062
C15   C     C_R   0.221816 0.934556 0.712227 0.213842
C16   C     C_R   0.312671 0.955843 0.637637 0.377635
C17   C     C_R   0.349970 0.887995 0.580028 0.353922
C18   C     C_R   0.292072 0.799813 0.594942 -0.270994
H1    H     H_    0.953066 0.526662 0.719783 0.164883
C19   C     C_2   0.980225 0.726047 0.293557 0.410511
C20   C     C_2   0.143983 0.683239 0.319379 -0.318976
C21   C     C_2   0.972423 0.788280 0.221701 -0.122215
C22   C     C_2   0.126808 0.823253 0.183511 -0.264724
C23   C     C_2   0.779091 0.222364 0.792430 0.437693
C24   C     C_2   0.618806 0.175225 0.813175 -0.352161
H2    H     H_    0.492147 0.177794 0.773744 0.191935
C25   C     C_2   0.793806 0.272613 0.713829 0.399540
C26   C     C_2   0.644056 0.321636 0.683780 -0.328983
C27   C     C_2   0.781967 0.200802 0.223179 0.418934
C28   C     C_2   0.620642 0.181539 0.178058 -0.310660
C29   C     C_2   0.790824 0.273348 0.287188 -0.135286
C30   C     C_2   0.636683 0.313953 0.321279 -0.329633
O11   O     O_R   0.770210 0.079270 0.910680 -0.508923
O12   O     O_R   0.440150 0.091160 0.082270 -0.538275
O13   O     O_R   0.269970 0.914530 0.082860 -0.540938
C31   C     C_R   0.609914 0.112283 0.111507 0.780342
O14   O     O_R   0.440480 0.090100 0.911240 -0.516397
O15   O     O_R   0.270310 0.913460 0.910610 -0.528174
C32   C     C_R   0.609652 0.112728 0.883838 0.828218
O16   O     O_R   0.769870 0.080340 0.082930 -0.517014
O17   O     O_3   0.603660 0.938980 0.996790 -0.393947
V3    V     V_3+5 0.328750 0.007610 0.996740 1.671944
O18   O     O_R   0.940600 0.902510 0.911180 -0.538763
C33   C     C_R   0.109773 0.880332 0.882728 0.862957
O19   O     O_R   0.940270 0.903570 0.082200 -0.543647
C34   C     C_R   0.109448 0.886545 0.113716 0.863099
V4    V     V_3+5 0.828770 0.986010 0.996670 1.637521
O20   O     O_3   0.103730 0.054750 0.996710 -0.334388
Cl1   Cl    Cl    0.459261 0.912316 0.485250 -0.471027
H3    H     H_    0.279437 0.695538 0.288475 0.146874
H4    H     H_    0.829403 0.808002 0.200639 0.174233
H5    H     H_    0.271765 0.807855 0.204484 0.149596
Cl2   Cl    Cl    0.983154 0.229011 0.858310 -0.465921
Cl3   Cl    Cl    0.021125 0.267870 0.664509 -0.482051
H6    H     H_    0.506919 0.320319 0.715874 0.164385
Cl4   Cl    Cl    0.001856 0.141276 0.210373 -0.623792
H7    H     H_    0.488507 0.219002 0.188857 0.134756
H8    H     H_    0.933859 0.291899 0.309164 0.178354
H9    H     H_    0.491581 0.295101 0.302894 0.154522
Cl5   Cl    Cl    0.774046 0.447342 0.856624 -0.613535
H10   H     H_    0.898224 0.578123 0.973718 0.193804
Cl6   Cl    Cl    0.137789 0.725561 0.995657 -0.694046
Cl7   Cl    Cl    0.133878 0.028203 0.769186 -0.544542
Cl8   Cl    Cl    0.375534 0.068893 0.614497 -0.452941
H11   H     H_    0.312798 0.751663 0.545624 0.178741
Cl9   Cl    Cl    0.755687 0.711973 0.343161 -0.595702

loop_
_geom_bond_atom_site_label_1
_geom_bond_atom_site_label_2
_ccdc_geom_bond_type
O18   C33   A    
O18   V4    S    
C27   C28   D    
C7    C8    A    
C12   C15   A    
C1    O6    A    
O17   V4    S    
C11   C33   S    
V3    O20   S    
O17   V3    S    
C17   C18   A    
C22   C34   S    
C16   C17   A    
C21   C22   D    
O5    C3    A    
C24   C32   S    
O19   V4    S    
O11   C32   A    
O14   V3    S    
C30   H9    S    
C6    C7    A    
C18   H11   S    
O8    V2    S    
O11   V4    S    
C1    C26   S    
C20   H3    S    
O14   C32   A    
C26   H6    S    
C11   C12   A    
C22   H5    S    
O1    V2    S    
O7    V1    S    
V4    O20   S    
O9    C4    A    
C27   C29   S    
C15   Cl7   S    
C27   Cl4   S    
C17   Cl1   S    
C6    Cl5   S    
O12   C31   A    
C7    H10   S    
C12   C13   A    
C25   C26   D    
O4    C2    A    
C23   Cl2   S    
C28   C31   S    
C13   C14   A    
C28   H7    S    
O15   C33   A    
C19   C21   S    
O2    C1    A    
C29   C30   D    
C24   H2    S    
O16   V4    S    
O12   V3    S    
C5    C6    A    
C8    Cl6   S    
O15   V3    S    
C2    C30   S    
C4    C14   S    
O3    C4    A    
O13   V3    S    
C29   H8    S    
O9    V2    S    
C5    H1    S    
C25   Cl3   S    
O2    V1    S    
C13   C18   A    
C23   C24   D    
O1    C2    A    
C23   C25   S    
O5    V1    S    
O8    C3    A    
O6    V2    S    
C5    C10   A    
C19   C20   D    
C9    C11   A    
O7    V2    S    
O4    V1    S    
O3    V1    S    
V1    O10   S    
O13   C34   A    
O19   C34   A    
C21   H4    S    
C19   Cl9   S    
C31   O16   A    
C8    C9    A    
C10   C14   A    
C15   C16   A    
C3    C20   S    
C9    C10   A    
V2    O10   S    
C16   Cl8   S    
