data_mof_unit_14482.cif
_audit_creation_date              2013-03-05T15:56:13-0500
_audit_creation_method            fapswitch 2.2
_symmetry_space_group_name_H-M    P1
_symmetry_Int_Tables_number       1
_space_group_crystal_system       triclinic
_cell_length_a                    12.310434
_cell_length_b                    13.198627
_cell_length_c                    19.31465
_cell_angle_alpha                 77.379617
_cell_angle_beta                  101.312978
_cell_angle_gamma                 116.190145
_cell_volume                      2730.14618228

loop_
_atom_site_label
_atom_site_type_symbol
_atom_site_description
_atom_site_fract_x
_atom_site_fract_y
_atom_site_fract_z
_atom_type_partial_charge
O1    O     O_R   0.972510 0.318130 0.520450 -0.583132
O2    O     O_R   0.806530 0.359650 0.492990 -0.609755
C1    C     C_R   0.855031 0.286643 0.508461 0.781100
O3    O     O_R   0.083010 0.479220 0.613590 -0.530700
O4    O     O_R   0.917030 0.520740 0.586130 -0.580355
C2    C     C_R   0.000790 0.501433 0.632465 0.882657
Cu1   Cu    Cu3+1 0.098280 0.475420 0.516260 1.003467
Cu2   Cu    Cu3+1 0.901720 0.524580 0.483740 0.989367
O5    O     O_R   0.193470 0.640350 0.507010 -0.544725
O6    O     O_R   0.027490 0.681870 0.479550 -0.534415
O7    O     O_R   0.082970 0.479260 0.413870 -0.597454
O8    O     O_R   0.916990 0.520780 0.386410 -0.587459
C3    C     C_R   0.145157 0.713684 0.490726 0.889603
C4    C     C_R   0.001548 0.502337 0.367427 0.785412
C5    C     C_R   0.043132 0.432455 0.762285 0.174368
C6    C     C_R   0.045445 0.435997 0.835194 0.223631
C7    C     C_R   0.005162 0.510031 0.853982 -0.078246
C8    C     C_R   0.962410 0.578634 0.800970 -0.241552
H1    H     H_    0.933717 0.636802 0.815991 0.221359
C9    C     C_R   0.963688 0.579339 0.728811 0.281251
C10   C     C_R   0.002872 0.504894 0.708759 -0.213153
N1    N     N_R   0.916140 0.524966 0.952160 -0.206882
N2    N     N_R   0.919668 0.531343 0.020389 -0.151533
C11   C     C_R   0.017895 0.533929 0.067736 0.439725
N3    N     N_R   0.111844 0.528279 0.044403 -0.230758
N4    N     N_R   0.108107 0.521275 0.976275 -0.177427
C12   C     C_R   0.010025 0.519112 0.929044 0.463783
C13   C     C_R   0.083512 0.481317 0.194777 -0.190739
H2    H     H_    0.135825 0.444741 0.178192 0.184223
C14   C     C_R   0.078161 0.470596 0.267469 -0.174884
H3    H     H_    0.128037 0.428102 0.305253 0.177158
C15   C     C_R   0.007054 0.512097 0.290876 -0.091434
C16   C     C_R   0.944343 0.567645 0.240704 -0.231154
H4    H     H_    0.892736 0.603758 0.258517 0.180312
C17   C     C_R   0.952006 0.582297 0.167584 0.358198
C18   C     C_R   0.019404 0.535253 0.144043 -0.056214
C19   C     C_R   0.278284 0.024850 0.412529 -0.194225
H5    H     H_    0.249954 0.079063 0.369560 0.201993
C20   C     C_R   0.227867 0.836367 0.481200 -0.161645
C21   C     C_R   0.809406 0.098396 0.581308 -0.272699
C22   C     C_R   0.723124 0.004866 0.619451 0.354545
C23   C     C_R   0.599344 0.976822 0.596859 -0.153719
C24   C     C_R   0.559865 0.027722 0.530280 0.042484
C25   C     C_R   0.648284 0.126256 0.494820 0.016784
C26   C     C_R   0.435560 0.986931 0.498822 -0.051445
C27   C     C_R   0.400158 0.060158 0.442366 -0.045212
C28   C     C_R   0.489111 0.162703 0.411442 0.342183
C29   C     C_R   0.611250 0.187115 0.432843 -0.226778
C30   C     C_R   0.347776 0.873360 0.517236 0.245052
C31   C     C_R   0.192879 0.913877 0.430156 0.198256
C32   C     C_R   0.772123 0.165699 0.523963 -0.128367
H6    H     H_    0.905023 0.126283 0.601238 0.186871
H7    H     H_    0.535749 0.917976 0.633405 0.218045
H8    H     H_    0.677329 0.258058 0.401884 0.194968
C33   C     C_R   0.347672 0.328684 0.613714 -0.267993
H9    H     H_    0.170187 0.309692 0.626405 0.140311
H10   H     H_    0.548487 0.295145 0.637079 0.155160
H11   H     H_    0.347350 0.262187 0.658104 0.154518
N5    N     N_R   0.246290 0.438200 0.540910 -0.188061
C34   C     C_R   0.758401 0.644125 0.403115 0.041156
C35   C     C_R   0.660553 0.674898 0.380549 0.204577
C36   C     C_R   0.557870 0.620604 0.417840 -0.143595
C37   C     C_R   0.550941 0.533867 0.476535 -0.028377
C38   C     C_R   0.653162 0.505143 0.496663 0.300749
C39   C     C_R   0.446869 0.474730 0.516015 0.011002
C40   C     C_R   0.447391 0.388100 0.574110 0.172394
C41   C     C_R   0.547490 0.361261 0.592638 -0.246940
C42   C     C_R   0.648094 0.418757 0.555093 -0.134646
C43   C     C_R   0.341426 0.497226 0.500759 0.115784
C44   C     C_R   0.247487 0.355286 0.596133 0.103014
N6    N     N_R   0.754310 0.561190 0.459520 -0.215593
H12   H     H_    0.332754 0.561250 0.457535 0.120459
H13   H     H_    0.838043 0.685519 0.374918 0.141657
H14   H     H_    0.485512 0.648496 0.400156 0.146459
H15   H     H_    0.720105 0.392307 0.574165 0.189214
N7    N     N_2   0.075874 0.352826 0.742227 -0.419175
H16   H     H_    0.152625 0.345284 0.770646 0.259161
C45   C     C_3   0.975201 0.244464 0.731542 -0.627919
H17   H     H_    0.933910 0.200143 0.781941 0.245922
H18   H     H_    0.008808 0.189720 0.714198 0.242987
H19   H     H_    0.904613 0.257336 0.689607 0.204328
N8    N     N_R   0.457550 0.240933 0.356136 0.111740
O9    O     O_R   0.518579 0.287622 0.301075 -0.341216
O10   O     O_R   0.385492 0.282459 0.367513 -0.384217
N9    N     N_R   0.382811 0.790361 0.565205 0.113900
O11   O     O_R   0.332401 0.740884 0.623998 -0.330490
O12   O     O_R   0.455705 0.755967 0.546713 -0.345406
N10   N     N_R   0.760714 0.942297 0.683080 0.149046
O13   O     O_R   0.875445 0.964343 0.701933 -0.333263
O14   O     O_R   0.680275 0.858741 0.720751 -0.286031
N11   N     N_2   0.083663 0.362524 0.889876 -0.417273
H20   H     H_    0.156534 0.348683 0.882875 0.265729
C46   C     C_3   0.988833 0.265100 0.925771 -0.603086
H21   H     H_    0.982342 0.184872 0.912296 0.229787
H22   H     H_    0.898369 0.268407 0.910501 0.223073
H23   H     H_    0.012063 0.263664 0.984362 0.249699
N12   N     N_2   0.666846 0.762655 0.321468 -0.434573
H24   H     H_    0.753756 0.813963 0.307850 0.250108
C47   C     C_3   0.579688 0.725311 0.259936 -0.577769
H25   H     H_    0.589919 0.799869 0.217559 0.236467
H26   H     H_    0.484898 0.686594 0.274004 0.225471
H27   H     H_    0.596096 0.662122 0.238627 0.251067
N13   N     N_R   0.931357 0.660800 0.677076 0.148762
O15   O     O_R   0.005102 0.728977 0.630352 -0.326386
O16   O     O_R   0.840021 0.680703 0.684456 -0.281889
N14   N     N_R   0.896103 0.649519 0.118894 0.130255
O17   O     O_R   0.956872 0.728570 0.070120 -0.319678
O18   O     O_R   0.793956 0.645884 0.130912 -0.335732
N15   N     N_2   0.076099 0.877662 0.389459 -0.411232
H28   H     H_    0.038917 0.936337 0.381118 0.262024
C48   C     C_3   0.072784 0.840580 0.323508 -0.664674
H29   H     H_    0.136018 0.911739 0.288222 0.240672
H30   H     H_    0.979362 0.813063 0.294790 0.219052
H31   H     H_    0.098665 0.767423 0.334746 0.218777

loop_
_geom_bond_atom_site_label_1
_geom_bond_atom_site_label_2
_geom_bond_distance
_ccdc_geom_bond_type
C37   C39   1.439659 A    
C46   H21   1.110398 S    
C22   C23   1.400422 A    
C17   C18   1.416612 A    
N12   H24   1.032220 S    
Cu1   Cu2   2.698545 S    
C9    N13   1.437046 S    
C26   C27   1.427560 A    
C42   H15   1.064084 S    
C29   H8    1.081600 S    
N4    C12   1.356360 A    
C11   C18   1.474136 S    
C38   C42   1.407162 A    
C13   H2    1.083194 S    
C19   H5    1.081490 S    
N7    C45   1.445025 S    
N15   C48   1.448510 S    
C23   H7    1.074663 S    
O4    C2    1.303577 A    
O7    C4    1.303632 A    
C45   H18   1.108816 S    
C28   N8    1.437872 S    
N14   O17   1.301431 A    
C5    C6    1.413485 A    
C34   H13   1.078414 S    
C8    H1    1.084099 S    
C38   N6    1.384862 A    
O5    C3    1.300461 A    
N13   O16   1.301357 A    
C28   C29   1.386423 A    
C6    C7    1.409160 A    
N2    C11   1.357571 A    
N10   O13   1.301489 A    
C5    N7    1.424865 S    
C46   H22   1.112447 S    
H10   C41   1.084635 S    
O3    Cu1   1.939080 S    
Cu1   N5    2.033590 S    
N12   C47   1.447574 S    
C16   H4    1.083462 S    
N9    O12   1.301945 A    
O2    Cu2   1.950457 S    
C41   C42   1.384866 A    
C7    C12   1.468123 S    
C30   N9    1.435702 S    
N7    H16   1.029366 S    
O3    C2    1.302597 A    
N11   H20   1.029299 S    
C1    C32   1.467112 S    
C45   H17   1.109491 S    
C34   N6    1.356239 A    
N3    N4    1.329597 A    
N9    O11   1.302219 A    
C2    C10   1.479105 S    
C31   N15   1.423848 S    
C34   C35   1.397996 A    
O1    C1    1.303072 A    
C43   H12   1.076504 S    
Cu1   O7    1.941002 S    
C24   C25   1.413840 A    
C36   C37   1.409856 A    
N11   C46   1.449086 S    
C47   H25   1.110510 S    
C26   C30   1.424496 A    
Cu2   O8    1.939079 S    
C20   C31   1.409157 A    
C7    C8    1.396193 A    
C48   H30   1.109634 S    
C11   N3    1.357046 A    
C24   C26   1.432350 A    
N5    C43   1.366349 A    
C25   C32   1.415202 A    
C21   C22   1.395361 A    
C20   C30   1.418107 A    
N10   O14   1.301648 A    
N8    O9    1.301385 A    
C46   H23   1.109615 S    
H9    C44   1.081015 S    
N1    C12   1.355519 A    
C23   C24   1.416575 A    
C33   C40   1.401280 A    
Cu1   O5    1.950457 S    
C22   N10   1.441242 S    
C27   C28   1.408129 A    
Cu2   N6    2.021770 S    
C48   H29   1.111600 S    
C47   H26   1.110854 S    
O1    Cu1   1.962668 S    
C35   N12   1.423970 S    
C4    C15   1.468235 S    
O6    C3    1.304304 A    
O4    Cu2   1.941004 S    
C21   C32   1.398940 A    
N8    O10   1.301474 A    
C15   C16   1.402932 A    
C13   C14   1.391725 A    
O2    C1    1.298586 A    
O8    C4    1.299860 A    
C17   N14   1.437237 S    
C21   H6    1.082088 S    
N15   H28   1.031826 S    
C14   C15   1.399073 A    
C19   C31   1.389183 A    
C45   H19   1.110880 S    
C14   H3    1.083263 S    
N14   O18   1.301471 A    
C39   C43   1.418380 A    
C16   C17   1.399170 A    
C40   C41   1.388860 A    
C48   H31   1.110770 S    
C8    C9    1.394846 A    
C35   C36   1.400810 A    
C3    C20   1.476666 S    
C33   C44   1.387633 A    
N5    C44   1.354054 A    
C37   C38   1.429391 A    
C5    C10   1.419120 A    
C47   H27   1.112244 S    
C9    C10   1.416376 A    
C13   C18   1.406238 A    
C6    N11   1.427398 S    
Cu2   O6    1.962669 S    
C39   C40   1.417565 A    
C33   H11   1.083903 S    
N13   O15   1.301451 A    
N1    N2    1.329825 A    
C36   H14   1.077392 S    
C19   C27   1.400438 A    
C25   C29   1.405343 A    
