data_mof_unit_49606.cif
_audit_creation_date              2012-10-26T20:59:01-0400
_audit_creation_method            fapswitch 2.2
_symmetry_space_group_name_H-M    P1
_symmetry_Int_Tables_number       1
_space_group_crystal_system       triclinic
_cell_length_a                    27.81394
_cell_length_b                    10.608886
_cell_length_c                    9.419207
_cell_angle_alpha                 89.47209
_cell_angle_beta                  89.762345
_cell_angle_gamma                 90.162631
_cell_volume                      2779.21835633

loop_
_atom_site_label
_atom_site_type_symbol
_atom_type_description
_atom_site_fract_x
_atom_site_fract_y
_atom_site_fract_z
_atom_type_partial_charge
C1    C     C_R   0.499951 0.259415 0.500592 0.551991
C2    C     C_R   0.872544 0.390592 0.459374 0.024635
C3    C     C_R   0.354588 0.501119 0.500631 0.004595
C4    C     C_R   0.645426 0.498832 0.499418 0.003920
C5    C     C_R   0.974579 0.388344 0.463058 0.018154
C6    C     C_R   0.025535 0.612964 0.532162 0.018446
C7    C     C_R   0.974426 0.611324 0.536901 0.018151
C8    C     C_R   0.025662 0.387401 0.468671 0.018437
C9    C     C_R   0.949256 0.499657 0.499778 0.033981
C10   C     C_R   0.050845 0.500358 0.500615 0.034024
C11   C     C_R   0.947659 0.281640 0.420893 -0.141699
C12   C     C_R   0.500048 0.740585 0.499408 0.552028
C13   C     C_R   0.052499 0.723969 0.557081 -0.141301
C14   C     C_R   0.897746 0.282942 0.419494 -0.112524
C15   C     C_R   0.102419 0.723311 0.555930 -0.112493
C16   C     C_R   0.407529 0.500356 0.500228 0.544374
C17   C     C_R   0.592475 0.499632 0.499777 0.544376
C18   C     C_R   0.052719 0.276750 0.444266 -0.141321
C19   C     C_R   0.947325 0.717674 0.578559 -0.141701
C20   C     C_3   0.498016 0.038965 0.635302 -0.116089
C21   C     C_3   0.501983 0.961035 0.364700 -0.116099
C22   C     C_3   0.538520 0.957484 0.571262 -0.127093
C23   C     C_R   0.101992 0.500714 0.500991 -0.027122
C24   C     C_3   0.461478 0.042516 0.428739 -0.126886
C25   C     C_3   0.500082 0.877543 0.498349 0.048120
C26   C     C_3   0.499917 0.122457 0.501652 0.048127
C27   C     C_3   0.459593 0.956718 0.562283 -0.125330
C28   C     C_3   0.540406 0.043282 0.437718 -0.125543
C29   C     C_3   0.543642 0.508162 0.050055 -0.038910
C30   C     C_3   0.456357 0.491836 0.949941 -0.038976
C31   C     C_3   0.519512 0.602953 0.947728 -0.045169
C32   C     C_3   0.480488 0.397045 0.052270 -0.045095
C33   C     C_3   0.523744 0.406897 0.951822 0.367526
C34   C     C_R   0.898108 0.499292 0.499393 -0.027075
C35   C     C_3   0.476255 0.593102 0.048173 0.367505
C36   C     C_R   0.178160 0.391799 0.473976 0.397867
C37   C     C_R   0.821910 0.605245 0.538114 0.397901
C38   C     C_R   0.178064 0.610740 0.528778 0.397881
C39   C     C_R   0.822065 0.392190 0.459813 0.397895
C40   C     C_R   0.278839 0.512662 0.628967 -0.057336
C41   C     C_R   0.721214 0.493220 0.370673 -0.057242
C42   C     C_R   0.328971 0.512100 0.628911 -0.147439
C43   C     C_R   0.671082 0.493663 0.370678 -0.147860
C44   C     C_R   0.329124 0.490978 0.372560 -0.141773
C45   C     C_R   0.127690 0.389401 0.473146 0.024556
C46   C     C_R   0.670860 0.503139 0.628006 -0.142513
C47   C     C_R   0.279002 0.491079 0.373025 -0.060154
C48   C     C_R   0.720981 0.502910 0.627646 -0.060267
C49   C     C_R   0.253728 0.501868 0.501136 0.243786
C50   C     C_R   0.746318 0.498076 0.499067 0.242674
C51   C     C_3   0.563663 0.220918 0.997078 -0.031204
C52   C     C_3   0.598454 0.125808 0.934670 -0.367400
C53   C     C_3   0.436319 0.779040 0.002853 -0.031011
C54   C     C_3   0.401562 0.874233 0.065278 -0.367224
C55   C     C_R   0.872380 0.607620 0.539055 0.024652
C56   C     C_R   0.102630 0.278104 0.446138 -0.112445
C57   C     C_R   0.897409 0.715657 0.579216 -0.112481
C58   C     C_R   0.127586 0.612389 0.529177 0.024521
Cu1   Cu    Cu3+1 0.500010 0.499990 0.643150 0.975803
Cu2   Cu    Cu3+1 0.499990 0.500010 0.356850 0.975850
H1    H     H_    0.347861 0.482506 0.272082 0.136890
H2    H     H_    0.419798 0.486391 0.903699 0.096609
H3    H     H_    0.259732 0.483005 0.273848 0.128138
H4    H     H_    0.740202 0.506277 0.727289 0.129839
H5    H     H_    0.121543 0.190809 0.426384 0.167305
H6    H     H_    0.878466 0.799754 0.611790 0.167854
H7    H     H_    0.652505 0.489943 0.270014 0.118664
H8    H     H_    0.347587 0.520532 0.729121 0.118231
H9    H     H_    0.740619 0.489668 0.270891 0.130045
H10   H     H_    0.259440 0.520927 0.728345 0.128319
H11   H     H_    0.878943 0.198585 0.386620 0.167805
H12   H     H_    0.652105 0.506921 0.728874 0.138540
H13   H     H_    0.121256 0.810863 0.575979 0.167266
H14   H     H_    0.963934 0.195425 0.385756 0.109427
H15   H     H_    0.036268 0.814295 0.575703 0.107368
H16   H     H_    0.036557 0.186188 0.425488 0.107375
H17   H     H_    0.963443 0.804144 0.613868 0.109413
H18   H     H_    0.570021 0.919260 0.629269 0.110415
H19   H     H_    0.429977 0.080740 0.370732 0.110349
H20   H     H_    0.531458 0.168945 0.037066 0.117710
H21   H     H_    0.581928 0.268111 0.087391 0.127773
H22   H     H_    0.631277 0.174789 0.895035 0.169565
H23   H     H_    0.496128 0.073489 0.746099 0.132858
H24   H     H_    0.608859 0.056015 0.017516 0.101929
H25   H     H_    0.581282 0.075321 0.845458 0.151281
H26   H     H_    0.418014 0.731794 0.912635 0.127144
H27   H     H_    0.468518 0.830959 0.962714 0.117645
H28   H     H_    0.418777 0.924786 0.154383 0.151242
H29   H     H_    0.391136 0.943964 0.982383 0.101712
H30   H     H_    0.368745 0.825312 0.105076 0.170223
H31   H     H_    0.503872 0.926510 0.253903 0.132819
H32   H     H_    0.426585 0.917938 0.613215 0.113760
H33   H     H_    0.573414 0.082060 0.386786 0.113730
H34   H     H_    0.535797 0.688658 0.898804 0.092900
H35   H     H_    0.464205 0.311337 0.101195 0.092674
H36   H     H_    0.580202 0.513590 0.096283 0.096275
N1    N     N_R   0.202193 0.501461 0.501406 -0.398523
N2    N     N_R   0.797881 0.498514 0.498912 -0.397935
N3    N     N_3   0.500040 0.499970 0.858290 -0.241266
N4    N     N_3   0.499960 0.500030 0.141710 -0.241272
O1    O     O_R   0.500020 0.316850 0.620870 -0.455056
O2    O     O_2   0.797013 0.709032 0.574995 -0.495256
O3    O     O_2   0.797316 0.288046 0.422655 -0.495344
O4    O     O_2   0.202870 0.717580 0.554576 -0.493535
O5    O     O_3   0.550412 0.308291 0.890524 -0.530781
O6    O     O_3   0.449593 0.691729 0.109452 -0.530295
O7    O     O_R   0.499980 0.683150 0.379130 -0.455090
O8    O     O_R   0.500000 0.316860 0.379090 -0.526383
O9    O     O_R   0.500000 0.683140 0.620910 -0.526352
O10   O     O_R   0.430270 0.500020 0.620880 -0.521339
O11   O     O_R   0.569730 0.499980 0.379120 -0.521310
O12   O     O_R   0.430250 0.500030 0.379090 -0.476332
O13   O     O_R   0.569750 0.499970 0.620910 -0.476514
O14   O     O_2   0.203056 0.285308 0.448411 -0.493508

loop_
_geom_bond_atom_site_label_1
_geom_bond_atom_site_label_2
_ccdc_geom_bond_type
C23   C58   A    
C30   C32   S    
C39   O3    S    
C3    C42   A    
C23   C45   A    
Cu1   N3    S    
C14   H11   S    
C24   C27   S    
C57   H6    S    
C36   O14   S    
C16   O10   A    
C47   C49   A    
C4    C46   A    
C53   C54   S    
C19   C57   A    
C40   H10   S    
C30   C35   S    
C52   H25   S    
C24   C26   S    
C54   H30   S    
C30   H2    S    
C47   H3    S    
C37   O2    S    
C11   C14   A    
C48   H4    S    
C56   H5    S    
C29   C33   S    
Cu1   O10   S    
C52   H24   S    
C19   H17   S    
C51   H20   S    
C12   O9    A    
C38   O4    S    
C38   C58   A    
C2    C39   A    
C13   H15   S    
C45   C56   A    
C22   C25   S    
C36   N1    A    
C31   N3    S    
C51   H21   S    
C46   H12   S    
Cu2   O8    S    
C44   C47   A    
Cu1   O13   S    
C2    C34   A    
C40   C42   A    
C53   O6    S    
Cu1   Cu2   S    
C22   C28   S    
C42   H8    S    
C41   C43   A    
C38   N1    A    
C17   O11   A    
C37   N2    A    
C46   C48   A    
C3    C44   A    
C50   N2    S    
C17   O13   A    
C51   C52   S    
Cu1   O1    S    
C27   H32   S    
C33   O5    S    
C22   H18   S    
C54   H29   S    
C39   N2    A    
C30   N3    S    
C8    C18   A    
C32   N4    S    
C28   H33   S    
C33   N3    S    
C5    C9    A    
Cu2   O12   S    
C12   O7    A    
C24   H19   S    
C51   O5    S    
C36   C45   A    
C53   H27   S    
C52   H22   S    
C53   H26   S    
Cu2   O7    S    
C4    C17   S    
C8    C10   A    
C15   H13   S    
C21   C28   S    
C20   C22   S    
C7    C19   A    
C13   C15   A    
C9    C34   A    
C44   H1    S    
C15   C58   A    
C31   C35   S    
C21   C24   S    
C5    C8    A    
C35   N4    S    
C1    O1    A    
C41   C50   A    
C16   O12   A    
C41   H9    S    
C21   H31   S    
C7    C9    A    
C21   C25   S    
C18   H16   S    
C29   N4    S    
Cu2   N4    S    
C11   H14   S    
C6    C10   A    
C29   H36   S    
C5    C11   A    
C6    C7    A    
C20   C27   S    
C18   C56   A    
C10   C23   A    
C25   C27   S    
C31   H34   S    
C26   C28   S    
C12   C25   S    
C32   C33   S    
C55   C57   A    
C29   C31   S    
C35   O6    S    
C6    C13   A    
C54   H28   S    
C1    C26   S    
C20   C26   S    
C48   C50   A    
Cu1   O9    S    
C4    C43   A    
C2    C14   A    
C1    O8    A    
C49   N1    S    
C37   C55   A    
C34   C55   A    
C32   H35   S    
C43   H7    S    
C20   H23   S    
Cu2   O11   S    
C3    C16   S    
C40   C49   A    
