data_mof_unit_17652.cif
_audit_creation_date              2012-12-10T17:02:15-0500
_audit_creation_method            fapswitch 2.2
_symmetry_space_group_name_H-M    P1
_symmetry_Int_Tables_number       1
_space_group_crystal_system       triclinic
_cell_length_a                    10.64322
_cell_length_b                    10.727173
_cell_length_c                    10.038305
_cell_angle_alpha                 90.372972
_cell_angle_beta                  89.938156
_cell_angle_gamma                 90.226966
_cell_volume                      1146.05605702

loop_
_atom_site_label
_atom_site_type_symbol
_atom_type_description
_atom_site_fract_x
_atom_site_fract_y
_atom_site_fract_z
_atom_type_partial_charge
C1    C     C_R   0.504493 0.262760 0.499308 0.860148
C2    C     C_R   0.066320 0.608895 0.571250 0.096528
C3    C     C_R   0.128315 0.513426 0.499867 -0.097660
C4    C     C_R   0.063827 0.423877 0.425773 -0.208735
C5    C     C_R   0.935524 0.424051 0.425652 -0.213307
C6    C     C_R   0.871742 0.513597 0.499879 -0.100525
C7    C     C_2   0.481813 0.932682 0.388981 -0.156347
C8    C     C_2   0.475119 0.868128 0.501575 -0.294894
C9    C     C_2   0.474200 0.066442 0.394959 -0.208492
C10   C     C_2   0.526324 0.131790 0.495333 0.068057
C11   C     C_2   0.574736 0.569315 0.925349 -0.124712
C12   C     C_R   0.260573 0.504026 0.500100 0.863534
C13   C     C_2   0.569851 0.574182 0.075358 -0.125529
C14   C     C_R   0.494327 0.737173 0.500393 0.893404
C15   C     C_R   0.739425 0.504353 0.500026 0.867112
C16   C     C_R   0.131775 0.705535 0.638711 -0.179148
C17   C     C_R   0.066666 0.797700 0.708430 -0.134246
C18   C     C_R   0.936026 0.796874 0.709974 -0.149604
C19   C     C_R   0.869947 0.704719 0.640580 -0.188473
C20   C     C_R   0.934516 0.608757 0.571677 0.098143
H1    H     H_    0.113169 0.351916 0.370471 0.150755
H2    H     H_    0.643245 0.628392 0.876135 0.159159
H3    H     H_    0.432137 0.450050 0.897536 0.163932
H4    H     H_    0.629393 0.642175 0.125255 0.159209
H5    H     H_    0.449661 0.432697 0.101771 0.160909
H6    H     H_    0.233091 0.712048 0.637124 0.148593
H7    H     H_    0.117758 0.870625 0.760413 0.134345
H8    H     H_    0.885708 0.868680 0.763949 0.132361
H9    H     H_    0.768625 0.710749 0.640463 0.154282
H10   H     H_    0.885617 0.352250 0.370214 0.152748
H11   H     H_    0.491667 0.888223 0.291990 0.171728
H12   H     H_    0.454974 0.912373 0.596906 0.167429
H13   H     H_    0.420570 0.111810 0.317044 0.144842
N1    N     N_2   0.501340 0.501330 0.852150 -0.191971
N2    N     N_2   0.501380 0.501360 0.147810 -0.191398
O1    O     O_R   0.499980 0.319060 0.613040 -0.617631
O2    O     O_R   0.500020 0.319100 0.386900 -0.622775
O3    O     O_R   0.316750 0.499980 0.613090 -0.618301
O4    O     O_R   0.316790 0.500020 0.386950 -0.610445
O5    O     O_R   0.499980 0.680900 0.613100 -0.630706
O6    O     O_R   0.500020 0.680940 0.386960 -0.610868
O7    O     O_R   0.683210 0.499980 0.613050 -0.614531
O8    O     O_R   0.683250 0.500020 0.386910 -0.607023
Zn1   Zn    Zn3+2 0.499970 0.499970 0.650990 0.935040
Zn2   Zn    Zn3+2 0.500030 0.500030 0.349010 0.940983
N3    N     N_2   0.613489 0.078951 0.587194 -0.308430
H14   H     H_    0.613927 0.121621 0.679564 0.232507
C21   C     C_3   0.739081 0.064469 0.534142 -0.765180
H15   H     H_    0.800137 0.021298 0.610262 0.230880
H16   H     H_    0.779204 0.156882 0.507545 0.225160
H17   H     H_    0.738075 0.002952 0.444711 0.259143

loop_
_geom_bond_atom_site_label_1
_geom_bond_atom_site_label_2
_ccdc_geom_bond_type
C10   N3    S    
C18   H8    S    
O3    Zn1   S    
C2    C16   A    
C9    C10   D    
C11   H2    S    
C19   C20   A    
C1    O2    A    
O4    Zn2   S    
H3    N1    S    
C12   O4    A    
C21   H16   S    
C17   C18   A    
C15   O8    A    
C7    C8    D    
C19   H9    S    
C9    H13   S    
C4    H1    S    
O8    Zn2   S    
C8    H12   S    
O7    Zn1   S    
H5    N2    S    
C14   O6    A    
C15   O7    A    
C21   H15   S    
C14   O5    A    
C13   N2    D    
C2    C3    A    
C11   N1    D    
C16   H6    S    
C5    C6    A    
N3    C21   S    
O1    Zn1   S    
C11   C13   S    
C7    H11   S    
O2    Zn2   S    
C3    C4    A    
N2    Zn2   S    
C12   O3    A    
O5    Zn1   S    
C6    C20   A    
C1    O1    A    
C18   C19   A    
C5    H10   S    
C7    C9    S    
N1    Zn1   S    
O6    Zn2   S    
N3    H14   S    
C4    C5    A    
C8    C14   S    
C3    C12   S    
C6    C15   S    
C2    C20   A    
C21   H17   S    
C1    C10   S    
C13   H4    S    
C16   C17   A    
C17   H7    S    
