data_mof_unit_36849.cif
_audit_creation_date              2012-12-11T16:29:27-0500
_audit_creation_method            fapswitch 2.2
_symmetry_space_group_name_H-M    P1
_symmetry_Int_Tables_number       1
_space_group_crystal_system       triclinic
_cell_length_a                    6.968784
_cell_length_b                    17.114975
_cell_length_c                    19.0055
_cell_angle_alpha                 105.885884
_cell_angle_beta                  89.332297
_cell_angle_gamma                 90.051435
_cell_volume                      2180.0707278

loop_
_atom_site_label
_atom_site_type_symbol
_atom_type_description
_atom_site_fract_x
_atom_site_fract_y
_atom_site_fract_z
_atom_type_partial_charge
O1    O     O_R   0.494360 0.415680 0.413760 -0.528988
O2    O     O_R   0.818810 0.432910 0.557230 -0.507587
O3    O     O_R   0.994290 0.584320 0.586240 -0.548781
C1    C     C_R   0.650531 0.421225 0.584725 0.829312
O4    O     O_R   0.823740 0.406440 0.412520 -0.503148
O5    O     O_R   0.999250 0.557660 0.440500 -0.517715
C2    C     C_R   0.655490 0.377642 0.388518 0.909360
O6    O     O_R   0.489400 0.442340 0.559500 -0.507800
O7    O     O_3   0.662500 0.549650 0.509350 -0.401128
V1    V     V_3+5 0.935340 0.490790 0.498270 1.542543
O8    O     O_R   0.329270 0.567090 0.442770 -0.553305
C3    C     C_R   0.161445 0.584274 0.419665 0.709685
O9    O     O_R   0.324340 0.593560 0.587480 -0.544016
C4    C     C_R   0.154495 0.616050 0.615270 0.666341
V2    V     V_3+5 0.435970 0.509210 0.501730 1.461463
O10   O     O_3   0.158940 0.450350 0.490650 -0.329688
C5    C     C_R   0.105922 0.588302 0.758292 -0.159749
C6    C     C_R   0.082761 0.572375 0.825978 -0.121479
C7    C     C_R   0.072320 0.636019 0.889636 -0.123163
C8    C     C_R   0.085073 0.716158 0.886186 -0.134182
C9    C     C_R   0.108101 0.734418 0.818327 0.068281
C10   C     C_R   0.118753 0.668964 0.752904 0.064835
C11   C     C_R   0.122310 0.816179 0.815160 -0.141387
C12   C     C_R   0.146366 0.832064 0.745802 0.026321
C13   C     C_R   0.153125 0.766522 0.680526 0.011002
C14   C     C_R   0.142211 0.684800 0.683838 -0.136419
C15   C     C_R   0.163159 0.912628 0.740098 -0.331674
C16   C     C_R   0.187151 0.928893 0.671274 0.376065
C17   C     C_R   0.175755 0.863902 0.607633 0.415249
C18   C     C_R   0.166656 0.784216 0.612424 -0.288491
H1    H     H_    0.113653 0.536711 0.710350 0.094290
H2    H     H_    0.073025 0.510251 0.829041 0.115316
H3    H     H_    0.054443 0.623242 0.942052 0.112395
H4    H     H_    0.077126 0.763472 0.937302 0.092127
H5    H     H_    0.155242 0.962248 0.789260 0.118007
H6    H     H_    0.167024 0.736361 0.561561 0.129464
C19   C     C_1   0.111936 0.864097 0.132787 -0.217030
C20   C     C_1   0.120455 0.821738 0.176562 -0.002511
C21   C     C_1   0.131399 0.771812 0.228670 -0.011382
C22   C     C_1   0.140433 0.729625 0.272547 -0.007698
C23   C     C_1   0.149555 0.679365 0.324389 -0.018429
C24   C     C_1   0.155159 0.636550 0.367842 -0.209499
C25   C     C_1   0.642352 0.370547 0.638030 -0.087941
C26   C     C_1   0.638784 0.327974 0.681682 0.051476
C27   C     C_1   0.636086 0.277086 0.733052 0.006760
C28   C     C_1   0.633664 0.233906 0.776179 -0.025465
C29   C     C_1   0.629596 0.182238 0.826901 -0.012789
C30   C     C_1   0.624372 0.138128 0.869205 -0.223906
H7    H     H_    0.730682 0.079865 0.412012 0.168122
C31   C     C_R   0.694558 0.410687 0.244732 0.342117
C32   C     C_R   0.697583 0.426836 0.176660 -0.350689
C33   C     C_R   0.611924 0.374860 0.116070 0.318012
C34   C     C_R   0.557870 0.296590 0.120053 0.320012
C35   C     C_R   0.604562 0.270676 0.183222 -0.105502
C36   C     C_R   0.648616 0.330664 0.249934 -0.074869
C37   C     C_R   0.614140 0.187023 0.180512 -0.099452
C38   C     C_R   0.645584 0.163288 0.244841 0.024408
C39   C     C_R   0.652425 0.222080 0.315160 -0.046989
C40   C     C_R   0.650661 0.308715 0.318104 -0.142717
C41   C     C_R   0.666884 0.078943 0.238903 -0.142903
C42   C     C_R   0.704497 0.051071 0.298366 -0.216597
C43   C     C_R   0.705584 0.104775 0.366382 -0.161581
C44   C     C_R   0.667653 0.187621 0.376588 0.427962
H8    H     H_    0.767720 0.481031 0.171780 0.147134
H9    H     H_    0.657326 0.032002 0.187845 0.124825
H10   H     H_    0.726816 0.986833 0.291897 0.142526
O11   O     O_R   0.775690 0.057750 0.940570 -0.527598
O12   O     O_R   0.441200 0.093570 0.087490 -0.520650
O13   O     O_R   0.265840 0.942320 0.059480 -0.521043
C45   C     C_R   0.609468 0.121895 0.109963 0.781040
O14   O     O_R   0.446270 0.067110 0.942790 -0.527926
O15   O     O_R   0.270950 0.915660 0.913750 -0.533210
C46   C     C_R   0.615240 0.084531 0.919822 0.743610
O16   O     O_R   0.770580 0.084400 0.086300 -0.548511
O17   O     O_3   0.602640 0.950400 0.990690 -0.360918
V3    V     V_3+5 0.329740 0.009200 0.001730 1.414079
O18   O     O_R   0.940900 0.906360 0.912450 -0.534632
C47   C     C_R   0.110614 0.884561 0.884138 0.694990
O19   O     O_R   0.935830 0.932820 0.057160 -0.526828
C48   C     C_R   0.103866 0.915927 0.080531 0.720690
V4    V     V_3+5 0.829130 0.990680 0.998180 1.396736
O20   O     O_3   0.106100 0.049590 0.009310 -0.375009
O21   O     O_3   0.189121 0.876991 0.538910 -0.567021
C49   C     C_3   0.020709 0.915779 0.523806 0.140903
H11   H     H_    0.063584 0.957175 0.490436 0.156394
H12   H     H_    0.945607 0.954226 0.573383 0.137534
C50   C     C_3   0.880348 0.853020 0.479757 -0.395771
H13   H     H_    0.950017 0.819791 0.427269 0.214730
H14   H     H_    0.842551 0.808759 0.510913 0.196483
C51   C     C_3   0.696986 0.893716 0.463893 -0.762220
H15   H     H_    0.626182 0.928192 0.515775 0.256145
H16   H     H_    0.595237 0.847005 0.433609 0.246967
H17   H     H_    0.730493 0.935709 0.430075 0.220030
O22   O     O_3   0.767039 0.470295 0.302885 -0.575615
C52   C     C_3   0.639012 0.537445 0.322821 0.123232
H18   H     H_    0.652331 0.563210 0.382529 0.183784
H19   H     H_    0.485547 0.519532 0.312877 0.078621
C53   C     C_3   0.690149 0.603688 0.285027 -0.366093
H20   H     H_    0.840033 0.595620 0.264170 0.220194
H21   H     H_    0.594260 0.598410 0.237643 0.179694
C54   C     C_3   0.669074 0.688939 0.336668 -0.795786
H22   H     H_    0.520312 0.700005 0.357750 0.237430
H23   H     H_    0.706778 0.734798 0.307297 0.235732
H24   H     H_    0.765602 0.696283 0.383964 0.229940
O23   O     O_3   0.600950 0.392828 0.048779 -0.572804
C55   C     C_3   0.553566 0.474933 0.053803 0.082485
H25   H     H_    0.552613 0.480735 0.997002 0.146223
H26   H     H_    0.665621 0.518023 0.081650 0.109336
C56   C     C_3   0.352824 0.499386 0.087199 -0.362908
H27   H     H_    0.243355 0.459720 0.053033 0.190085
H28   H     H_    0.343352 0.492310 0.143513 0.188933
C57   C     C_3   0.306890 0.587514 0.090661 -0.813430
H29   H     H_    0.410622 0.628995 0.126375 0.233842
H30   H     H_    0.160064 0.602810 0.113606 0.231633
H31   H     H_    0.313022 0.596686 0.035039 0.226306
O24   O     O_3   0.460081 0.244488 0.062489 -0.574055
C58   C     C_3   0.298634 0.284057 0.042859 0.088617
H32   H     H_    0.336360 0.305927 0.994524 0.174754
H33   H     H_    0.245867 0.335901 0.088585 0.102431
C59   C     C_3   0.132482 0.225324 0.021716 -0.305955
H34   H     H_    0.174130 0.175033 0.973526 0.218973
H35   H     H_    0.094711 0.201300 0.068799 0.216897
C60   C     C_3   0.958705 0.268547 0.002330 -0.804250
H36   H     H_    0.929028 0.323889 0.047123 0.247238
H37   H     H_    0.832014 0.228098 0.994602 0.256183
H38   H     H_    0.986463 0.287199 0.951788 0.228545
S1    S     S_3+6 0.635617 0.238421 0.468339 -0.061467
O25   O     O_2   0.819212 0.282840 0.491826 -0.344585
O26   O     O_2   0.465270 0.293767 0.477371 -0.367602
O27   O     O_3   0.598223 0.174270 0.520341 -0.506013
H39   H     H_    0.468228 0.151804 0.507427 0.342562
O28   O     O_3   0.211170 0.005687 0.660178 -0.574747
C61   C     C_3   0.265466 0.068642 0.721595 0.091351
H40   H     H_    0.361991 0.109003 0.700585 0.172313
H41   H     H_    0.352440 0.048220 0.761908 0.097907
C62   C     C_3   0.088189 0.117887 0.756101 -0.306564
H42   H     H_    0.995201 0.127568 0.712065 0.225307
H43   H     H_    0.004044 0.083996 0.788009 0.179963
C63   C     C_3   0.143135 0.200675 0.805852 -0.811239
H44   H     H_    0.226310 0.235802 0.774805 0.237832
H45   H     H_    0.228389 0.193401 0.852527 0.231941
H46   H     H_    0.011827 0.235798 0.827265 0.235077

loop_
_geom_bond_atom_site_label_1
_geom_bond_atom_site_label_2
_ccdc_geom_bond_type
C50   H13   S    
C54   H22   S    
C36   C40   A    
C52   H18   S    
C23   C24   T    
C7    C8    A    
C12   C15   A    
O15   V3    S    
C57   H30   S    
V4    O20   S    
C38   C39   A    
C52   C53   S    
C60   H36   S    
C34   C35   A    
C37   C38   A    
C43   C44   A    
C16   C17   A    
C19   C20   T    
C49   H12   S    
C17   O21   S    
C56   H28   S    
O5    C3    A    
C20   C21   S    
C63   H46   S    
C60   H37   S    
C55   H25   S    
V2    O10   S    
C13   C18   A    
O24   C58   S    
O13   V3    S    
C6    C7    A    
C3    C24   S    
C28   C29   S    
O8    V2    S    
C42   H10   S    
C29   C30   T    
O28   C61   S    
C45   O16   A    
C61   C62   S    
O15   C47   A    
C11   C12   A    
C49   C50   S    
O11   C46   A    
O7    V1    S    
C56   H27   S    
C34   O24   S    
C1    O6    A    
C8    H4    S    
C54   H23   S    
O9    C4    A    
C42   C43   A    
C62   C63   S    
C2    C40   S    
C57   H29   S    
C59   H35   S    
C5    C6    A    
C9    C11   A    
C19   C48   S    
C35   C37   A    
C32   H8    S    
C32   C33   A    
C12   C13   A    
C62   H43   S    
C7    H3    S    
C56   C57   S    
V3    O20   S    
C21   C22   T    
O19   V4    S    
C31   O22   S    
C60   H38   S    
C15   H5    S    
C39   C40   A    
O18   C47   A    
C4    C14   S    
C41   C42   A    
C16   O28   S    
C59   C60   S    
O2    C1    A    
O17   V3    S    
S1    O26   D    
C17   C18   A    
C51   H16   S    
O21   C49   S    
O18   V4    S    
C63   H44   S    
C31   C32   A    
C49   H11   S    
O3    C4    A    
O1    V2    S    
C22   C23   S    
C41   H9    S    
O11   V4    S    
O6    V2    S    
C53   H21   S    
O9    V2    S    
C25   C26   T    
C61   H40   S    
C5    H1    S    
C58   C59   S    
C6    H2    S    
O16   V4    S    
S1    O25   D    
O2    V1    S    
C33   C34   A    
C51   H17   S    
O4    C2    A    
C33   O23   S    
C39   C44   A    
C35   C36   A    
H7    C43   S    
O1    C2    A    
C30   C46   S    
O17   V4    S    
C26   C27   S    
C31   C36   A    
C62   H42   S    
C38   C41   A    
O5    V1    S    
O8    C3    A    
C52   H19   S    
C1    C25   S    
O12   V3    S    
C53   C54   S    
O23   C55   S    
C37   C45   S    
C5    C10   A    
C18   H6    S    
C58   H33   S    
O27   H39   S    
C13   C14   A    
S1    O27   S    
O4    V1    S    
O3    V1    S    
V1    O10   S    
C58   H32   S    
C63   H45   S    
C51   H15   S    
O14   V3    S    
C55   H26   S    
C11   C47   S    
O7    V2    S    
O22   C52   S    
O19   C48   A    
C27   C28   T    
C8    C9    A    
O12   C45   A    
C53   H20   S    
C10   C14   A    
C50   C51   S    
O14   C46   A    
C15   C16   A    
C61   H41   S    
C50   H14   S    
C59   H34   S    
O13   C48   A    
C54   H24   S    
C9    C10   A    
C57   H31   S    
C44   S1    S    
C55   C56   S    
