data_mof_unit_25928.cif
_audit_creation_date              2012-10-26T20:51:38-0400
_audit_creation_method            fapswitch 2.2
_symmetry_space_group_name_H-M    P1
_symmetry_Int_Tables_number       1
_space_group_crystal_system       triclinic
_cell_length_a                    9.597553
_cell_length_b                    10.876987
_cell_length_c                    13.873665
_cell_angle_alpha                 91.017178
_cell_angle_beta                  85.909252
_cell_angle_gamma                 90.931722
_cell_volume                      1444.22526827

loop_
_atom_site_label
_atom_site_type_symbol
_atom_type_description
_atom_site_fract_x
_atom_site_fract_y
_atom_site_fract_z
_atom_type_partial_charge
C1    C     C_R   0.501298 0.737749 0.501942 0.555189
C2    C     C_3   0.253215 0.921579 0.461722 -0.247893
C3    C     C_R   0.934194 0.469598 0.418179 0.157439
C4    C     C_R   0.478332 0.500040 0.682687 0.544820
C5    C     C_R   0.922073 0.543823 0.577748 0.185063
C6    C     C_R   0.069336 0.544514 0.576421 0.028810
C7    C     C_R   0.081080 0.470075 0.418073 0.158023
C8    C     C_3   0.090686 0.352361 0.361816 -0.278413
C9    C     C_3   0.932243 0.351194 0.362584 -0.278592
C10   C     C_R   0.499250 0.262572 0.499492 0.547886
C11   C     C_R   0.521639 0.499869 0.317308 0.544998
C12   C     C_1   0.465929 0.499341 0.785527 -0.065548
C13   C     C_1   0.533222 0.499633 0.214424 -0.009046
C14   C     C_2   0.550521 0.498707 0.024179 -0.079377
C15   C     C_2   0.434150 0.497556 0.976522 0.281491
C16   C     C_1   0.451984 0.498542 0.872131 -0.087380
C17   C     C_1   0.542665 0.499314 0.127746 -0.003509
C18   C     C_3   0.188802 0.478889 0.972857 0.019385
C19   C     C_3   0.137881 0.599846 0.933490 -0.264783
C20   C     C_3   0.011062 0.578063 0.874795 -0.484250
C21   C     C_3   0.816701 0.885570 0.595526 0.014927
C22   C     C_3   0.885787 0.009119 0.621110 -0.289836
C23   C     C_R   0.377903 0.934699 0.519841 -0.034770
C24   C     C_3   0.988249 0.995138 0.699371 -0.478566
C25   C     C_R   0.504108 0.871572 0.510490 0.005613
C26   C     C_R   0.630820 0.940780 0.511390 0.242663
C27   C     C_R   0.626548 0.068493 0.504365 -0.138326
C28   C     C_R   0.499261 0.129651 0.505317 -0.038902
C29   C     C_R   0.375540 0.061528 0.517954 0.004925
C30   C     C_3   0.251851 0.060738 0.458782 -0.262389
Cu1   Cu    Cu3+1 0.359330 0.500020 0.500000 0.935203
Cu2   Cu    Cu3+1 0.640670 0.499980 0.500000 0.951072
H1    H     H_    0.119862 0.579043 0.638862 0.137683
H2    H     H_    0.161376 0.881409 0.504002 0.149769
H3    H     H_    0.277923 0.877585 0.389682 0.151928
H4    H     H_    0.102855 0.439312 0.021163 0.145988
H5    H     H_    0.209834 0.408741 0.914359 0.126859
H6    H     H_    0.109270 0.663855 0.994799 0.173795
H7    H     H_    0.222204 0.644167 0.886701 0.166654
H8    H     H_    0.037652 0.514141 0.813151 0.156809
H9    H     H_    0.977850 0.666750 0.846027 0.162075
H10   H     H_    0.922829 0.538373 0.920929 0.141733
H11   H     H_    0.899251 0.815119 0.590979 0.171968
H12   H     H_    0.143357 0.364672 0.288562 0.145648
H13   H     H_    0.737581 0.858561 0.654473 0.112036
H14   H     H_    0.941887 0.047370 0.555536 0.166976
H15   H     H_    0.804564 0.075124 0.648454 0.149761
H16   H     H_    0.933428 0.957393 0.765883 0.148302
H17   H     H_    0.034255 0.086421 0.717000 0.151325
H18   H     H_    0.074280 0.932851 0.673963 0.150634
H19   H     H_    0.772799 0.648075 0.649490 0.268147
H20   H     H_    0.815180 0.514137 0.706573 0.251711
H21   H     H_    0.131690 0.277242 0.403879 0.139719
H22   H     H_    0.893635 0.362451 0.289654 0.133438
H23   H     H_    0.881945 0.274897 0.405203 0.140794
H24   H     H_    0.653216 0.498481 0.985609 0.065014
H25   H     H_    0.724158 0.119266 0.494316 0.137382
H26   H     H_    0.159988 0.101772 0.499346 0.132065
H27   H     H_    0.276812 0.097231 0.385073 0.134771
N1    N     N_R   0.852140 0.499070 0.499400 -0.215539
N2    N     N_R   0.148050 0.499110 0.499400 -0.255799
N3    N     N_3   0.851629 0.588593 0.664942 -0.681736
O1    O     O_R   0.381190 0.680360 0.500000 -0.510084
O2    O     O_3   0.760061 0.885555 0.503906 -0.549620
O3    O     O_R   0.618770 0.680320 0.499990 -0.456792
O4    O     O_R   0.364410 0.500000 0.637850 -0.508294
O5    O     O_R   0.602000 0.499960 0.637840 -0.516875
O6    O     O_R   0.381230 0.319680 0.500010 -0.494686
O7    O     O_R   0.618810 0.319640 0.500000 -0.514708
O8    O     O_R   0.398000 0.500040 0.362160 -0.488033
O9    O     O_R   0.635590 0.500000 0.362150 -0.496891
O10   O     O_3   0.304210 0.500362 0.029380 -0.559856

loop_
_geom_bond_atom_site_label_1
_geom_bond_atom_site_label_2
_ccdc_geom_bond_type
C2    H3    S    
C8    H21   S    
Cu1   O4    S    
C4    O4    A    
C29   C30   S    
C9    H23   S    
C19   H6    S    
C10   O6    A    
C4    C12   S    
Cu1   O1    S    
C14   H24   S    
Cu1   N2    S    
C20   H10   S    
C19   C20   S    
C6    H1    S    
C13   C17   T    
C2    C30   S    
C3    N1    A    
C2    H2    S    
C22   H15   S    
C8    C9    S    
C11   O8    A    
C7    C8    S    
H20   N3    S    
C21   C22   S    
C30   H27   S    
C1    C25   S    
C15   O10   S    
C11   C13   S    
C14   C17   S    
C8    H12   S    
C26   C27   A    
Cu1   O6    S    
H19   N3    S    
C19   H7    S    
Cu2   O5    S    
C3    C9    S    
C1    O1    A    
C6    N2    A    
C27   C28   A    
C28   C29   A    
C22   H14   S    
C18   H5    S    
C5    N3    S    
C20   H9    S    
Cu2   O9    S    
C3    C7    A    
C23   C25   A    
C24   H18   S    
C5    C6    A    
C20   H8    S    
C22   C24   S    
Cu1   O8    S    
Cu2   N1    S    
C15   C16   S    
C24   H16   S    
C10   O7    A    
C23   C29   A    
C24   H17   S    
C18   C19   S    
C27   H25   S    
C10   C28   S    
C2    C23   S    
C26   O2    S    
C14   C15   D    
C7    N2    A    
C21   O2    S    
C30   H26   S    
C9    H22   S    
C12   C16   T    
C5    N1    A    
C25   C26   A    
C21   H11   S    
Cu2   O7    S    
C18   H4    S    
C1    O3    A    
C11   O9    A    
C4    O5    A    
Cu1   Cu2   S    
Cu2   O3    S    
C21   H13   S    
C18   O10   S    
