data_mof_unit_7356.cif
_audit_creation_date              2012-10-26T20:00:51-0400
_audit_creation_method            fapswitch 2.2
_symmetry_space_group_name_H-M    P1
_symmetry_Int_Tables_number       1
_space_group_crystal_system       triclinic
_cell_length_a                    11.670037
_cell_length_b                    12.97504
_cell_length_c                    13.4815
_cell_angle_alpha                 92.222699
_cell_angle_beta                  76.859534
_cell_angle_gamma                 100.112808
_cell_volume                      1957.0206965

loop_
_atom_site_label
_atom_site_type_symbol
_atom_type_description
_atom_site_fract_x
_atom_site_fract_y
_atom_site_fract_z
_atom_type_partial_charge
Br1   Br    Br    0.209398 0.188960 0.616081 -0.448084
Br2   Br    Br    0.181360 0.932275 0.619623 -0.527820
C1    C     C_R   0.521132 0.700814 0.501421 0.534848
C2    C     C_R   0.398004 0.492278 0.807512 -0.001545
C3    C     C_R   0.459731 0.185370 0.514638 -0.023575
C4    C     C_R   0.436923 0.499260 0.695915 0.543217
C5    C     C_R   0.533239 0.814129 0.502112 -0.009198
C6    C     C_R   0.653824 0.984565 0.462701 -0.116248
C7    C     C_R   0.645007 0.876754 0.468185 -0.129334
C8    C     C_R   0.431014 0.859574 0.534385 -0.109339
C9    C     C_R   0.438342 0.967982 0.530710 0.025297
C10   C     C_R   0.551148 0.030356 0.492574 0.011953
C11   C     C_R   0.560414 0.137707 0.483933 -0.168876
C12   C     C_R   0.452039 0.491028 0.972476 0.016980
C13   C     C_R   0.347197 0.124632 0.557736 0.182244
C14   C     C_R   0.336180 0.015318 0.564008 0.182638
C15   C     C_R   0.959849 0.622769 0.560047 -0.179198
C16   C     C_R   0.476643 0.299082 0.504157 0.576400
C17   C     C_R   0.838056 0.607799 0.558650 0.041779
C18   C     C_R   0.849828 0.443855 0.477166 0.052108
C19   C     C_R   0.972831 0.455555 0.476981 0.007918
C20   C     C_R   0.027982 0.545619 0.520393 0.004367
C21   C     C_R   0.150140 0.556139 0.522678 0.053156
C22   C     C_R   0.163797 0.394948 0.435884 0.075833
C23   C     C_R   0.475841 0.532628 0.872594 0.033717
C24   C     C_R   0.042181 0.380286 0.433663 -0.156749
C25   C     C_R   0.563346 0.504916 0.304337 0.546937
C26   C     C_R   0.739656 0.600555 0.047224 -0.132720
C27   C     C_R   0.600168 0.518384 0.193843 0.000978
C28   C     C_R   0.288331 0.428560 0.847671 -0.122048
C29   C     C_R   0.260262 0.395440 0.947933 -0.131820
C30   C     C_R   0.342364 0.422507 0.008640 -0.112941
C31   C     C_3   0.799035 0.669269 0.832879 -0.276225
C32   C     C_3   0.881662 0.587575 0.808682 -0.424219
C33   C     C_3   0.569583 0.705715 0.776772 -0.287988
C34   C     C_R   0.538571 0.519197 0.032341 0.012466
C35   C     C_3   0.451980 0.747628 0.810215 -0.430963
C36   C     C_R   0.652346 0.578376 0.988180 0.050983
C37   C     C_R   0.673637 0.619974 0.888938 0.021821
C38   C     C_R   0.576214 0.613450 0.841546 0.034309
C39   C     C_R   0.514752 0.490989 0.135567 -0.124583
C40   C     C_R   0.714066 0.569824 0.148466 -0.138020
Cu1   Cu    Cu3+1 0.386470 0.492430 0.492410 0.972642
Cu2   Cu    Cu3+1 0.613530 0.507570 0.507590 0.935826
H1    H     H_    0.781014 0.592493 0.192882 0.133742
H2    H     H_    0.807422 0.375690 0.442142 0.115430
H3    H     H_    0.826646 0.646679 0.018366 0.117593
H4    H     H_    0.427912 0.452238 0.174609 0.119062
H5    H     H_    0.227014 0.398672 0.799705 0.166495
H6    H     H_    0.317439 0.386363 0.082686 0.103581
H7    H     H_    0.176916 0.343449 0.977218 0.130306
H8    H     H_    0.646894 0.184520 0.452410 0.124889
H9    H     H_    0.889254 0.548662 0.877997 0.153762
H10   H     H_    0.972660 0.626069 0.769941 0.147368
H11   H     H_    0.847339 0.526323 0.757794 0.175475
H12   H     H_    0.740620 0.032039 0.434270 0.118430
H13   H     H_    0.799402 0.703177 0.758825 0.137295
H14   H     H_    0.836614 0.734918 0.877661 0.151023
H15   H     H_    0.376500 0.692077 0.791064 0.151758
H16   H     H_    0.432710 0.762834 0.893510 0.166230
H17   H     H_    0.459027 0.822250 0.769758 0.157020
H18   H     H_    0.639904 0.773312 0.784286 0.141449
H19   H     H_    0.585079 0.686068 0.695282 0.177987
H20   H     H_    0.724780 0.842166 0.443294 0.134441
H21   H     H_    0.346304 0.809177 0.562063 0.162338
H22   H     H_    0.192077 0.623723 0.558829 0.126171
H23   H     H_    0.216089 0.336178 0.402479 0.145704
H24   H     H_    0.000217 0.694173 0.591965 0.135746
H25   H     H_    0.002791 0.310521 0.398609 0.094968
H26   H     H_    0.787185 0.668518 0.588242 0.123348
N1    N     N_R   0.215880 0.481050 0.481000 -0.227969
N2    N     N_R   0.784100 0.518950 0.519000 -0.229208
O1    O     O_R   0.419710 0.645650 0.494620 -0.510731
O2    O     O_R   0.611450 0.658430 0.507430 -0.529311
O3    O     O_R   0.357340 0.490460 0.641450 -0.493980
O4    O     O_R   0.549080 0.503250 0.654260 -0.496084
O5    O     O_R   0.388550 0.341570 0.492570 -0.468062
O6    O     O_R   0.580290 0.354350 0.505380 -0.514401
O7    O     O_R   0.450920 0.496750 0.345740 -0.506860
O8    O     O_R   0.642660 0.509540 0.358550 -0.501927

loop_
_geom_bond_atom_site_label_1
_geom_bond_atom_site_label_2
_ccdc_geom_bond_type
Cu1   O1    S    
C5    C8    A    
C19   C24   A    
C26   H3    S    
C31   H14   S    
C27   C40   A    
C25   C27   S    
C7    H20   S    
C6    H12   S    
C2    C23   A    
C34   C39   A    
C4    O3    A    
C31   C37   S    
C21   H22   S    
C33   C35   S    
C22   C24   A    
C1    C5    S    
C23   C38   A    
C12   C34   A    
C28   C29   A    
Cu1   O7    S    
C13   C14   A    
C26   C40   A    
Cu2   O4    S    
C1    O2    A    
C22   H23   S    
C6    C7    A    
C31   H13   S    
Br1   C13   S    
Br2   C14   S    
C3    C11   A    
C6    C10   A    
C32   H11   S    
C19   C20   A    
C17   N2    A    
Cu1   O3    S    
C21   N1    A    
Cu2   O8    S    
C2    C4    S    
C25   O8    A    
C29   H7    S    
C37   C38   A    
C3    C16   S    
C40   H1    S    
Cu1   Cu2   S    
C11   H8    S    
C9    C14   A    
C29   C30   A    
C26   C36   A    
C16   O6    A    
C31   C32   S    
C18   C19   A    
Cu2   O2    S    
C30   H6    S    
C35   H15   S    
C28   H5    S    
C32   H10   S    
C8    H21   S    
C5    C7    A    
C15   H24   S    
Cu1   N1    S    
C27   C39   A    
C12   C30   A    
C35   H17   S    
C9    C10   A    
C4    O4    A    
Cu1   O5    S    
C25   O7    A    
C15   C20   A    
Cu2   O6    S    
C33   C38   S    
C36   C37   A    
C16   O5    A    
C34   C36   A    
C15   C17   A    
C39   H4    S    
Cu2   N2    S    
C33   H18   S    
C12   C23   A    
C1    O1    A    
C18   H2    S    
C3    C13   A    
C35   H16   S    
C8    C9    A    
C10   C11   A    
C32   H9    S    
C24   H25   S    
C20   C21   A    
C18   N2    A    
C17   H26   S    
C33   H19   S    
C2    C28   A    
C22   N1    A    
