data_mof_unit_27380.cif
_audit_creation_date              2012-12-11T15:57:39-0500
_audit_creation_method            fapswitch 2.2
_symmetry_space_group_name_H-M    P1
_symmetry_Int_Tables_number       1
_space_group_crystal_system       triclinic
_cell_length_a                    10.758332
_cell_length_b                    10.724629
_cell_length_c                    17.165173
_cell_angle_alpha                 98.899776
_cell_angle_beta                  99.632179
_cell_angle_gamma                 61.822992
_cell_volume                      1714.64571458

loop_
_atom_site_label
_atom_site_type_symbol
_atom_type_description
_atom_site_fract_x
_atom_site_fract_y
_atom_site_fract_z
_atom_type_partial_charge
C1    C     C_R   0.356128 0.773632 0.401152 0.560208
C2    C     C_2   0.896002 0.293487 0.166370 0.029687
C3    C     C_2   0.823096 0.243745 0.194844 0.199154
C4    C     C_2   0.826838 0.252669 0.280256 -0.074696
C5    C     C_2   0.336405 0.847037 0.332606 0.173011
C6    C     C_2   0.347418 0.814381 0.154096 -0.019197
C7    C     C_2   0.433363 0.842500 0.211837 0.417359
C8    C     C_2   0.447490 0.799566 0.290247 -0.108049
C9    C     C_2   0.345421 0.331889 0.658842 0.373116
C10   C     C_2   0.335758 0.352146 0.832653 -0.064812
C11   C     C_2   0.452275 0.284017 0.793865 0.232492
C12   C     C_R   0.371508 0.348299 0.356651 0.563757
C13   C     C_2   0.444777 0.330434 0.717999 -0.104348
C14   C     C_1   0.817539 0.341656 0.708713 0.012557
C15   C     C_1   0.845344 0.314086 0.776352 0.025195
C16   C     C_1   0.339303 0.810266 0.709210 0.004933
C17   C     C_1   0.312346 0.839620 0.776796 -0.003708
C18   C     C_R   0.897537 0.304456 0.086309 0.589430
C19   C     C_R   0.318175 0.298008 0.120049 0.598451
C20   C     C_R   0.294149 0.890384 0.083327 0.577324
C21   C     C_R   0.887132 0.296769 0.858244 0.581143
C22   C     C_R   0.307909 0.294224 0.894726 0.572129
C23   C     C_R   0.775082 0.381355 0.405179 0.564307
C24   C     C_R   0.277291 0.886783 0.856113 0.533266
C25   C     C_R   0.359282 0.767686 0.627595 0.562824
C26   C     C_R   0.369040 0.346191 0.581716 0.592040
C27   C     C_R   0.772703 0.380936 0.629841 0.566201
C28   C     C_1   0.344667 0.338024 0.273466 0.029899
C29   C     C_1   0.332333 0.326260 0.202913 0.060294
C30   C     C_2   0.831218 0.360906 0.330846 0.209497
Cr1   Cr    Cr6+3 0.608020 0.610770 0.522990 1.114628
Cr2   Cr    Cr6+3 0.289390 0.599570 0.488050 1.118956
Cr3   Cr    Cr6+3 0.602610 0.289690 0.489020 1.094413
Cr4   Cr    Cr6+3 0.053780 0.052210 0.965970 1.150476
Cr5   Cr    Cr6+3 0.060060 0.372530 0.992430 1.087434
Cr6   Cr    Cr6+3 0.372600 0.061970 0.991430 1.205083
H1    H     H_    0.534228 0.343691 0.706711 0.103370
H2    H     H_    0.248233 0.449034 0.810780 0.111350
H3    H     H_    0.805567 0.175106 0.301496 0.181449
H4    H     H_    0.980938 0.305021 0.203260 0.189811
H5    H     H_    0.549961 0.715957 0.310292 0.177653
H6    H     H_    0.297337 0.752267 0.165257 0.084555
O1    O     O_R   0.749250 0.499990 0.439200 -0.447797
O2    O     O_R   0.299400 0.468710 0.556310 -0.498434
O3    O     O_R   0.489240 0.256450 0.560730 -0.510949
O4    O     O_R   0.723350 0.306730 0.584410 -0.492599
O5    O     O_3   0.500010 0.500010 0.500020 -0.316765
O6    O     O_R   0.170650 0.915100 0.051290 -0.486976
O7    O     O_R   0.941960 0.184500 0.049060 -0.439980
O8    O     O_R   0.922640 0.402670 0.071640 -0.488333
O9    O     O_R   0.196880 0.368740 0.083740 -0.528721
O10   O     O_R   0.411120 0.181190 0.091480 -0.375364
O11   O     O_R   0.364220 0.944920 0.062310 -0.440322
O12   O     O_R   0.477870 0.725740 0.440280 -0.518438
O13   O     O_R   0.158740 0.906940 0.874970 -0.517958
O14   O     O_R   0.930920 0.176940 0.885610 -0.458892
O15   O     O_R   0.910730 0.394510 0.895320 -0.508297
O16   O     O_R   0.185840 0.361180 0.920280 -0.513990
O17   O     O_R   0.399210 0.173040 0.915160 -0.410920
O18   O     O_R   0.353170 0.937370 0.898860 -0.483118
O19   O     O_3   0.162150 0.162240 0.983280 -0.322903
O20   O     O_R   0.260770 0.742210 0.412610 -0.454883
O21   O     O_R   0.297990 0.466320 0.394220 -0.480516
O22   O     O_R   0.487720 0.253870 0.385870 -0.484493
O23   O     O_R   0.721940 0.304340 0.422320 -0.516549
O24   O     O_R   0.750770 0.502570 0.614050 -0.483425
O25   O     O_R   0.479280 0.728140 0.602370 -0.482942
O26   O     O_R   0.262290 0.744790 0.587460 -0.499391
S1    S     S_3+6 0.721879 0.167677 0.134771 0.060647
O27   O     O_2   0.609240 0.276329 0.082512 -0.263600
O28   O     O_2   0.814352 0.040752 0.083513 -0.215295
O29   O     O_3   0.646876 0.115386 0.192851 -0.489185
H7    H     H_    0.720794 0.020394 0.207567 0.389498
F1    F     F_    0.235542 0.308193 0.668514 -0.633037
S2    S     S_3+6 0.859176 0.507260 0.306962 0.003367
O30   O     O_2   0.773956 0.563373 0.230128 -0.319277
O31   O     O_2   0.818298 0.631966 0.368567 -0.221363
O32   O     O_3   0.032422 0.449199 0.300505 -0.539969
H8    H     H_    0.036118 0.522749 0.273799 0.374562
F2    F     F_    0.499281 0.919294 0.201532 -0.558130
S3    S     S_3+6 0.169507 0.990633 0.308017 -0.003955
O33   O     O_2   0.082622 0.938956 0.247099 -0.270557
O34   O     O_2   0.093100 0.054622 0.380953 -0.279635
O35   O     O_3   0.192312 0.113744 0.271210 -0.533987
H9    H     H_    0.242729 0.148135 0.315860 0.368010
S4    S     S_3+6 0.610402 0.130280 0.821675 0.051762
O36   O     O_2   0.664293 0.153416 0.906501 -0.220537
O37   O     O_2   0.581056 0.004528 0.812020 -0.242905
O38   O     O_3   0.734782 0.095863 0.762608 -0.542086
H10   H     H_    0.817248 0.007351 0.780023 0.375986

loop_
_geom_bond_atom_site_label_1
_geom_bond_atom_site_label_2
_ccdc_geom_bond_type
Cr1   O24   S    
Cr4   O14   S    
C2    C18   S    
Cr3   O3    S    
C25   O25   A    
S2    O30   D    
Cr6   O17   S    
C1    O20   A    
S3    O33   D    
Cr3   O23   S    
C7    C8    S    
C10   C22   S    
C24   O13   A    
Cr1   O25   S    
Cr1   O1    S    
C12   C28   S    
Cr5   O16   S    
C1    C5    S    
C28   C29   T    
C3    S1    S    
C12   O22   A    
S4    O37   D    
C11   S4    S    
C23   O1    A    
S1    O28   D    
C9    C13   D    
Cr6   O11   S    
C26   O3    A    
C19   O10   A    
C16   C17   T    
C14   C27   S    
C13   H1    S    
Cr6   O10   S    
Cr2   O26   S    
Cr4   O13   S    
Cr1   O5    S    
Cr3   O4    S    
C25   O26   A    
S3    O34   D    
C9    C26   S    
C17   C24   S    
C26   O2    A    
C23   C30   S    
O35   H9    S    
C22   O17   A    
C12   O21   A    
S4    O36   D    
O29   H7    S    
Cr4   O19   S    
S1    O29   S    
C1    O12   A    
C21   O15   A    
C19   O9    A    
C5    C8    D    
C5    S3    S    
C4    H3    S    
C24   O18   A    
Cr5   O8    S    
Cr2   O2    S    
Cr5   O19   S    
C8    H5    S    
S2    O31   D    
C20   O6    A    
C27   O4    A    
Cr5   O9    S    
Cr3   O5    S    
Cr2   O5    S    
Cr4   O6    S    
C9    F1    S    
C3    C4    S    
C19   C29   S    
S3    O35   S    
C18   O8    A    
C16   C25   S    
Cr4   O7    S    
O32   H8    S    
Cr2   O21   S    
C20   O11   A    
Cr6   O18   S    
S4    O38   S    
C22   O16   A    
C21   O14   A    
C6    C7    D    
C6    C20   S    
C10   H2    S    
Cr5   O15   S    
C23   O23   A    
C2    C3    D    
Cr2   O20   S    
C27   O24   A    
C30   S2    S    
C11   C13   S    
Cr3   O22   S    
Cr1   O12   S    
S1    O27   D    
S2    O32   S    
C10   C11   D    
C2    H4    S    
C15   C21   S    
C6    H6    S    
C14   C15   T    
O38   H10   S    
C4    C30   D    
Cr6   O19   S    
C18   O7    A    
C7    F2    S    
