data_mof_unit_23022.cif
_audit_creation_date              2012-12-11T14:46:03-0500
_audit_creation_method            fapswitch 2.2
_symmetry_space_group_name_H-M    P1
_symmetry_Int_Tables_number       1
_space_group_crystal_system       triclinic
_cell_length_a                    10.926161
_cell_length_b                    10.868808
_cell_length_c                    18.725317
_cell_angle_alpha                 89.678106
_cell_angle_beta                  90.407182
_cell_angle_gamma                 119.756052
_cell_volume                      1930.45388145

loop_
_atom_site_label
_atom_site_type_symbol
_atom_type_description
_atom_site_fract_x
_atom_site_fract_y
_atom_site_fract_z
_atom_type_partial_charge
C1    C     C_R   0.864458 0.637715 0.603290 0.534846
C2    C     C_R   0.420064 0.647255 0.776346 -0.120335
C3    C     C_R   0.377138 0.620157 0.706473 -0.119407
C4    C     C_R   0.261800 0.632724 0.683779 0.036042
C5    C     C_R   0.832852 0.153074 0.818840 -0.030021
C6    C     C_R   0.085628 0.226305 0.825984 -0.088877
C7    C     C_R   0.208945 0.248056 0.793172 -0.120636
C8    C     C_R   0.209570 0.224661 0.720308 -0.129882
C9    C     C_R   0.088714 0.185568 0.679383 -0.086807
C10   C     C_R   0.964502 0.170381 0.710735 -0.000351
C11   C     C_R   0.960419 0.181723 0.785922 -0.005005
C12   C     C_R   0.212332 0.596742 0.611289 0.569790
C13   C     C_R   0.713442 0.089556 0.702908 -0.000207
C14   C     C_R   0.713689 0.125411 0.774663 0.012940
C15   C     C_R   0.584210 0.017669 0.664328 0.028527
C16   C     C_R   0.463433 0.012584 0.692290 -0.109661
C17   C     C_R   0.470351 0.075185 0.757862 -0.147342
C18   C     C_R   0.593738 0.131350 0.798702 -0.079368
C19   C     C_R   0.843849 0.142267 0.669167 -0.042510
C20   C     C_R   0.727162 0.533816 0.713303 -0.142734
C21   C     C_R   0.718413 0.544815 0.786739 -0.157389
C22   C     C_R   0.801801 0.675915 0.819397 0.025526
C23   C     C_R   0.861834 0.221382 0.601510 0.556509
C24   C     C_R   0.883426 0.797630 0.777843 -0.134805
C25   C     C_R   0.890621 0.787126 0.705158 -0.161419
C26   C     C_R   0.818775 0.654465 0.673020 0.008469
C27   C     C_R   0.368018 0.577446 0.293179 -0.153084
C28   C     C_R   0.403565 0.596508 0.222669 -0.181584
C29   C     C_R   0.428779 0.720297 0.187257 0.043582
C30   C     C_R   0.423069 0.828723 0.225983 0.215269
C31   C     C_R   0.376331 0.804192 0.296194 -0.127860
C32   C     C_R   0.345948 0.677244 0.329381 -0.024461
C33   C     C_R   0.785343 0.276855 0.268815 -0.111303
C34   C     C_R   0.903962 0.613339 0.389775 0.542084
C35   C     C_R   0.780386 0.251987 0.196147 -0.087570
C36   C     C_R   0.864938 0.201844 0.166102 0.014380
C37   C     C_R   0.979720 0.213581 0.206238 -0.031140
C38   C     C_R   0.989130 0.246195 0.279146 -0.128973
C39   C     C_R   0.885811 0.268482 0.311538 0.003613
C40   C     C_R   0.988676 0.684331 0.267079 -0.146995
C41   C     C_R   0.963295 0.692126 0.194913 -0.131589
C42   C     C_R   0.824913 0.638996 0.170199 0.024030
C43   C     C_R   0.711981 0.561216 0.216119 -0.143864
C44   C     C_R   0.736633 0.554925 0.288344 -0.140944
C45   C     C_R   0.273679 0.634827 0.397142 0.540905
C46   C     C_R   0.875556 0.620152 0.314408 0.022523
C47   C     C_R   0.805667 0.103639 0.894242 0.524547
C48   C     C_R   0.392320 0.700146 0.897570 0.545052
C49   C     C_R   0.794112 0.695834 0.895092 0.544102
C50   C     C_R   0.812174 0.114772 0.100499 0.548269
C51   C     C_R   0.459960 0.728467 0.111163 0.590261
C52   C     C_R   0.799803 0.690235 0.102795 0.542370
C53   C     C_R   0.887788 0.293682 0.388518 0.548199
C54   C     C_R   0.192388 0.677214 0.731065 -0.146966
C55   C     C_R   0.235782 0.704215 0.802106 -0.140438
C56   C     C_R   0.347423 0.685306 0.824538 0.047713
Cr1   Cr    Cr6+3 0.791660 0.390250 0.499930 0.987389
Cr2   Cr    Cr6+3 0.098520 0.708290 0.500540 0.986436
Cr3   Cr    Cr6+3 0.109770 0.401430 0.499480 0.995918
Cr4   Cr    Cr6+3 0.874790 0.925890 0.000070 1.015016
Cr5   Cr    Cr6+3 0.574120 0.948670 0.999300 1.038244
Cr6   Cr    Cr6+3 0.551420 0.625320 0.000920 0.980954
H1    H     H_    0.103611 0.687868 0.713316 0.130627
H2    H     H_    0.364931 0.962686 0.662802 0.124270
H3    H     H_    0.378859 0.077468 0.777954 0.108612
H4    H     H_    0.669883 0.429857 0.689083 0.144476
H5    H     H_    0.650560 0.451496 0.817964 0.111314
H6    H     H_    0.943190 0.901830 0.801504 0.157344
H7    H     H_    0.959684 0.881263 0.674801 0.134506
H8    H     H_    0.346949 0.477955 0.317232 0.146026
H9    H     H_    0.404901 0.509959 0.195336 0.142788
H10   H     H_    0.180818 0.735349 0.839405 0.117117
H11   H     H_    0.359464 0.881883 0.323642 0.139565
H12   H     H_    0.707594 0.298354 0.291967 0.147639
H13   H     H_    0.700084 0.258599 0.164914 0.183017
H14   H     H_    0.075085 0.250859 0.310488 0.134817
H15   H     H_    0.095999 0.730165 0.286190 0.124086
H16   H     H_    0.051175 0.744884 0.158744 0.133068
H17   H     H_    0.605088 0.512365 0.196874 0.126192
H18   H     H_    0.647147 0.500425 0.323629 0.133135
H19   H     H_    0.509129 0.636188 0.793302 0.135756
H20   H     H_    0.433770 0.588552 0.670507 0.138000
H21   H     H_    0.303936 0.281770 0.824521 0.109133
H22   H     H_    0.304238 0.237425 0.695300 0.105382
H23   H     H_    0.090264 0.248114 0.882536 0.125918
H24   H     H_    0.092224 0.162457 0.623599 0.133029
H25   H     H_    0.594793 0.183797 0.847723 0.135067
O1    O     O_R   0.766500 0.250040 0.579790 -0.508395
O2    O     O_R   0.218690 0.701900 0.425960 -0.522122
O3    O     O_R   0.249490 0.516440 0.419420 -0.527147
O4    O     O_R   0.982880 0.281910 0.424890 -0.501526
O5    O     O_3   0.999980 0.499990 0.499980 -0.291889
O6    O     O_R   0.895110 0.806860 0.920430 -0.524636
O7    O     O_R   0.872260 0.046970 0.925000 -0.507936
O8    O     O_R   0.691430 0.085060 0.918550 -0.530767
O9    O     O_R   0.451490 0.822460 0.925250 -0.493737
O10   O     O_R   0.413330 0.603360 0.920440 -0.530189
O11   O     O_R   0.676110 0.626250 0.926750 -0.509797
O12   O     O_R   0.798570 0.516780 0.574780 -0.502692
O13   O     O_R   0.895350 0.809870 0.080950 -0.505409
O14   O     O_R   0.872490 0.049760 0.073800 -0.490439
O15   O     O_R   0.691680 0.088070 0.079070 -0.482952
O16   O     O_R   0.451720 0.825250 0.074050 -0.444082
O17   O     O_R   0.413580 0.606370 0.080960 -0.552080
O18   O     O_R   0.676340 0.629040 0.075550 -0.524462
O19   O     O_3   0.666780 0.833290 0.000090 -0.263278
O20   O     O_R   0.984000 0.732950 0.581090 -0.530675
O21   O     O_R   0.218600 0.700890 0.574760 -0.502086
O22   O     O_R   0.249390 0.515350 0.579940 -0.517149
O23   O     O_R   0.982790 0.280900 0.573700 -0.515363
O24   O     O_R   0.766600 0.251130 0.419260 -0.520980
O25   O     O_R   0.798660 0.517790 0.425980 -0.523517
O26   O     O_R   0.984100 0.734040 0.420570 -0.506736
C57   C     C_R   0.576039 0.946883 0.595544 0.039174
C58   C     C_R   0.525053 0.980817 0.533917 -0.025500
C59   C     C_R   0.540008 0.932886 0.467334 -0.055038
C60   C     C_R   0.599366 0.845228 0.461968 -0.080879
C61   C     C_R   0.643956 0.805225 0.523442 -0.101414
C62   C     C_R   0.633549 0.856761 0.589959 -0.112443
H26   H     H_    0.482003 0.051449 0.536852 0.091990
H27   H     H_    0.508272 0.966609 0.419867 0.115893
H28   H     H_    0.611378 0.808825 0.410202 0.122429
H29   H     H_    0.689526 0.737014 0.519363 0.131549
H30   H     H_    0.672873 0.828994 0.636986 0.108562
Cl1   Cl    Cl    0.470499 0.995083 0.190606 -0.700997
C63   C     C_R   0.089151 0.191910 0.173203 0.033455
C64   C     C_R   0.111550 0.082750 0.197403 -0.084016
C65   C     C_R   0.207578 0.055562 0.162462 -0.067570
C66   C     C_R   0.284033 0.138341 0.104134 -0.089167
C67   C     C_R   0.263739 0.249012 0.080461 -0.119556
C68   C     C_R   0.165987 0.275544 0.114689 -0.075465
H31   H     H_    0.051675 0.016102 0.241791 0.119614
H32   H     H_    0.220533 0.968755 0.180559 0.165749
H33   H     H_    0.358257 0.116325 0.077094 0.149336
H34   H     H_    0.322453 0.313077 0.035219 0.117766
H35   H     H_    0.148856 0.359902 0.095292 0.125706

loop_
_geom_bond_atom_site_label_1
_geom_bond_atom_site_label_2
_ccdc_geom_bond_type
C7    H21   S    
C55   C56   A    
C63   C64   A    
Cr1   O5    S    
C34   O25   A    
C41   C42   A    
C14   C18   A    
C35   C36   A    
C43   C44   A    
C65   C66   A    
C1    O12   A    
Cr2   O5    S    
C57   C58   A    
Cr5   O9    S    
C36   C50   S    
C7    C8    A    
Cr6   O18   S    
C38   H14   S    
C62   H30   S    
C64   H31   S    
C34   O26   A    
C40   C46   A    
C48   O10   A    
C5    C47   S    
C35   H13   S    
C33   C39   A    
C6    H23   S    
C20   H4    S    
C36   C37   A    
Cr5   O16   S    
C37   C38   A    
C39   C53   S    
C5    C11   A    
C2    C3    A    
C38   C39   A    
C31   H11   S    
Cr1   O25   S    
C54   H1    S    
C51   O16   A    
C15   C16   A    
Cr1   O12   S    
Cr3   O23   S    
C59   C60   A    
Cr2   O20   S    
C32   C45   S    
C61   C62   A    
C33   C35   A    
C49   O11   A    
Cr6   O11   S    
C67   H34   S    
C8    C9    A    
C53   O4    A    
Cr2   O26   S    
C64   C65   A    
C34   C46   S    
C13   C14   A    
C4    C12   S    
C45   O2    A    
C9    C10   A    
C57   C62   A    
C61   H29   S    
Cr4   O6    S    
C53   O24   A    
C30   Cl1   S    
C21   C22   A    
C21   H5    S    
C12   O22   A    
C25   C26   A    
C44   C46   A    
Cr6   O17   S    
C59   H27   S    
C13   C19   A    
C44   H18   S    
C24   C25   A    
C68   H35   S    
C6    C11   A    
C12   O21   A    
C16   C17   A    
C51   O17   A    
C52   O13   A    
Cr3   O3    S    
C19   C23   S    
C60   H28   S    
C29   C30   A    
Cr5   O19   S    
C9    H24   S    
Cr6   O10   S    
C31   C32   A    
C10   C19   A    
C3    H20   S    
C17   C18   A    
C15   C57   S    
Cr3   O4    S    
C45   O3    A    
C5    C14   A    
C27   H8    S    
C1    O20   A    
C22   C49   S    
C40   C41   A    
C52   O18   A    
C50   O15   A    
C23   O1    A    
C13   C15   A    
C1    C26   S    
C22   C24   A    
C28   H9    S    
C25   H7    S    
C42   C43   A    
C3    C4    A    
C41   H16   S    
Cr4   O19   S    
C37   C63   S    
C29   C51   S    
C48   C56   S    
C23   O23   A    
C54   C55   A    
C28   C29   A    
C48   O9    A    
C4    C54   A    
C27   C32   A    
C8    H22   S    
C55   H10   S    
Cr4   O13   S    
Cr5   O8    S    
C6    C7    A    
Cr6   O19   S    
C17   H3    S    
C18   H25   S    
Cr1   O1    S    
C67   C68   A    
C66   C67   A    
C2    C56   A    
C60   C61   A    
C30   C31   A    
C58   C59   A    
Cr1   O24   S    
C20   C26   A    
C63   C68   A    
Cr3   O22   S    
C47   O7    A    
Cr5   O15   S    
Cr2   O21   S    
Cr3   O5    S    
Cr2   O2    S    
C10   C11   A    
C24   H6    S    
C66   H33   S    
C33   H12   S    
C20   C21   A    
C50   O14   A    
C58   H26   S    
C27   C28   A    
C47   O8    A    
C40   H15   S    
C2    H19   S    
C16   H2    S    
C49   O6    A    
C65   H32   S    
C43   H17   S    
Cr4   O14   S    
C42   C52   S    
Cr4   O7    S    
