data_mof_unit_20707.cif
_audit_creation_date              2012-10-26T18:41:20-0400
_audit_creation_method            fapswitch 2.2
_symmetry_space_group_name_H-M    P1
_symmetry_Int_Tables_number       1
_space_group_crystal_system       triclinic
_cell_length_a                    19.435545
_cell_length_b                    18.068833
_cell_length_c                    10.74057
_cell_angle_alpha                 89.20608
_cell_angle_beta                  89.798006
_cell_angle_gamma                 90.114139
_cell_volume                      3771.45438479

loop_
_atom_site_label
_atom_site_type_symbol
_atom_type_description
_atom_site_fract_x
_atom_site_fract_y
_atom_site_fract_z
_atom_type_partial_charge
C1    C     C_R   0.367435 0.499955 0.499378 0.561761
C2    C     C_R   0.927831 0.500072 0.500673 -0.093754
C3    C     C_R   0.461922 0.721386 0.414575 0.075863
C4    C     C_R   0.541413 0.279163 0.580782 0.067592
C5    C     C_R   0.537550 0.720009 0.586411 0.057377
C6    C     C_R   0.457602 0.279762 0.421763 0.056445
C7    C     C_R   0.459079 0.799464 0.414747 0.201864
C8    C     C_R   0.543043 0.200557 0.584049 0.211759
C9    C     C_R   0.539588 0.798287 0.588065 0.201174
C10   C     C_R   0.457093 0.201534 0.418343 0.199959
C11   C     C_R   0.499254 0.838425 0.501447 0.043244
C12   C     C_R   0.632563 0.500048 0.500502 0.563762
C13   C     C_R   0.499373 0.161626 0.502347 0.045717
C14   C     C_R   0.560921 0.961237 0.488469 -0.077434
C15   C     C_R   0.437447 0.038415 0.516721 -0.071478
C16   C     C_R   0.437393 0.960724 0.515723 -0.082391
C17   C     C_R   0.560916 0.038912 0.488349 -0.080304
C18   C     C_R   0.499196 0.078563 0.502656 0.092182
C19   C     C_R   0.499140 0.921237 0.501734 0.098925
C20   C     C_R   0.510377 0.500775 0.262395 0.622172
C21   C     C_R   0.490612 0.499252 0.738169 0.620784
C22   C     C_R   0.527112 0.640241 0.104253 0.380949
C23   C     C_R   0.708084 0.500099 0.501240 0.023953
C24   C     C_R   0.480154 0.359404 0.896009 0.376530
C25   C     C_R   0.448688 0.630199 0.888459 0.388149
C26   C     C_R   0.557862 0.371593 0.112252 0.391911
C27   C     C_R   0.502065 0.704217 0.046354 -0.171340
C28   C     C_R   0.508816 0.296453 0.951458 -0.180307
C29   C     C_R   0.460106 0.698891 0.942333 -0.160198
C30   C     C_R   0.550547 0.303128 0.055512 -0.168086
C31   C     C_R   0.479456 0.565442 0.939434 -0.051312
C32   C     C_R   0.525090 0.435194 0.061589 -0.049889
C33   C     C_R   0.509638 0.569416 0.058255 -0.049942
C34   C     C_R   0.291905 0.499912 0.498310 0.020829
C35   C     C_R   0.495122 0.430789 0.942615 -0.050829
C36   C     C_R   0.481280 0.497420 0.875410 0.023766
C37   C     C_R   0.521914 0.502805 0.125802 0.027344
C38   C     C_R   0.744374 0.433032 0.496921 -0.114291
C39   C     C_R   0.255597 0.567042 0.499574 -0.114526
C40   C     C_R   0.255416 0.432785 0.495905 -0.117694
C41   C     C_R   0.744582 0.567152 0.506277 -0.118211
C42   C     C_R   0.816006 0.433060 0.497190 -0.054304
C43   C     C_R   0.183955 0.566969 0.499314 -0.054485
C44   C     C_R   0.183768 0.432816 0.495527 -0.050661
C45   C     C_R   0.963979 0.541747 0.410458 0.363274
C46   C     C_R   0.816232 0.567088 0.506359 -0.052500
C47   C     C_R   0.852273 0.500074 0.501609 0.109851
C48   C     C_R   0.147669 0.499874 0.497575 0.106690
C49   C     C_3   0.353305 0.816509 0.318529 -0.006208
C50   C     C_3   0.338165 0.782773 0.191528 -0.270622
C51   C     C_3   0.263257 0.758111 0.182225 -0.448387
C52   C     C_3   0.641449 0.193795 0.714664 -0.002452
C53   C     C_3   0.695708 0.206451 0.611869 -0.296163
C54   C     C_3   0.760635 0.241902 0.663997 -0.449717
C55   C     C_3   0.640940 0.809778 0.703067 -0.004396
C56   C     C_R   0.035869 0.458182 0.588723 0.362738
C57   C     C_3   0.644264 0.773761 0.832884 -0.263102
C58   C     C_3   0.715232 0.741181 0.858606 -0.454427
C59   C     C_3   0.408966 0.192381 0.219238 0.001333
C60   C     C_3   0.337567 0.225750 0.197305 -0.278588
C61   C     C_3   0.334371 0.267677 0.073192 -0.440254
C62   C     C_R   0.035680 0.541590 0.409287 0.356963
C63   C     C_R   0.964167 0.458240 0.589727 0.356843
C64   C     C_R   0.072058 0.499834 0.498454 -0.093590
Cu1   Cu    Cu3+1 0.500000 0.573360 0.500000 1.039270
Cu2   Cu    Cu3+1 0.500000 0.426640 0.500000 1.038433
F1    F     F_    0.573249 0.648242 0.197803 -0.611074
F2    F     F_    0.432781 0.349432 0.805092 -0.613804
F3    F     F_    0.404083 0.626708 0.791624 -0.613525
F4    F     F_    0.600670 0.376330 0.211539 -0.615092
F5    F     F_    0.929775 0.581096 0.321671 -0.564544
F6    F     F_    0.070008 0.418958 0.677745 -0.565045
F7    F     F_    0.069616 0.580750 0.319302 -0.575419
F8    F     F_    0.930162 0.418910 0.679422 -0.575008
H1    H     H_    0.575121 0.254593 0.095235 0.142663
H2    H     H_    0.156787 0.619222 0.501791 0.152083
H3    H     H_    0.156441 0.380553 0.492853 0.155246
H4    H     H_    0.843615 0.619253 0.510960 0.150196
H5    H     H_    0.433595 0.690515 0.346264 0.130905
H6    H     H_    0.572122 0.311926 0.642589 0.126424
H7    H     H_    0.565708 0.687696 0.654268 0.126019
H8    H     H_    0.424001 0.311961 0.362395 0.123195
H9    H     H_    0.609186 0.932241 0.476803 0.120009
H10   H     H_    0.389195 0.067241 0.529486 0.147526
H11   H     H_    0.389147 0.931317 0.527423 0.115599
H12   H     H_    0.437700 0.748334 0.901524 0.157159
H13   H     H_    0.609189 0.068169 0.475988 0.124418
H14   H     H_    0.321217 0.866898 0.328765 0.158949
H15   H     H_    0.336905 0.777669 0.394906 0.110013
H16   H     H_    0.349247 0.824363 0.116862 0.182863
H17   H     H_    0.371794 0.734170 0.176326 0.162815
H18   H     H_    0.251642 0.715044 0.254161 0.165953
H19   H     H_    0.253909 0.734409 0.088946 0.180403
H20   H     H_    0.228303 0.805994 0.195005 0.161364
H21   H     H_    0.664263 0.155582 0.785054 0.168934
H22   H     H_    0.629621 0.244695 0.767162 0.120781
H23   H     H_    0.498643 0.242331 0.913530 0.156436
H24   H     H_    0.709228 0.152485 0.569932 0.171315
H25   H     H_    0.675312 0.243134 0.537012 0.158406
H26   H     H_    0.748404 0.296646 0.704302 0.168452
H27   H     H_    0.798915 0.250086 0.588042 0.165550
H28   H     H_    0.783594 0.205654 0.737088 0.169555
H29   H     H_    0.676558 0.857954 0.700990 0.158986
H30   H     H_    0.660493 0.771354 0.630610 0.109912
H31   H     H_    0.632397 0.815920 0.904193 0.186219
H32   H     H_    0.605323 0.729000 0.841656 0.166756
H33   H     H_    0.727267 0.697427 0.790229 0.151888
H34   H     H_    0.514486 0.758046 0.083296 0.165458
H35   H     H_    0.716037 0.716163 0.953610 0.190943
H36   H     H_    0.755185 0.785148 0.852752 0.158208
H37   H     H_    0.416201 0.146343 0.152992 0.162749
H38   H     H_    0.450258 0.233147 0.196323 0.118040
H39   H     H_    0.298604 0.180629 0.197869 0.181305
H40   H     H_    0.324290 0.264305 0.273317 0.164081
H41   H     H_    0.369606 0.316124 0.074568 0.170688
H42   H     H_    0.281192 0.287932 0.057234 0.178432
H43   H     H_    0.349071 0.230904 0.995481 0.177272
H44   H     H_    0.717494 0.380580 0.492732 0.137518
H45   H     H_    0.282452 0.619609 0.501242 0.135405
H46   H     H_    0.282142 0.380258 0.494202 0.137868
H47   H     H_    0.717865 0.619626 0.510316 0.131284
H48   H     H_    0.843199 0.380892 0.492556 0.146055
N1    N     N_R   0.500000 0.683620 0.500000 -0.253630
N2    N     N_R   0.500000 0.316380 0.500000 -0.252172
O1    O     O_R   0.400190 0.561980 0.499980 -0.493692
O2    O     O_3   0.581385 0.158771 0.669592 -0.579686
O3    O     O_3   0.573683 0.836914 0.680693 -0.574741
O4    O     O_3   0.412842 0.162273 0.341506 -0.582567
O5    O     O_R   0.599810 0.438020 0.500020 -0.496147
O6    O     O_R   0.599810 0.561980 0.500020 -0.499915
O7    O     O_R   0.400190 0.438020 0.499980 -0.501484
O8    O     O_R   0.500000 0.561950 0.319660 -0.464477
O9    O     O_R   0.500000 0.438050 0.680340 -0.458615
O10   O     O_R   0.500000 0.561950 0.680340 -0.475790
O11   O     O_R   0.500000 0.438050 0.319660 -0.477812
O12   O     O_3   0.423251 0.838680 0.323780 -0.575619

loop_
_geom_bond_atom_site_label_1
_geom_bond_atom_site_label_2
_ccdc_geom_bond_type
C28   H23   S    
C25   C31   A    
C15   C18   A    
C57   H31   S    
C26   C32   A    
C8    C13   A    
C6    H8    S    
C45   F5    S    
C58   H35   S    
C54   H27   S    
C60   H40   S    
C35   C36   A    
C14   C17   A    
C6    N2    A    
C4    C8    A    
C3    H5    S    
Cu1   O6    S    
C21   C36   S    
C53   C54   S    
C53   H25   S    
C7    C11   A    
C12   C23   S    
C11   C19   S    
C9    O3    S    
C12   O6    A    
C13   C18   S    
C34   C40   A    
C44   H3    S    
C1    O1    A    
C38   C42   A    
C3    C7    A    
C53   H24   S    
C48   C64   S    
C27   C29   A    
C15   C16   A    
C55   H29   S    
C45   C62   A    
C4    N2    A    
C52   H21   S    
C58   H33   S    
C41   H47   S    
C62   C64   A    
C50   H16   S    
C56   F6    S    
C61   H41   S    
C59   H37   S    
C41   C46   A    
C56   C64   A    
C62   F7    S    
C43   C48   A    
Cu1   O10   S    
Cu2   O5    S    
C57   H32   S    
C59   C60   S    
C58   H36   S    
C49   H14   S    
C54   H26   S    
C60   H39   S    
C14   H9    S    
C20   O8    A    
C10   O4    S    
C21   O9    A    
C3    N1    A    
C1    C34   S    
C59   H38   S    
C2    C45   A    
C25   C29   A    
C24   C35   A    
C12   O5    A    
C61   H43   S    
C34   C39   A    
C32   C35   A    
C46   H4    S    
C52   O2    S    
C39   C43   A    
C50   C51   S    
C59   O4    S    
C55   H30   S    
C33   C37   A    
C60   C61   S    
Cu1   O1    S    
C5    C9    A    
C51   H18   S    
Cu2   O9    S    
C5    H7    S    
C61   H42   S    
C31   C33   A    
C17   C18   A    
C56   C63   A    
C32   C37   A    
C9    C11   A    
C29   H12   S    
C51   H19   S    
C8    O2    S    
C40   H46   S    
C49   O12   S    
C55   O3    S    
C26   C30   A    
C22   C27   A    
C55   C57   S    
C16   H11   S    
C26   F4    S    
Cu2   N2    S    
C25   F3    S    
C21   O10   A    
Cu1   O8    S    
C2    C63   A    
C42   H48   S    
Cu2   O7    S    
C43   H2    S    
C22   C33   A    
C46   C47   A    
C17   H13   S    
C14   C19   A    
C54   H28   S    
C24   C28   A    
C49   H15   S    
C1    O7    A    
C10   C13   A    
C6    C10   A    
C4    H6    S    
C15   H10   S    
C63   F8    S    
C2    C47   S    
C23   C38   A    
C5    N1    A    
C23   C41   A    
C28   C30   A    
C7    O12   S    
Cu1   Cu2   S    
C20   C37   S    
C57   C58   S    
C27   H34   S    
C16   C19   A    
C39   H45   S    
C52   H22   S    
C42   C47   A    
Cu1   N1    S    
C20   O11   A    
C22   F1    S    
C24   F2    S    
C51   H20   S    
Cu2   O11   S    
C38   H44   S    
C50   H17   S    
C40   C44   A    
C30   H1    S    
C49   C50   S    
C31   C36   A    
C44   C48   A    
C52   C53   S    
