data_mof_unit_67857.cif
_audit_creation_date              2013-03-05T15:41:50-0500
_audit_creation_method            fapswitch 2.2
_symmetry_space_group_name_H-M    P1
_symmetry_Int_Tables_number       1
_space_group_crystal_system       triclinic
_cell_length_a                    8.044197
_cell_length_b                    8.809311
_cell_length_c                    10.581834
_cell_angle_alpha                 93.634109
_cell_angle_beta                  83.561316
_cell_angle_gamma                 90.247649
_cell_volume                      743.638186114

loop_
_atom_site_label
_atom_site_type_symbol
_atom_site_description
_atom_site_fract_x
_atom_site_fract_y
_atom_site_fract_z
_atom_type_partial_charge
O1    O     O_R   0.389250 0.738570 0.508410 -0.619256
O2    O     O_R   0.610750 0.261430 0.491590 -0.619258
O3    O     O_R   0.678390 0.711620 0.486450 -0.641142
O4    O     O_R   0.321610 0.288380 0.513550 -0.641142
C1    C     C_R   0.542088 0.792721 0.493251 0.950305
C2    C     C_R   0.457912 0.207279 0.506749 0.950302
O5    O     O_R   0.355460 0.513510 0.697030 -0.627500
O6    O     O_R   0.644540 0.486490 0.302970 -0.627502
O7    O     O_R   0.644600 0.486560 0.675070 -0.642855
O8    O     O_R   0.355400 0.513440 0.324930 -0.642853
C3    C     C_R   0.499830 0.509647 0.742060 0.837110
C4    C     C_R   0.500170 0.490352 0.257940 0.837110
Zn1   Zn    Zn3+2 0.306940 0.517990 0.514670 0.913101
Zn2   Zn    Zn3+2 0.693060 0.482010 0.485330 0.913099
N1    N     N_2   0.950320 0.457950 0.465730 -0.194354
N2    N     N_2   0.049680 0.542050 0.534270 -0.194353
C5    C     C_3   0.349862 0.553146 0.978798 0.053128
C6    C     C_3   0.650139 0.446851 0.021201 0.053130
C7    C     C_3   0.471323 0.636894 0.061391 0.010612
C8    C     C_3   0.528677 0.363104 0.938609 0.010615
C9    C     C_3   0.501651 0.487749 0.121782 -0.095969
C10   C     C_3   0.498349 0.512249 0.878218 -0.095969
C11   C     C_3   0.377894 0.402531 0.042043 -0.302157
C12   C     C_3   0.622106 0.597466 0.957957 -0.302159
H1    H     H_    0.286196 0.330419 0.094358 0.167609
H2    H     H_    0.713805 0.669578 0.905641 0.167609
H3    H     H_    0.013777 0.380349 0.401208 0.180404
H4    H     H_    0.986223 0.619651 0.598792 0.180405
C13   C     C_2   0.563716 0.953096 0.482527 -0.327728
C14   C     C_2   0.436284 0.046904 0.517473 -0.327728
H5    H     H_    0.687054 0.994555 0.448093 0.161030
H6    H     H_    0.312946 0.005445 0.551907 0.161031
C15   C     C_R   0.417372 0.782894 0.143446 0.081655
C16   C     C_R   0.503235 0.918377 0.125730 -0.179281
C17   C     C_R   0.436328 0.056124 0.180996 -0.171118
C18   C     C_R   0.288783 0.060281 0.262749 -0.151729
C19   C     C_R   0.208594 0.925384 0.291589 -0.145980
C20   C     C_R   0.271436 0.788797 0.232104 -0.046670
H7    H     H_    0.614541 0.919371 0.061895 0.141817
H8    H     H_    0.491031 0.160662 0.152627 0.127655
H9    H     H_    0.235142 0.167950 0.301490 0.149280
H10   H     H_    0.094336 0.926788 0.356361 0.119500
H11   H     H_    0.198092 0.690559 0.253242 0.153619
C21   C     C_R   0.582626 0.217104 0.856554 0.081658
C22   C     C_R   0.496765 0.081620 0.874274 -0.179278
C23   C     C_R   0.563672 0.943873 0.819011 -0.171127
C24   C     C_R   0.711215 0.939715 0.737256 -0.151725
C25   C     C_R   0.791402 0.074611 0.708412 -0.145980
C26   C     C_R   0.728560 0.211199 0.767895 -0.046677
H12   H     H_    0.385461 0.080627 0.938112 0.141817
H13   H     H_    0.508972 0.839336 0.847384 0.127659
H14   H     H_    0.764855 0.832045 0.698517 0.149279
H15   H     H_    0.905656 0.073206 0.643638 0.119501
H16   H     H_    0.801904 0.309436 0.746753 0.153621
C27   C     C_R   0.192368 0.637981 0.958245 0.122138
C28   C     C_R   0.056422 0.643004 0.053678 -0.153831
C29   C     C_R   0.933077 0.754083 0.057207 -0.161871
C30   C     C_R   0.936752 0.851943 0.958276 -0.147056
C31   C     C_R   0.063544 0.841877 0.858525 -0.187109
C32   C     C_R   0.192355 0.739420 0.860346 -0.135359
H17   H     H_    0.049257 0.564048 0.128343 0.142895
H18   H     H_    0.833973 0.762584 0.135402 0.153343
H19   H     H_    0.845900 0.940562 0.958957 0.175342
H20   H     H_    0.068418 0.920531 0.783786 0.139905
H21   H     H_    0.292515 0.747809 0.786074 0.150520
C33   C     C_R   0.807633 0.362015 0.041753 0.122137
C34   C     C_R   0.943577 0.356989 0.946317 -0.153826
C35   C     C_R   0.066922 0.245909 0.942790 -0.161867
C36   C     C_R   0.063250 0.148053 0.041724 -0.147055
C37   C     C_R   0.936460 0.158121 0.141475 -0.187109
C38   C     C_R   0.807647 0.260577 0.139653 -0.135368
H22   H     H_    0.950743 0.435944 0.871650 0.142893
H23   H     H_    0.166025 0.237404 0.864592 0.153340
H24   H     H_    0.154102 0.059434 0.041043 0.175340
H25   H     H_    0.931587 0.079470 0.216216 0.139905
H26   H     H_    0.707492 0.252192 0.213929 0.150523

loop_
_geom_bond_atom_site_label_1
_geom_bond_atom_site_label_2
_geom_bond_distance
_ccdc_geom_bond_type
C21   C26   1.417148 A    
N2    H4    1.029436 S    
C27   C28   1.401696 A    
C6    C9    1.536008 S    
C17   C18   1.387266 A    
C29   H18   1.081919 S    
C22   C23   1.396145 A    
O5    C3    1.305159 A    
C31   H20   1.081378 S    
C5    C11   1.551829 S    
O1    C1    1.313488 A    
C18   C19   1.384413 A    
C7    C9    1.529159 S    
C12   H2    1.096850 S    
C16   C17   1.396150 A    
C38   H26   1.066369 S    
C26   H16   1.066575 S    
O4    Zn1   2.025862 S    
C28   C29   1.392426 A    
C34   H22   1.081891 S    
C19   H10   1.082789 S    
C24   C25   1.384408 A    
C35   C36   1.395436 A    
C37   C38   1.379659 A    
C6    C12   1.551829 S    
C13   C14   1.324394 D    
C5    C27   1.517056 S    
C33   C34   1.401703 A    
C31   C32   1.379658 A    
C27   C32   1.410361 A    
C18   H9    1.080952 S    
O2    C2    1.313488 A    
C8    C21   1.541172 S    
C1    C13   1.432799 S    
C25   H15   1.082782 S    
C16   H7    1.059764 S    
O4    C2    1.303974 A    
C7    C15   1.541174 S    
C35   H23   1.081922 S    
C4    C9    1.438240 S    
C34   C35   1.392430 A    
O7    Zn2   1.999803 S    
C19   C20   1.391914 A    
N1    H3    1.029436 S    
C33   C38   1.410363 A    
C8    C11   1.564455 S    
O6    C4    1.305158 A    
C15   C16   1.388841 A    
C36   H24   1.070819 S    
O7    C3    1.303334 A    
O3    Zn2   2.025862 S    
O8    C4    1.303336 A    
C25   C26   1.391911 A    
C2    C14   1.432799 S    
C8    C10   1.529157 S    
C32   H21   1.066369 S    
C9    C11   1.538910 S    
C10   C12   1.538910 S    
O1    Zn1   2.052805 S    
C21   C22   1.388840 A    
C30   H19   1.070820 S    
C23   C24   1.387260 A    
O6    Zn2   2.014040 S    
Zn2   N1    2.067007 S    
C15   C20   1.417151 A    
O3    C1    1.303973 A    
O8    Zn1   1.999803 S    
C24   H14   1.080953 S    
C6    C33   1.517060 S    
C3    C10   1.438238 S    
C5    C10   1.536004 S    
C17   H8    1.064774 S    
C30   C31   1.381950 A    
C20   H11   1.066576 S    
C13   H5    1.087748 S    
C14   H6    1.087747 S    
C29   C30   1.395432 A    
C22   H12   1.059762 S    
C23   H13   1.064767 S    
C5    C7    1.538284 S    
C7    C12   1.564457 S    
C6    C8    1.538285 S    
C11   H1    1.096848 S    
C36   C37   1.381943 A    
O2    Zn2   2.052805 S    
O5    Zn1   2.014041 S    
Zn1   N2    2.067007 S    
C37   H25   1.081378 S    
C28   H17   1.081883 S    
N1    N2    1.330609 D    
