data_mof_unit_27213.cif
_audit_creation_date              2012-12-11T15:50:37-0500
_audit_creation_method            fapswitch 2.2
_symmetry_space_group_name_H-M    P1
_symmetry_Int_Tables_number       1
_space_group_crystal_system       triclinic
_cell_length_a                    19.186034
_cell_length_b                    11.214413
_cell_length_c                    18.768826
_cell_angle_alpha                 90.372872
_cell_angle_beta                  90.350841
_cell_angle_gamma                 90.508022
_cell_volume                      4037.98125225

loop_
_atom_site_label
_atom_site_type_symbol
_atom_type_description
_atom_site_fract_x
_atom_site_fract_y
_atom_site_fract_z
_atom_type_partial_charge
C1    C     C_R   0.289006 0.000738 0.860494 0.550810
C2    C     C_R   0.774793 0.546100 0.933269 0.001022
C3    C     C_R   0.227671 0.545543 0.353403 0.534223
C4    C     C_R   0.438696 0.818417 0.640312 0.557184
C5    C     C_R   0.529476 0.822695 0.352131 0.525641
C6    C     C_R   0.939542 0.318784 0.639991 0.568801
C7    C     C_R   0.028348 0.321944 0.351704 0.516920
C8    C     C_R   0.260839 0.639293 0.643310 0.541351
C9    C     C_R   0.740228 0.637911 0.355942 0.541212
C10   C     C_R   0.761196 0.141767 0.642337 0.531992
C11   C     C_R   0.240708 0.135622 0.354450 0.543790
C12   C     C_3   0.514312 0.926679 0.020015 -0.020452
C13   C     C_R   0.738640 0.080347 0.072133 -0.026507
C14   C     C_3   0.561480 0.887109 0.955246 -0.008261
C15   C     C_3   0.005867 0.432196 0.025727 -0.017331
C16   C     C_3   0.053422 0.365696 0.970233 -0.004888
C17   C     C_3   0.452056 0.851555 0.991491 -0.191015
C18   C     C_3   0.585209 0.776404 0.998633 -0.183318
C19   C     C_3   0.939369 0.382314 0.987696 -0.207969
C20   C     C_3   0.052310 0.253536 0.017985 -0.176812
C21   C     C_3   0.497661 0.816618 0.928034 -0.032149
C22   C     C_3   0.539468 0.816433 0.061453 -0.033269
C23   C     C_3   0.986827 0.319442 0.932893 -0.018461
C24   C     C_R   0.276993 0.030861 0.934351 -0.002364
C25   C     C_3   0.006863 0.319933 0.071503 0.011173
C26   C     C_3   0.496169 0.462563 0.438449 -0.019268
C27   C     C_3   0.471074 0.441982 0.362193 -0.343257
C28   C     C_3   0.617684 0.795795 0.588046 -0.012882
C29   C     C_3   0.647223 0.848407 0.656843 -0.328293
C30   C     C_3   0.974878 0.978361 0.363923 -0.012296
C31   C     C_3   0.039942 0.917509 0.335744 -0.351984
C32   C     C_3   0.111626 0.228488 0.556224 -0.011624
C33   C     C_3   0.153468 0.280257 0.618406 -0.325111
C34   C     C_2   0.495210 0.026989 0.067800 0.643475
C35   C     C_R   0.301381 0.556789 0.035784 0.012393
C36   C     C_2   0.610747 0.911472 0.894229 0.565372
C37   C     C_2   0.996374 0.539294 0.072387 0.633646
C38   C     C_2   0.122561 0.366024 0.933712 0.575173
C39   C     C_3   0.570933 0.591786 0.875486 0.021857
C40   C     C_3   0.548192 0.494158 0.823138 -0.328127
C41   C     C_3   0.397707 0.725546 0.123806 0.006918
C42   C     C_3   0.385415 0.649483 0.189788 -0.345230
C43   C     C_3   0.036315 0.045844 0.924637 0.012992
C44   C     C_3   0.019594 0.956243 0.865522 -0.336669
C45   C     C_3   0.846288 0.304773 0.109120 -0.015232
C46   C     C_R   0.714764 0.521624 0.969151 -0.025107
C47   C     C_3   0.848923 0.287110 0.189446 -0.345120
C48   C     C_2   0.116482 0.632927 0.916025 0.584261
C49   C     C_2   0.885939 0.713551 0.067153 0.613418
C50   C     C_2   0.613373 0.177414 0.926504 0.570425
C51   C     C_2   0.384047 0.205106 0.065479 0.615748
C52   C     C_R   0.796192 0.049003 0.033904 0.075961
C53   C     C_R   0.215086 0.006166 0.968356 -0.005134
C54   C     C_R   0.306858 0.571315 0.962772 0.007107
C55   C     C_R   0.705556 0.551951 0.038932 -0.020981
C56   C     C_R   0.798719 0.057624 0.960710 0.058487
C57   C     C_R   0.725873 0.039681 0.145263 0.523525
C58   C     C_R   0.206268 0.036495 0.039650 -0.013870
C59   C     C_R   0.183731 0.615100 0.956088 0.034209
C60   C     C_R   0.822838 0.640423 0.040415 -0.027001
C61   C     C_R   0.680451 0.131501 0.959349 0.012874
C62   C     C_R   0.323255 0.126187 0.041105 -0.002650
C63   C     C_R   0.184876 0.623164 0.030776 -0.136320
C64   C     C_R   0.827821 0.606819 0.969288 -0.193208
C65   C     C_R   0.684170 0.133846 0.034139 -0.173279
C66   C     C_R   0.331790 0.080624 0.972819 -0.194098
C67   C     C_3   0.342511 0.448321 0.035621 -0.192659
C68   C     C_R   0.787372 0.506115 0.861008 0.541546
C69   C     C_3   0.680318 0.406726 0.977538 -0.236643
C70   C     C_3   0.832359 0.937282 0.035608 -0.199474
C71   C     C_3   0.190260 0.883739 0.981054 -0.268200
C72   C     C_3   0.353417 0.467013 0.956751 -0.242490
C73   C     C_3   0.664821 0.441752 0.053660 -0.221072
C74   C     C_3   0.833843 0.941060 0.955275 -0.277273
C75   C     C_3   0.177113 0.917299 0.057531 -0.266411
C76   C     C_R   0.247651 0.591534 0.921312 0.010282
C77   C     C_R   0.759521 0.602630 0.077807 -0.012710
C78   C     C_R   0.741999 0.094776 0.921496 0.015347
C79   C     C_R   0.226093 0.539299 0.144956 0.541020
C80   C     C_R   0.258869 0.095526 0.077597 0.015175
C81   C     C_R   0.493350 0.824522 0.420156 -0.015731
C82   C     C_R   0.452310 0.821865 0.564083 0.001126
C83   C     C_R   0.985756 0.322739 0.416580 -0.022690
C84   C     C_R   0.951155 0.323581 0.562886 0.003190
C85   C     C_R   0.466315 0.819199 0.856699 0.579465
C86   C     C_R   0.560872 0.815933 0.137798 0.549184
C87   C     C_R   0.967200 0.320040 0.856771 0.612839
C88   C     C_R   0.030595 0.319296 0.145352 0.582808
C89   C     C_R   0.496663 0.720403 0.460556 -0.012272
C90   C     C_3   0.523084 0.705475 0.967985 0.295378
C91   C     C_R   0.478269 0.720155 0.531156 -0.040264
C92   C     C_R   0.972537 0.214272 0.452851 -0.006862
C93   C     C_R   0.960382 0.217738 0.525233 -0.014607
C94   C     C_R   0.440052 0.923019 0.521782 -0.176208
C95   C     C_R   0.461540 0.925469 0.450032 -0.171120
C96   C     C_R   0.949389 0.429964 0.523559 -0.168402
C97   C     C_R   0.967132 0.429929 0.450756 -0.173251
C98   C     C_3   0.558661 0.641628 0.474038 0.181985
C99   C     C_3   0.537203 0.638876 0.552184 0.170796
C100  C     C_3   0.014881 0.100003 0.459687 0.154332
C101  C     C_3   0.478499 0.742316 0.031762 0.309911
C102  C     C_3   0.006006 0.113131 0.540122 0.199144
C103  C     C_R   0.243598 0.592199 0.422754 0.024000
C104  C     C_R   0.750822 0.580836 0.576543 0.039677
C105  C     C_R   0.747103 0.098514 0.420347 0.011132
C106  C     C_R   0.269141 0.039332 0.567645 0.020855
C107  C     C_R   0.188230 0.633626 0.463861 0.020971
C108  C     C_R   0.781426 0.680185 0.545505 -0.013892
C109  C     C_R   0.696451 0.160218 0.458706 0.022618
C110  C     C_R   0.288965 0.150323 0.542220 0.013517
C111  C     C_R   0.193610 0.638586 0.535808 0.016710
C112  C     C_3   0.986541 0.208184 0.980314 0.284364
C113  C     C_R   0.781270 0.690167 0.473311 0.014747
C114  C     C_R   0.700863 0.167787 0.530822 0.025925
C115  C     C_R   0.282576 0.173739 0.472474 0.019292
C116  C     C_R   0.313588 0.578691 0.529216 -0.173006
C117  C     C_R   0.711036 0.512556 0.459606 -0.140990
C118  C     C_R   0.811745 0.069718 0.529315 -0.159357
C119  C     C_R   0.220443 0.989512 0.451253 -0.174577
C120  C     C_R   0.308302 0.574771 0.454968 -0.176408
C121  C     C_R   0.710820 0.501380 0.533503 -0.117871
C122  C     C_R   0.808276 0.064862 0.455135 -0.161517
C123  C     C_3   0.941773 0.271678 0.035188 0.292845
C124  C     C_R   0.230134 0.961444 0.523161 -0.140713
C125  C     C_3   0.113517 0.593419 0.467991 -0.254417
C126  C     C_3   0.851381 0.739264 0.552932 -0.263350
C127  C     C_3   0.618320 0.148046 0.461302 -0.264065
C128  C     C_3   0.350628 0.232272 0.551129 -0.271478
C129  C     C_3   0.119886 0.602446 0.548127 -0.271920
C130  C     C_3   0.852810 0.743608 0.472309 -0.240485
C131  C     C_3   0.624012 0.159335 0.541369 -0.276107
C132  C     C_3   0.345284 0.253136 0.471365 -0.272771
C133  C     C_R   0.259666 0.635964 0.850135 0.567313
C134  C     C_R   0.240453 0.579532 0.071695 -0.018798
C135  C     C_R   0.741189 0.639200 0.149055 0.533374
C136  C     C_R   0.758536 0.136560 0.850222 0.549674
C137  C     C_R   0.240494 0.139920 0.148044 0.553692
C138  C     C_R   0.254035 0.603553 0.570284 0.012138
C139  C     C_R   0.749355 0.604948 0.428983 0.010045
C140  C     C_R   0.754957 0.113598 0.567931 0.007480
C141  C     C_R   0.251771 0.093425 0.424829 0.014526
C142  C     C_R   0.287720 0.005215 0.638004 0.526796
C143  C     C_R   0.728073 0.046408 0.352994 0.534547
C144  C     C_R   0.772002 0.543142 0.645952 0.553469
Cr1   Cr    Cr6+3 0.229640 0.835880 0.747370 1.036345
Cr2   Cr    Cr6+3 0.614230 0.677220 0.250660 1.029814
Cr3   Cr    Cr6+3 0.885770 0.177220 0.749340 1.012403
Cr4   Cr    Cr6+3 0.114230 0.177220 0.250660 0.995211
Cr5   Cr    Cr6+3 0.770360 0.835880 0.252630 1.029157
Cr6   Cr    Cr6+3 0.729640 0.335880 0.747370 1.027548
Cr7   Cr    Cr6+3 0.270360 0.335880 0.252630 1.030021
Cr8   Cr    Cr6+3 0.387390 0.989720 0.750850 1.038458
Cr9   Cr    Cr6+3 0.612610 0.989720 0.249150 1.027351
Cr10  Cr    Cr6+3 0.887390 0.489720 0.750850 1.020694
Cr11  Cr    Cr6+3 0.112610 0.489720 0.249150 1.026139
Cr12  Cr    Cr6+3 0.385770 0.677220 0.749340 0.993485
H1    H     H_    0.396361 0.875657 0.987585 0.108970
H2    H     H_    0.975974 0.038517 0.564059 0.160438
H3    H     H_    0.835551 0.193420 0.202785 0.163610
H4    H     H_    0.019196 0.694444 0.914444 0.330646
H5    H     H_    0.921947 0.771263 0.969402 0.275942
H6    H     H_    0.528159 0.276733 0.938543 0.351539
H7    H     H_    0.412690 0.258835 0.965521 0.279222
H8    H     H_    0.607756 0.690551 0.463137 0.134144
H9    H     H_    0.517062 0.550748 0.569684 0.129405
H10   H     H_    0.363493 0.562059 0.554202 0.127046
H11   H     H_    0.682764 0.448647 0.426695 0.169374
H12   H     H_    0.857641 0.037683 0.556229 0.129836
H13   H     H_    0.191535 0.929218 0.416569 0.123415
H14   H     H_    0.352296 0.549770 0.423003 0.116142
H15   H     H_    0.684448 0.424823 0.555974 0.153049
H16   H     H_    0.850085 0.026139 0.425475 0.160550
H17   H     H_    0.639520 0.745930 0.004932 0.154495
H18   H     H_    0.209892 0.878115 0.543249 0.151969
H19   H     H_    0.106257 0.500052 0.449108 0.156965
H20   H     H_    0.892980 0.683520 0.575675 0.156996
H21   H     H_    0.598834 0.058561 0.444295 0.163037
H22   H     H_    0.399760 0.188913 0.567485 0.141295
H23   H     H_    0.077033 0.659457 0.444965 0.139322
H24   H     H_    0.847353 0.828603 0.578274 0.134806
H25   H     H_    0.591822 0.224612 0.435897 0.141648
H26   H     H_    0.337534 0.312849 0.583020 0.145243
H27   H     H_    0.088730 0.676162 0.571218 0.159220
H28   H     H_    0.889302 0.419008 0.971694 0.100283
H29   H     H_    0.853339 0.834813 0.450972 0.166947
H30   H     H_    0.601863 0.243774 0.562286 0.144800
H31   H     H_    0.331872 0.345519 0.457316 0.156025
H32   H     H_    0.114571 0.515532 0.575528 0.136919
H33   H     H_    0.891788 0.682831 0.448339 0.135764
H34   H     H_    0.607672 0.077491 0.570019 0.136724
H35   H     H_    0.389138 0.213512 0.441125 0.133725
H36   H     H_    0.143046 0.664134 0.057620 0.228052
H37   H     H_    0.877127 0.614433 0.942584 0.138412
H38   H     H_    0.643792 0.176857 0.063527 0.238543
H39   H     H_    0.097069 0.197112 0.033668 0.151234
H40   H     H_    0.382620 0.082451 0.948112 0.147938
H41   H     H_    0.796219 0.868465 0.056477 0.147881
H42   H     H_    0.234580 0.821878 0.974821 0.126064
H43   H     H_    0.306727 0.373194 0.047504 0.166410
H44   H     H_    0.720701 0.337842 0.972083 0.124286
H45   H     H_    0.390904 0.455907 0.067883 0.234718
H46   H     H_    0.634862 0.402876 0.941893 0.195281
H47   H     H_    0.883754 0.950863 0.062239 0.236813
H48   H     H_    0.143587 0.863539 0.948775 0.188534
H49   H     H_    0.407452 0.494242 0.943407 0.221534
H50   H     H_    0.417795 0.001257 0.545267 0.128804
H51   H     H_    0.608785 0.461006 0.062680 0.215219
H52   H     H_    0.885885 0.950322 0.932006 0.200577
H53   H     H_    0.120915 0.920894 0.071268 0.181527
H54   H     H_    0.331926 0.394966 0.922038 0.112747
H55   H     H_    0.689141 0.384256 0.094489 0.116795
H56   H     H_    0.802025 0.869440 0.929984 0.161943
H57   H     H_    0.210103 0.867664 0.096023 0.132734
H58   H     H_    0.453968 0.502301 0.470191 0.094254
H59   H     H_    0.507059 0.374726 0.462767 0.123696
H60   H     H_    0.512805 0.399597 0.330326 0.162379
H61   H     H_    0.456567 0.006721 0.419651 0.127541
H62   H     H_    0.424501 0.382694 0.361486 0.100495
H63   H     H_    0.456903 0.528180 0.337582 0.161863
H64   H     H_    0.581737 0.861479 0.564736 0.126209
H65   H     H_    0.661202 0.784225 0.550557 0.123923
H66   H     H_    0.685163 0.785973 0.680950 0.158702
H67   H     H_    0.674222 0.933999 0.645869 0.098196
H68   H     H_    0.604418 0.864677 0.695156 0.215232
H69   H     H_    0.962378 0.061131 0.334937 0.166668
H70   H     H_    0.930389 0.917142 0.352328 0.143032
H71   H     H_    0.086368 0.974584 0.344398 0.171069
H72   H     H_    0.940258 0.513482 0.550131 0.133841
H73   H     H_    0.047743 0.831371 0.363384 0.140208
H74   H     H_    0.033971 0.900157 0.277701 0.115318
H75   H     H_    0.084367 0.303257 0.530310 0.116046
H76   H     H_    0.147929 0.189891 0.517182 0.139925
H77   H     H_    0.180346 0.208119 0.647662 0.200777
H78   H     H_    0.193096 0.344451 0.598483 0.090305
H79   H     H_    0.118159 0.327234 0.655701 0.186752
H80   H     H_    0.449366 0.049233 0.163717 0.368726
H81   H     H_    0.703770 0.875146 0.850401 0.326772
H82   H     H_    0.965242 0.581838 0.172074 0.366069
H83   H     H_    0.972611 0.514144 0.423451 0.126190
H84   H     H_    0.224186 0.330469 0.944648 0.328140
H85   H     H_    0.625203 0.578944 0.889284 0.150443
H86   H     H_    0.573517 0.677611 0.846857 0.162087
H87   H     H_    0.491997 0.501961 0.809906 0.172579
H88   H     H_    0.578832 0.501669 0.773316 0.129335
H89   H     H_    0.557170 0.404979 0.846042 0.142824
H90   H     H_    0.347301 0.750688 0.099121 0.123402
H91   H     H_    0.422311 0.808153 0.143745 0.200062
H92   H     H_    0.429656 0.658997 0.227760 0.163144
H93   H     H_    0.337475 0.679028 0.217385 0.096514
H94   H     H_    0.069683 0.104141 0.441300 0.145391
H95   H     H_    0.380563 0.554011 0.175556 0.185799
H96   H     H_    0.064514 0.000651 0.967887 0.158364
H97   H     H_    0.071033 0.115263 0.901040 0.154687
H98   H     H_    0.991357 0.999663 0.821148 0.175980
H99   H     H_    0.068679 0.918423 0.844414 0.126688
H100  H     H_    0.986940 0.882722 0.885920 0.135390
H101  H     H_    0.792066 0.292203 0.090890 0.127948
H102  H     H_    0.858742 0.398747 0.096789 0.173581
H103  H     H_    0.901781 0.308323 0.210370 0.170632
H104  H     H_    0.810991 0.347215 0.215588 0.106209
O1    O     O_R   0.214300 0.709080 0.827500 -0.495961
O2    O     O_R   0.543340 0.717710 0.330180 -0.499116
O3    O     O_R   0.956660 0.217710 0.669820 -0.482069
O4    O     O_R   0.043340 0.217710 0.330180 -0.551425
O5    O     O_R   0.320590 0.625770 0.672930 -0.531443
O6    O     O_R   0.679410 0.625770 0.327070 -0.484785
O7    O     O_R   0.820590 0.125770 0.672930 -0.534544
O8    O     O_R   0.179410 0.125770 0.327070 -0.532715
O9    O     O_3   0.334270 0.834280 0.749190 -0.334511
O10   O     O_3   0.665730 0.834280 0.250810 -0.291699
O11   O     O_3   0.834270 0.334280 0.749190 -0.311788
O12   O     O_R   0.785700 0.709080 0.172500 -0.471473
O13   O     O_3   0.165730 0.334280 0.250810 -0.263367
O14   O     O_R   0.236190 0.958390 0.823150 -0.492071
O15   O     O_R   0.763810 0.958390 0.176850 -0.502970
O16   O     O_R   0.736190 0.458390 0.823150 -0.510001
O17   O     O_R   0.263810 0.458390 0.176850 -0.510833
O18   O     O_R   0.332090 0.075280 0.831290 -0.513089
O19   O     O_R   0.667910 0.075280 0.168710 -0.512869
O20   O     O_R   0.832090 0.575280 0.831290 -0.528766
O21   O     O_R   0.167910 0.575280 0.168710 -0.510870
O22   O     O_R   0.446280 0.918040 0.826620 -0.468577
O23   O     O_R   0.714300 0.209080 0.827500 -0.476612
O24   O     O_R   0.553720 0.918040 0.173380 -0.490364
O25   O     O_R   0.946280 0.418040 0.826620 -0.492851
O26   O     O_R   0.053720 0.418040 0.173380 -0.485367
O27   O     O_R   0.457080 0.716270 0.831760 -0.519329
O28   O     O_R   0.542920 0.716270 0.168240 -0.494225
O29   O     O_R   0.957080 0.216270 0.831760 -0.491152
O30   O     O_R   0.042920 0.216270 0.168240 -0.513562
O31   O     O_R   0.320980 0.624440 0.823040 -0.508815
O32   O     O_R   0.679020 0.624440 0.176960 -0.518602
O33   O     O_R   0.820980 0.124440 0.823040 -0.505569
O34   O     O_R   0.285700 0.209080 0.172500 -0.473154
O35   O     O_R   0.179020 0.124440 0.176960 -0.506175
O36   O     O_R   0.213880 0.710510 0.665560 -0.511690
O37   O     O_R   0.786120 0.710510 0.334440 -0.522417
O38   O     O_R   0.713880 0.210510 0.665560 -0.508589
O39   O     O_R   0.286120 0.210510 0.334440 -0.517127
O40   O     O_R   0.235800 0.959720 0.673040 -0.485986
O41   O     O_R   0.764200 0.959720 0.326960 -0.520391
O42   O     O_R   0.735800 0.459720 0.673040 -0.506647
O43   O     O_R   0.264200 0.459720 0.326960 -0.518352
O44   O     O_R   0.331670 0.076720 0.669350 -0.522658
O45   O     O_R   0.445900 0.919370 0.676500 -0.506242
O46   O     O_R   0.668330 0.076720 0.330650 -0.521446
O47   O     O_R   0.831670 0.576720 0.669350 -0.537040
O48   O     O_R   0.168330 0.576720 0.330650 -0.527125
O49   O     O_3   0.559051 0.529548 0.437612 -0.560136
O50   O     O_3   0.586042 0.684288 0.603643 -0.545515
O51   O     O_3   0.978248 0.994714 0.438513 -0.617635
O52   O     O_3   0.066895 0.137581 0.582102 -0.542950
O53   O     O_2   0.531739 0.114969 0.074312 -0.423469
O54   O     O_R   0.442176 0.005167 0.116896 -0.731589
O55   O     O_2   0.588836 0.949270 0.837565 -0.471502
O56   O     O_R   0.554100 0.919370 0.323500 -0.512287
O57   O     O_R   0.678508 0.867751 0.897512 -0.756275
O58   O     O_2   0.032636 0.627102 0.067442 -0.439111
O59   O     O_R   0.950930 0.529097 0.130263 -0.717149
O60   O     O_2   0.125427 0.357830 0.868804 -0.482425
O61   O     O_R   0.182977 0.354169 0.974712 -0.734981
O62   O     O_3   0.528010 0.589960 0.937298 -0.553049
O63   O     O_3   0.438907 0.662648 0.073680 -0.541559
O64   O     O_3   0.974410 0.091961 0.953913 -0.541643
O65   O     O_3   0.887863 0.218504 0.074542 -0.551351
O66   O     O_2   0.107632 0.587986 0.857060 -0.459290
O67   O     O_R   0.945900 0.419370 0.676500 -0.501029
O68   O     O_R   0.062755 0.699295 0.945097 -0.681098
O69   O     O_2   0.896531 0.736044 0.129740 -0.443851
O70   O     O_R   0.935598 0.762520 0.020773 -0.639952
O71   O     O_2   0.598864 0.164224 0.863612 -0.455045
O72   O     O_R   0.565760 0.238486 0.968444 -0.658372
O73   O     O_2   0.397664 0.225629 0.127779 -0.445609
O74   O     O_R   0.429902 0.255891 0.016354 -0.652479
O75   O     O_R   0.054100 0.419370 0.323500 -0.509968
O76   O     O_R   0.456660 0.717710 0.669820 -0.485412

loop_
_geom_bond_atom_site_label_1
_geom_bond_atom_site_label_2
_ccdc_geom_bond_type
C115  C141  A    
C82   C94   A    
H7    O74   S    
C38   O61   S    
C51   O73   D    
C23   C112  S    
Cr6   O38   S    
C49   C60   S    
C88   O30   A    
C14   C21   S    
Cr6   O16   S    
C81   C95   A    
C80   C137  S    
Cr10  O25   S    
C8    C138  S    
C114  C131  S    
C5    O56   A    
C109  C127  S    
C103  C120  A    
H81   O57   S    
C46   C55   A    
C125  H23   S    
C126  H24   S    
C90   O62   S    
C39   H86   S    
C43   H97   S    
C129  H27   S    
C28   H64   S    
C50   O71   D    
C116  H10   S    
C117  C139  A    
C10   C140  S    
C118  C140  A    
C35   C134  A    
C106  C142  S    
C21   C90   S    
C45   C47   S    
C29   H66   S    
Cr2   O10   S    
Cr7   O39   S    
C44   H100  S    
Cr12  O9    S    
C25   C88   S    
C17   C21   S    
C82   C91   A    
Cr12  O31   S    
C26   H59   S    
C108  C113  A    
Cr6   O11   S    
C19   C23   S    
C43   C44   S    
Cr9   O56   S    
C47   H104  S    
C16   C20   S    
C102  O52   S    
C37   O58   D    
Cr10  O67   S    
C40   H88   S    
C42   H95   S    
Cr5   O41   S    
C27   H60   S    
C119  C141  A    
Cr3   O3    S    
C53   C71   S    
C65   H38   S    
Cr3   O29   S    
C3    C103  S    
C28   C29   S    
C49   O70   S    
C87   O25   A    
C8    O5    A    
C34   O53   D    
C53   C58   A    
C11   O39   A    
C68   O20   A    
C79   O21   A    
C59   C63   A    
Cr9   O19   S    
C60   C64   A    
C31   H73   S    
C95   H61   S    
C75   H57   S    
Cr6   O23   S    
C127  C131  S    
C61   C65   A    
C27   H62   S    
C98   C99   S    
C106  C124  A    
C86   O24   A    
C103  C107  A    
C108  C126  S    
C36   O57   S    
C110  C128  S    
C99   H9    S    
C29   H68   S    
C7    C83   S    
C32   H76   S    
C41   H90   S    
C30   H70   S    
C94   H50   S    
C102  H2    S    
C40   H89   S    
C45   H102  S    
C47   H3    S    
C133  O1    A    
C19   C123  S    
C96   H72   S    
C62   C80   A    
Cr5   O10   S    
C2    C68   S    
C14   C36   S    
C39   O62   S    
C15   C25   S    
C124  H18   S    
C63   H36   S    
C26   O49   S    
C12   C22   S    
C56   C78   A    
C67   C72   S    
C118  C122  A    
C15   C37   S    
C37   O59   S    
C101  O63   S    
C42   H93   S    
C11   O8    A    
C113  C139  A    
C114  C140  A    
C89   C91   A    
C17   H1    S    
C30   O51   S    
C144  O47   A    
C84   C93   A    
C69   H46   S    
C64   H37   S    
C6    O67   A    
C51   C62   S    
Cr8   O22   S    
C115  C132  S    
C71   H48   S    
C97   H83   S    
C113  C130  S    
C62   C66   A    
C107  C125  S    
C47   H103  S    
C39   C40   S    
Cr9   O46   S    
C112  O64   S    
C32   O52   S    
C116  C120  A    
Cr11  O21   S    
C70   C74   S    
C67   H45   S    
C125  C129  S    
C11   C141  S    
C35   C67   S    
Cr8   O9    S    
C87   O29   A    
Cr4   O30   S    
Cr4   O4    S    
C25   C123  S    
C1    O14   A    
C109  C114  A    
C119  H13   S    
C16   C23   S    
Cr1   O1    S    
Cr7   O43   S    
Cr8   O44   S    
C33   H77   S    
C71   H42   S    
Cr4   O35   S    
C105  C109  A    
C142  O44   A    
C18   C22   S    
C107  C111  A    
C73   H55   S    
Cr5   O12   S    
C43   O64   S    
C19   H28   S    
C58   C80   A    
C89   C98   S    
Cr1   O14   S    
Cr5   O37   S    
C135  O12   A    
C105  C122  A    
C45   O65   S    
C55   C73   S    
C1    C24   S    
C50   C61   S    
C28   O50   S    
C99   O50   S    
C91   C99   S    
C59   C76   A    
Cr12  O27   S    
C35   C54   A    
C27   H63   S    
C50   O72   S    
C41   C42   S    
Cr9   O10   S    
C130  H29   S    
Cr10  O47   S    
C15   C19   S    
C26   C27   S    
C22   C101  S    
C48   C59   S    
C137  O34   A    
C67   H43   S    
C30   C31   S    
C20   C25   S    
C126  C130  S    
C79   C134  S    
Cr3   O11   S    
C20   C112  S    
C111  C129  S    
H6    O72   S    
C12   C17   S    
C69   H44   S    
C3    O48   A    
C69   C73   S    
C135  O32   A    
C20   H39   S    
C9    O37   A    
C33   H79   S    
C24   C66   A    
C81   C89   A    
C73   H51   S    
C51   O74   S    
H4    O68   S    
Cr9   O24   S    
C132  H31   S    
Cr11  O75   S    
C57   O15   A    
C21   C85   S    
C56   C74   S    
C18   C90   S    
C63   C134  A    
C6    C84   S    
C112  C123  S    
C34   O54   S    
C74   H52   S    
C8    O36   A    
C24   C53   A    
C74   H56   S    
C127  H21   S    
C13   C52   A    
C5    C81   S    
C98   H8    S    
C137  O35   A    
C42   H92   S    
C98   O49   S    
C128  H26   S    
C41   O63   S    
Cr11  O26   S    
Cr7   O13   S    
Cr8   O18   S    
C85   O22   A    
C5    O2    A    
C76   C133  S    
C12   C34   S    
Cr10  O11   S    
C133  O31   A    
C104  C108  A    
C131  H34   S    
C144  O42   A    
C70   H47   S    
C29   H67   S    
C75   H53   S    
Cr1   O36   S    
C93   C102  S    
C44   H99   S    
C45   H101  S    
C72   H49   S    
C9    O6    A    
C26   H58   S    
C32   C33   S    
Cr4   O8    S    
Cr10  O20   S    
C1    O18   A    
C9    C139  S    
C120  H14   S    
C117  H11   S    
Cr12  O76   S    
C118  H12   S    
C92   C93   A    
Cr6   O42   S    
Cr2   O2    S    
C38   O60   D    
C22   C86   S    
C94   C95   A    
C40   H87   S    
Cr2   O28   S    
C136  O33   A    
C13   C57   S    
Cr11  O48   S    
C142  O40   A    
C83   C97   A    
C129  H32   S    
Cr4   O13   S    
C110  C115  A    
C111  C138  A    
C31   H71   S    
Cr7   O34   S    
C14   C18   S    
Cr11  O13   S    
Cr1   O40   S    
C13   C65   A    
C119  C124  A    
C2    C46   A    
C83   C92   A    
Cr5   O15   S    
C7    O75   A    
C100  H94   S    
C55   C77   A    
C49   O69   D    
C15   C16   S    
C31   H74   S    
H5    O70   S    
Cr1   O9    S    
C84   C96   A    
Cr2   O6    S    
C136  O23   A    
C17   C101  S    
C46   C69   S    
C117  C121  A    
Cr2   O32   S    
C43   H96   S    
C72   H54   S    
Cr12  O5    S    
C48   O66   D    
C28   H65   S    
C104  C144  S    
C6    O3    A    
C130  H33   S    
C4    O45   A    
C32   H75   S    
C23   C87   S    
C41   H91   S    
C30   H69   S    
C128  C132  S    
C3    O43   A    
C2    C64   A    
C58   C75   S    
C116  C138  A    
C60   C77   A    
C10   O7    A    
Cr3   O7    S    
C143  O46   A    
C100  O51   S    
C104  C121  A    
Cr3   O33   S    
C123  O65   S    
C18   H17   S    
C90   C101  S    
C88   O26   A    
C10   O38   A    
C68   O16   A    
C61   C78   A    
C79   O17   A    
C36   O55   D    
C96   C97   A    
C100  C102  S    
C4    C82   S    
C7    O4    A    
C132  H35   S    
C54   C76   A    
C57   O19   A    
H80   O54   S    
C121  H15   S    
C12   C14   S    
C4    O76   A    
C70   H41   S    
C122  H16   S    
H82   O59   S    
C127  H25   S    
C128  H22   S    
C125  H19   S    
C126  H20   S    
C92   C100  S    
C106  C110  A    
C85   O27   A    
C86   O28   A    
C105  C143  S    
C66   H40   S    
Cr7   O17   S    
C71   C75   S    
C44   H98   S    
C48   O68   S    
H84   O61   S    
C52   C70   S    
C143  O41   A    
C131  H30   S    
C54   C72   S    
Cr8   O45   S    
C77   C135  S    
C39   H85   S    
C78   C136  S    
C33   H78   S    
C52   C56   A    
C16   C38   S    
