data_mof_unit_63356.cif
_audit_creation_date              2012-10-26T18:35:33-0400
_audit_creation_method            fapswitch 2.2
_symmetry_space_group_name_H-M    P1
_symmetry_Int_Tables_number       1
_space_group_crystal_system       monoclinic
_cell_length_a                    19.711416
_cell_length_b                    19.662119
_cell_length_c                    12.758114
_cell_angle_alpha                 90.0
_cell_angle_beta                  101.306412
_cell_angle_gamma                 90.0
_cell_volume                      4848.67738725

loop_
_atom_site_label
_atom_site_type_symbol
_atom_type_description
_atom_site_fract_x
_atom_site_fract_y
_atom_site_fract_z
_atom_type_partial_charge
C1    C     C_R   0.407430 0.091537 0.483440 0.547660
C2    C     C_1   0.480592 0.000000 0.143613 0.162356
C3    C     C_1   0.019408 0.500000 0.856387 0.162357
C4    C     C_1   0.980592 0.500000 0.143613 0.162356
C5    C     C_1   0.644433 0.142840 0.526143 -0.002817
C6    C     C_1   0.355567 0.857159 0.473857 -0.002817
C7    C     C_1   0.355566 0.142840 0.473857 -0.002817
C8    C     C_1   0.644434 0.857160 0.526143 -0.002816
C9    C     C_1   0.144433 0.642840 0.526143 -0.002817
C10   C     C_1   0.855567 0.357160 0.473857 -0.002817
C11   C     C_1   0.855566 0.642840 0.473857 -0.002817
C12   C     C_R   0.592570 0.908463 0.516560 0.547660
C13   C     C_1   0.144434 0.357160 0.526143 -0.002816
C14   C     C_2   0.740656 0.238036 0.544361 0.289040
C15   C     C_2   0.259344 0.761964 0.455639 0.289040
C16   C     C_2   0.259342 0.238034 0.455639 0.289040
C17   C     C_2   0.740658 0.761966 0.544361 0.289040
C18   C     C_2   0.240656 0.738036 0.544361 0.289040
C19   C     C_2   0.759344 0.261964 0.455639 0.289040
C20   C     C_2   0.759342 0.738034 0.455639 0.289040
C21   C     C_2   0.240658 0.261966 0.544361 0.289040
C22   C     C_1   0.311850 0.813942 0.465087 0.012460
C23   C     C_R   0.592570 0.091537 0.516560 0.547660
C24   C     C_1   0.688150 0.186057 0.534913 0.012460
C25   C     C_1   0.688151 0.813943 0.534913 0.012460
C26   C     C_1   0.311849 0.186057 0.465087 0.012460
C27   C     C_1   0.811850 0.313942 0.465087 0.012460
C28   C     C_1   0.188150 0.686057 0.534913 0.012460
C29   C     C_1   0.188151 0.313943 0.534913 0.012460
C30   C     C_1   0.811849 0.686056 0.465087 0.012460
C31   C     C_2   0.472921 0.000000 0.025699 -0.148424
C32   C     C_2   0.527079 1.000000 0.974301 -0.148424
C33   C     C_2   0.972920 0.500000 0.025699 -0.148424
C34   C     C_R   0.407430 0.908463 0.483440 0.547660
C35   C     C_2   0.027079 0.500000 0.974301 -0.148424
C36   C     C_R   0.907430 0.591537 0.483440 0.547660
C37   C     C_R   0.092570 0.408463 0.516560 0.547660
C38   C     C_R   0.092570 0.591537 0.516560 0.547660
C39   C     C_R   0.907430 0.408463 0.483440 0.547660
C40   C     C_1   0.519408 1.000000 0.856387 0.162357
Cu1   Cu    Cu3+1 0.493900 1.000000 0.394780 1.031238
Cu2   Cu    Cu3+1 0.506100 1.000000 0.605220 1.031238
Cu3   Cu    Cu3+1 0.993900 0.500000 0.394780 1.031238
Cu4   Cu    Cu3+1 0.006100 0.500000 0.605220 1.031238
H1    H     H_    0.579300 1.000000 0.021459 0.140026
H2    H     H_    0.751052 0.239362 0.698578 0.329507
H3    H     H_    0.751060 0.760646 0.698579 0.329507
H4    H     H_    0.248940 0.239354 0.301421 0.329507
H5    H     H_    0.420700 0.000000 0.978541 0.140026
H6    H     H_    0.079300 0.500000 0.021459 0.140026
H7    H     H_    0.920700 0.500000 0.978541 0.140026
H8    H     H_    0.748948 0.260638 0.301422 0.329507
H9    H     H_    0.251052 0.739362 0.698578 0.329507
H10   H     H_    0.251060 0.260646 0.698579 0.329507
H11   H     H_    0.748940 0.739354 0.301421 0.329507
H12   H     H_    0.248948 0.760638 0.301422 0.329507
N1    N     N_1   0.484760 0.000000 0.236650 -0.177168
N2    N     N_1   0.515240 1.000000 0.763350 -0.177168
N3    N     N_1   0.984760 0.500000 0.236650 -0.177168
N4    N     N_1   0.015240 0.500000 0.763350 -0.177168
O1    O     O_R   0.425190 0.068890 0.398580 -0.495656
O2    O     O_R   0.564530 0.931090 0.423710 -0.478706
O3    O     O_R   0.564530 0.068910 0.423710 -0.478706
O4    O     O_R   0.435470 0.931090 0.576290 -0.478706
O5    O     O_R   0.935470 0.568910 0.576290 -0.478706
O6    O     O_R   0.064530 0.431090 0.423710 -0.478706
O7    O     O_R   0.064530 0.568910 0.423710 -0.478706
O8    O     O_R   0.935470 0.431090 0.576290 -0.478706
O9    O     O_3   0.728452 0.236897 0.356419 -0.705503
O10   O     O_3   0.271548 0.763103 0.643581 -0.705503
O11   O     O_3   0.271554 0.236903 0.643582 -0.705502
O12   O     O_R   0.574810 0.931110 0.601420 -0.495656
O13   O     O_3   0.728446 0.763097 0.356418 -0.705502
O14   O     O_3   0.228452 0.736897 0.356419 -0.705503
O15   O     O_3   0.771548 0.263103 0.643581 -0.705503
O16   O     O_3   0.771554 0.736903 0.643582 -0.705502
O17   O     O_3   0.228446 0.263097 0.356418 -0.705502
O18   O     O_R   0.574810 0.068890 0.601420 -0.495656
O19   O     O_R   0.425190 0.931110 0.398580 -0.495656
O20   O     O_R   0.925190 0.568890 0.398580 -0.495656
O21   O     O_R   0.074810 0.431110 0.601420 -0.495656
O22   O     O_R   0.074810 0.568890 0.601420 -0.495656
O23   O     O_R   0.925190 0.431110 0.398580 -0.495656
O24   O     O_R   0.435470 0.068910 0.576290 -0.478706

loop_
_geom_bond_atom_site_label_1
_geom_bond_atom_site_label_2
_ccdc_geom_bond_type
C10   C27   T    
C18   O10   S    
C15   C18   D    
C16   C21   D    
Cu3   O23   S    
Cu1   Cu2   S    
Cu1   O1    S    
Cu2   N2    S    
C2    N1    T    
C20   C30   S    
C1    O24   A    
C7    C26   T    
C21   O11   S    
C13   C29   T    
C11   C36   S    
H3    O16   S    
Cu4   O22   S    
C6    C22   T    
C17   C20   D    
C16   O17   S    
C32   H1    S    
C14   C24   S    
H8    O9    S    
C15   C22   S    
H10   O11   S    
C11   C30   T    
C17   O16   S    
C19   C27   S    
C13   C37   S    
Cu3   N3    S    
C3    N4    T    
C23   O3    A    
C12   O12   A    
C38   O22   A    
C8    C25   T    
C37   O21   A    
Cu4   O5    S    
Cu1   O2    S    
C31   H5    S    
H9    O10   S    
C34   O4    A    
H2    O15   S    
C16   C26   S    
C40   N2    T    
H12   O14   S    
C18   C28   S    
Cu4   O21   S    
C36   O20   A    
C36   O5    A    
Cu3   O20   S    
C21   C29   S    
C6    C34   S    
C2    C31   S    
H4    O17   S    
Cu3   Cu4   S    
C39   O8    A    
C34   O19   A    
C12   O2    A    
C31   C32   D    
C5    C23   S    
C3    C35   S    
C8    C12   S    
C37   O6    A    
C35   H6    S    
Cu2   O12   S    
Cu2   O24   S    
Cu2   O18   S    
C19   O9    S    
Cu1   O3    S    
Cu2   O4    S    
C4    C33   S    
C1    C7    S    
C14   C19   D    
C1    O1    A    
Cu1   O19   S    
C33   H7    S    
C17   C25   S    
C14   O15   S    
C39   O23   A    
C5    C24   T    
Cu4   N4    S    
Cu3   O6    S    
C4    N3    T    
C9    C38   S    
C33   C35   D    
C20   O13   S    
C32   C40   S    
C23   O18   A    
Cu4   O8    S    
Cu1   N1    S    
H11   O13   S    
C15   O14   S    
C38   O7    A    
Cu3   O7    S    
C10   C39   S    
C9    C28   T    
