data_mof_unit_51456.cif
_audit_creation_date              2012-10-26T20:08:12-0400
_audit_creation_method            fapswitch 2.2
_symmetry_space_group_name_H-M    P1
_symmetry_Int_Tables_number       1
_space_group_crystal_system       triclinic
_cell_length_a                    10.946889
_cell_length_b                    10.988855
_cell_length_c                    9.651057
_cell_angle_alpha                 91.188523
_cell_angle_beta                  91.366958
_cell_angle_gamma                 90.75594
_cell_volume                      1160.27317335

loop_
_atom_site_label
_atom_site_type_symbol
_atom_type_description
_atom_site_fract_x
_atom_site_fract_y
_atom_site_fract_z
_atom_type_partial_charge
C1    C     C_R   0.499503 0.262332 0.498940 0.529221
C2    C     C_R   0.599261 0.063835 0.449259 -0.154136
C3    C     C_R   0.497881 0.871702 0.499661 0.013296
C4    C     C_R   0.498470 0.128293 0.497564 0.016201
C5    C     C_R   0.426734 0.419011 0.067098 0.105408
C6    C     C_R   0.578915 0.575599 0.933457 0.102701
C7    C     C_R   0.426746 0.422368 0.919230 0.015710
C8    C     C_R   0.572624 0.578043 0.081015 0.028461
C9    C     C_R   0.262678 0.498619 0.498311 0.586388
C10   C     C_R   0.737649 0.499425 0.501989 0.581213
C11   C     C_R   0.227112 0.769252 0.153659 0.026207
C12   C     C_R   0.498721 0.737646 0.500621 0.533361
C13   C     C_R   0.743922 0.274764 0.869985 0.032750
C14   C     C_R   0.172188 0.724318 0.272747 -0.071144
C15   C     C_R   0.795803 0.307597 0.743705 -0.041752
C16   C     C_R   0.121411 0.606822 0.270112 0.037955
C17   C     C_R   0.885576 0.399356 0.741738 0.013879
C18   C     C_R   0.128973 0.534338 0.150003 -0.091994
C19   C     C_R   0.925480 0.454352 0.867521 -0.120738
C20   C     C_R   0.182348 0.579514 0.031639 -0.134858
C21   C     C_R   0.872754 0.422859 0.992150 -0.153683
C22   C     C_R   0.228986 0.697243 0.032222 -0.089336
C23   C     C_R   0.872313 0.499414 0.505365 -0.001003
C24   C     C_R   0.782775 0.333213 0.993763 -0.096644
C25   C     C_R   0.932832 0.561600 0.400030 0.192950
C26   C     C_R   0.068693 0.433144 0.600251 0.193291
C27   C     C_3   0.284709 0.892910 0.155047 -0.265214
C28   C     C_3   0.421497 0.884383 0.129931 -0.291639
C29   C     C_3   0.479948 0.009827 0.134391 -0.467732
C30   C     C_3   0.647118 0.178138 0.873961 -0.261037
C31   C     C_3   0.695106 0.058110 0.817631 -0.307878
C32   C     C_3   0.595765 0.960869 0.814541 -0.440779
C33   C     C_3   0.353004 0.317793 0.132428 -0.245923
C34   C     C_R   0.128569 0.495982 0.495655 0.000428
C35   C     C_3   0.252276 0.253555 0.041497 -0.355261
C36   C     C_3   0.162806 0.182690 0.129847 -0.460843
C37   C     C_3   0.681108 0.649229 0.869286 -0.246145
C38   C     C_3   0.767931 0.724890 0.966885 -0.358616
C39   C     C_3   0.868503 0.788149 0.886424 -0.460130
C40   C     C_R   0.940793 0.440037 0.610684 -0.085816
C41   C     C_R   0.060938 0.557073 0.392680 -0.087325
C42   C     C_R   0.397144 0.063770 0.546322 -0.153210
C43   C     C_R   0.598524 0.936284 0.449192 -0.148959
C44   C     C_R   0.396673 0.936101 0.547002 -0.152586
Cu1   Cu    Cu3+1 0.500000 0.500020 0.640660 0.930610
Cu2   Cu    Cu3+1 0.500000 0.499980 0.359340 0.940225
H1    H     H_    0.268747 0.731254 0.938667 0.111873
H2    H     H_    0.897591 0.470611 0.087466 0.151082
H3    H     H_    0.318684 0.112264 0.584078 0.121653
H4    H     H_    0.676972 0.887874 0.411266 0.121765
H5    H     H_    0.317930 0.887661 0.585143 0.102202
H6    H     H_    0.678156 0.112228 0.411402 0.098916
H7    H     H_    0.449331 0.059828 0.041779 0.145425
H8    H     H_    0.451765 0.059808 0.228389 0.179496
H9    H     H_    0.581011 0.002546 0.137008 0.143104
H10   H     H_    0.465659 0.829133 0.210089 0.208840
H11   H     H_    0.437518 0.839932 0.027995 0.148855
H12   H     H_    0.742366 0.310744 0.091553 0.120679
H13   H     H_    0.240751 0.946328 0.071693 0.139040
H14   H     H_    0.270664 0.939122 0.256828 0.139934
H15   H     H_    0.504001 0.998736 0.793940 0.169402
H16   H     H_    0.616521 0.893644 0.732934 0.160949
H17   H     H_    0.594891 0.914687 0.913964 0.147019
H18   H     H_    0.727761 0.068632 0.710498 0.161549
H19   H     H_    0.773346 0.029324 0.884046 0.160330
H20   H     H_    0.618064 0.166196 0.981927 0.124674
H21   H     H_    0.565900 0.206092 0.813308 0.180602
H22   H     H_    0.915697 0.691776 0.265092 0.315225
H23   H     H_    0.371591 0.360038 0.855809 0.149826
H24   H     H_    0.086390 0.299446 0.729941 0.318676
H25   H     H_    0.213058 0.130230 0.208819 0.151928
H26   H     H_    0.101223 0.244814 0.185769 0.146842
H27   H     H_    0.105622 0.120293 0.062706 0.142936
H28   H     H_    0.198743 0.319858 0.981277 0.178296
H29   H     H_    0.294597 0.189407 0.966884 0.149291
H30   H     H_    0.418499 0.248399 0.164781 0.152006
H31   H     H_    0.307644 0.351859 0.224144 0.216759
H32   H     H_    0.933026 0.720930 0.844385 0.152084
H33   H     H_    0.829529 0.838386 0.797796 0.155184
H34   H     H_    0.628965 0.638672 0.145060 0.150281
H35   H     H_    0.920471 0.852613 0.956440 0.143099
H36   H     H_    0.717040 0.794141 0.026319 0.150809
H37   H     H_    0.813210 0.664626 0.042148 0.191011
H38   H     H_    0.741041 0.585319 0.818489 0.207830
H39   H     H_    0.642736 0.709542 0.792205 0.181820
H40   H     H_    0.169072 0.779776 0.366724 0.083116
H41   H     H_    0.764819 0.264407 0.647060 0.099006
H42   H     H_    0.093771 0.442617 0.148924 0.104808
H43   H     H_    0.992373 0.526713 0.866827 0.127970
H44   H     H_    0.188741 0.523499 0.938953 0.138352
N1    N     N_R   0.500030 0.500030 0.852070 -0.242368
N2    N     N_R   0.499970 0.499970 0.147930 -0.239503
O1    O     O_R   0.499990 0.319660 0.618740 -0.516987
O2    O     O_3   0.138125 0.363876 0.690187 -0.723742
O3    O     O_R   0.500010 0.680340 0.381260 -0.510724
O4    O     O_R   0.499990 0.319630 0.381170 -0.534349
O5    O     O_R   0.500010 0.680370 0.618830 -0.528255
O6    O     O_R   0.319650 0.500020 0.618780 -0.450300
O7    O     O_R   0.680350 0.499980 0.381220 -0.448012
O8    O     O_R   0.319640 0.500000 0.381210 -0.525157
O9    O     O_R   0.680360 0.500000 0.618790 -0.535530
O10   O     O_3   0.863783 0.629744 0.308675 -0.725488

loop_
_geom_bond_atom_site_label_1
_geom_bond_atom_site_label_2
_ccdc_geom_bond_type
C26   O2    S    
Cu2   O7    S    
C35   H28   S    
C9    O6    A    
C38   H37   S    
C35   C36   S    
Cu1   O1    S    
C28   H10   S    
Cu1   Cu2   S    
C3    C43   A    
C29   H7    S    
C37   H39   S    
C28   C29   S    
H24   O2    S    
H22   O10   S    
C32   H15   S    
C27   H14   S    
C30   C31   S    
C11   C14   A    
C25   O10   S    
Cu2   N2    S    
C29   H8    S    
C6    N1    A    
C31   H19   S    
C3    C12   S    
C33   C35   S    
C26   C34   A    
Cu2   O3    S    
C5    C33   S    
C26   C40   A    
C37   H38   S    
C8    N2    A    
C30   H21   S    
C36   H25   S    
C21   H2    S    
C22   H1    S    
C38   H36   S    
C34   C41   A    
C42   C44   A    
C3    C44   A    
C39   H32   S    
C13   C30   S    
C14   H40   S    
C25   C41   A    
C5    C7    A    
Cu1   O9    S    
C6    C8    A    
C29   H9    S    
C28   H11   S    
C20   H44   S    
C18   H42   S    
C13   C24   A    
C17   C40   S    
C39   H33   S    
C2    C4    A    
C37   C38   S    
C19   H43   S    
C33   H30   S    
C31   C32   S    
C11   C27   S    
C2    C43   A    
C7    N1    A    
C6    C37   S    
C12   O3    A    
C16   C18   A    
C39   H35   S    
C12   O5    A    
C30   H20   S    
C2    H6    S    
C44   H5    S    
C24   H12   S    
C20   C22   A    
C9    O8    A    
C13   C15   A    
C9    C34   S    
C14   C16   A    
C15   H41   S    
C15   C17   A    
Cu2   O8    S    
C19   C21   A    
C31   H18   S    
C10   O9    A    
C35   H29   S    
C32   H17   S    
C7    H23   S    
C43   H4    S    
C10   C23   S    
C11   C22   A    
Cu1   O6    S    
C1    C4    S    
C32   H16   S    
Cu1   O5    S    
C33   H31   S    
C38   C39   S    
C4    C42   A    
C1    O4    A    
C17   C19   A    
C18   C20   A    
C23   C25   A    
C10   O7    A    
Cu1   N1    S    
C5    N2    A    
C36   H27   S    
C42   H3    S    
C36   H26   S    
Cu2   O4    S    
C1    O1    A    
C21   C24   A    
C27   C28   S    
C8    H34   S    
C27   H13   S    
C16   C41   S    
C23   C40   A    
