data_mof_unit_63550.cif
_audit_creation_date              2013-03-05T16:03:26-0500
_audit_creation_method            fapswitch 2.2
_symmetry_space_group_name_H-M    P1
_symmetry_Int_Tables_number       1
_space_group_crystal_system       triclinic
_cell_length_a                    18.570607
_cell_length_b                    18.621159
_cell_length_c                    18.512433
_cell_angle_alpha                 109.058114
_cell_angle_beta                  109.489138
_cell_angle_gamma                 109.255469
_cell_volume                      4964.79819668

loop_
_atom_site_label
_atom_site_type_symbol
_atom_site_description
_atom_site_fract_x
_atom_site_fract_y
_atom_site_fract_z
_atom_type_partial_charge
O1    O     O_R   0.592740 0.540340 0.447840 -0.629004
O2    O     O_R   0.592480 0.644870 0.552180 -0.611366
C1    C     C_R   0.624663 0.620673 0.503238 0.846804
O3    O     O_R   0.407320 0.447740 0.355030 -0.610758
O4    O     O_R   0.407060 0.552270 0.459360 -0.601964
C2    C     C_R   0.378851 0.500174 0.378702 0.932378
Zn1   Zn    Zn3+2 0.500170 0.430200 0.430330 1.116742
Zn2   Zn    Zn3+2 0.499830 0.569800 0.569670 1.070114
O5    O     O_R   0.407520 0.355130 0.447820 -0.573841
O6    O     O_R   0.407260 0.459660 0.552160 -0.619117
O7    O     O_R   0.592940 0.447730 0.540640 -0.572436
O8    O     O_R   0.592680 0.552260 0.644970 -0.617696
C3    C     C_R   0.381154 0.379042 0.502688 0.954099
C4    C     C_R   0.620435 0.498521 0.621405 0.874923
C5    C     C_3   0.323415 0.572274 0.288098 0.346583
C6    C     C_3   0.239323 0.568186 0.286974 -0.224718
H1    H     H_    0.230098 0.624776 0.315303 0.167974
C7    C     C_3   0.189283 0.499203 0.189342 -0.089560
C8    C     C_3   0.274042 0.505359 0.189971 -0.226463
C9    C     C_3   0.260337 0.430916 0.213174 -0.135876
C10   C     C_3   0.174320 0.424590 0.211022 -0.039895
C11   C     C_3   0.225886 0.493435 0.309884 -0.155934
C12   C     C_3   0.310875 0.499607 0.311149 -0.106339
H2    H     H_    0.292612 0.511117 0.140169 0.193620
H3    H     H_    0.269719 0.374580 0.184353 0.213447
H4    H     H_    0.207739 0.488281 0.360089 0.181631
C13   C     C_3   0.757182 0.658853 0.485059 -0.348220
H5    H     H_    0.721278 0.595256 0.423414 0.201340
H6    H     H_    0.793441 0.649899 0.539837 0.213379
C14   C     C_3   0.822395 0.727892 0.476558 -0.427965
H7    H     H_    0.890496 0.744049 0.518388 0.246554
H8    H     H_    0.810154 0.699933 0.407769 0.153116
H9    H     H_    0.611968 0.644462 0.363419 0.176766
C15   C     C_3   0.646648 0.704663 0.428238 -0.409222
C16   C     C_3   0.745221 0.773561 0.592387 -0.397258
C17   C     C_3   0.692469 0.688049 0.502450 0.011036
H10   H     H_    0.701075 0.798721 0.603796 0.224396
H11   H     H_    0.771953 0.759997 0.646789 0.201344
C18   C     C_3   0.810631 0.809912 0.500544 -0.113406
C19   C     C_3   0.715210 0.779790 0.429091 0.113440
C20   C     C_3   0.818974 0.843781 0.593661 0.171369
H12   H     H_    0.809690 0.901320 0.608030 0.199920
H13   H     H_    0.595470 0.719325 0.435955 0.260559
C21   C     C_3   0.695882 0.412723 0.652629 0.189059
C22   C     C_3   0.764101 0.413085 0.728031 -0.453921
H14   H     H_    0.730382 0.359341 0.739087 0.186036
H15   H     H_    0.811725 0.399667 0.710719 0.231712
H16   H     H_    0.895110 0.567025 0.767260 0.245761
C23   C     C_3   0.777965 0.580115 0.727645 -0.403168
C24   C     C_3   0.669062 0.504022 0.765422 -0.370981
C25   C     C_3   0.689422 0.498324 0.689245 -0.009535
H17   H     H_    0.607269 0.444673 0.741228 0.251928
C26   C     C_3   0.811945 0.501785 0.812681 0.071390
C27   C     C_3   0.851547 0.577022 0.793908 -0.283694
C28   C     C_3   0.744908 0.512620 0.841074 -0.431226
H18   H     H_    0.717823 0.462259 0.858764 0.214822
H19   H     H_    0.777816 0.577692 0.900262 0.197868
H20   H     H_    0.775470 0.640123 0.761587 0.198313
H21   H     H_    0.892093 0.640953 0.855501 0.227860
C29   C     C_3   0.221826 0.286623 0.432923 0.033330
C30   C     C_3   0.149035 0.210274 0.426430 -0.412958
H22   H     H_    0.114659 0.150477 0.361471 0.237431
H23   H     H_    0.308883 0.196179 0.411932 0.192017
C31   C     C_3   0.323071 0.225818 0.480953 0.171737
C32   C     C_3   0.315497 0.345301 0.594891 0.147531
C33   C     C_3   0.314053 0.310755 0.504022 -0.217733
H24   H     H_    0.302957 0.401458 0.605284 0.131537
C34   C     C_3   0.189004 0.190216 0.500669 -0.053656
C35   C     C_3   0.253467 0.159074 0.487246 -0.372028
C36   C     C_3   0.238891 0.274258 0.590559 -0.453306
H25   H     H_    0.192988 0.298163 0.598858 0.157415
H26   H     H_    0.262272 0.260050 0.645059 0.265771
O9    O     O_R   0.948700 0.540360 0.093520 -0.639653
O10   O     O_R   0.053270 0.644880 0.093500 -0.573528
C37   C     C_R   0.000188 0.621064 0.121732 0.838349
O11   O     O_R   0.041720 0.447740 0.093910 -0.611020
O12   O     O_R   0.146290 0.552270 0.093890 -0.615141
C38   C     C_R   0.122254 0.499540 0.122084 0.885497
Zn3   Zn    Zn3+2 0.931370 0.430220 0.001110 1.043360
Zn4   Zn    Zn3+2 0.071010 0.569800 0.001080 1.113302
O13   O     O_R   0.949110 0.355140 0.908700 -0.597776
O14   O     O_R   0.053680 0.459670 0.908680 -0.586623
O15   O     O_R   0.856090 0.447760 0.908300 -0.633116
O16   O     O_R   0.960660 0.552280 0.908280 -0.586491
C39   C     C_R   0.003794 0.379227 0.882209 0.890409
C40   C     C_R   0.879974 0.501985 0.881265 0.868119
O17   O     O_R   0.052690 0.907450 0.460090 -0.610840
O18   O     O_R   0.947900 0.907390 0.355230 -0.633167
C41   C     C_R   0.002700 0.881010 0.379003 0.849808
O19   O     O_R   0.959780 0.907430 0.552420 -0.582186
O20   O     O_R   0.854990 0.907370 0.447560 -0.578225
C42   C     C_R   0.878551 0.878385 0.499972 0.851666
Zn5   Zn    Zn3+2 0.069970 0.000040 0.570020 1.146396
Zn6   Zn    Zn3+2 0.930030 0.999960 0.429990 1.067564
O21   O     O_R   0.052100 0.092610 0.644770 -0.567613
O22   O     O_R   0.947310 0.092550 0.539920 -0.586337
O23   O     O_R   0.145010 0.092640 0.552440 -0.590449
O24   O     O_R   0.040220 0.092570 0.447580 -0.639437
C43   C     C_R   0.001704 0.123282 0.621122 0.917467
C44   C     C_R   0.120982 0.121712 0.500114 0.881655
C45   C     C_3   0.938895 0.649985 0.222884 -0.426000
H27   H     H_    0.962778 0.614269 0.253774 0.206844
H28   H     H_    0.870940 0.602311 0.167133 0.201512
C46   C     C_3   0.936603 0.722811 0.290504 -0.499442
H29   H     H_    0.869173 0.714170 0.263924 0.199370
H30   H     H_    0.952306 0.717599 0.351505 0.186445
H31   H     H_    0.118076 0.710566 0.294206 0.132668
H32   H     H_    0.108205 0.803646 0.398121 0.135702
C47   C     C_3   0.094805 0.750195 0.269403 -0.403617
C48   C     C_3   0.965538 0.742312 0.151040 0.149580
C49   C     C_3   0.000205 0.689702 0.189527 -0.016332
H33   H     H_    0.894195 0.697407 0.102556 0.094878
C50   C     C_3   0.003189 0.813175 0.310993 -0.010127
C51   C     C_3   0.095728 0.819735 0.343712 0.177640
C52   C     C_3   0.973804 0.819025 0.224768 -0.388862
H34   H     H_    0.908509 0.815447 0.202455 0.176959
H35   H     H_    0.019674 0.882987 0.236437 0.238544
H36   H     H_    0.141697 0.780780 0.249889 0.264210
C53   C     C_3   0.953462 0.220371 0.804429 0.061898
H37   H     H_    0.883526 0.204901 0.778534 0.166714
C54   C     C_3   0.957456 0.149722 0.736138 0.072379
H38   H     H_    0.998412 0.126470 0.769592 0.227508
H39   H     H_    0.888275 0.291727 0.709322 0.109296
H40   H     H_    0.881624 0.185154 0.601953 0.248454
C55   C     C_3   0.956817 0.307938 0.724252 0.104191
C56   C     C_3   0.100343 0.333576 0.837285 -0.386411
C57   C     C_3   0.004832 0.312198 0.814333 -0.198035
H41   H     H_    0.140270 0.400574 0.850698 0.224478
H42   H     H_    0.134558 0.334391 0.899546 0.231959
C58   C     C_3   0.001921 0.190924 0.690285 -0.187451
C59   C     C_3   0.951666 0.233435 0.650630 -0.451404
C60   C     C_3   0.099289 0.267224 0.760192 0.092162
H43   H     H_    0.122702 0.301786 0.726709 0.153286
H44   H     H_    0.979622 0.257937 0.613444 0.216144
H45   H     H_    0.710895 0.753356 0.363426 0.132699
N1    N     N_R   0.905447 0.871571 0.664381 0.236159
O25   O     O_R   0.956709 0.953519 0.723899 -0.317133
O26   O     O_R   0.928626 0.814903 0.673473 -0.371611
N2    N     N_R   0.694122 0.850966 0.440596 0.259217
O27   O     O_R   0.680119 0.874524 0.380620 -0.295108
O28   O     O_R   0.674486 0.880396 0.501193 -0.294983
N3    N     N_R   0.715968 0.399613 0.580372 0.230915
O29   O     O_R   0.660525 0.330121 0.503794 -0.316270
O30   O     O_R   0.792224 0.450778 0.593899 -0.361651
N4    N     N_R   0.405838 0.653148 0.332416 0.195608
O31   O     O_R   0.443109 0.673600 0.288452 -0.362725
O32   O     O_R   0.440445 0.707027 0.415450 -0.350438
H46   H     H_    0.631686 0.355920 0.627258 0.182335
H47   H     H_    0.792096 0.585202 0.675182 0.210324
H48   H     H_    0.659773 0.561256 0.791404 0.228338
N5    N     N_R   0.213634 0.267545 0.345965 0.229896
O33   O     O_R   0.205896 0.194975 0.294519 -0.346844
O34   O     O_R   0.204192 0.319613 0.315592 -0.420842
H49   H     H_    0.212174 0.344207 0.456460 0.125987
H50   H     H_    0.098991 0.228419 0.432323 0.187877
H51   H     H_    0.216810 0.095243 0.425940 0.219474
N6    N     N_R   0.400258 0.377206 0.670656 0.249854
O35   O     O_R   0.417350 0.324796 0.696761 -0.325921
O36   O     O_R   0.453747 0.460840 0.720469 -0.376392
N7    N     N_R   0.410509 0.239109 0.533291 0.246347
O37   O     O_R   0.421978 0.171564 0.519008 -0.293744
O38   O     O_R   0.479391 0.316246 0.581835 -0.423759
H52   H     H_    0.285593 0.148892 0.542760 0.260157
N8    N     N_R   0.007662 0.772737 0.104330 0.232139
O39   O     O_R   0.090438 0.830287 0.145314 -0.292592
O40   O     O_R   0.960257 0.746089 0.021399 -0.411961
H53   H     H_    0.111013 0.363410 0.177380 0.204022
N9    N     N_R   0.167236 0.907531 0.378575 0.200827
O41   O     O_R   0.226409 0.952395 0.461486 -0.347695
O42   O     O_R   0.176630 0.938818 0.326951 -0.354487
N10   N     N_R   0.981717 0.218512 0.887986 0.236398
O43   O     O_R   0.925570 0.197902 0.914994 -0.304968
O44   O     O_R   0.059056 0.228912 0.931468 -0.347511
N11   N     N_R   0.868550 0.073610 0.676664 0.181195
O45   O     O_R   0.827809 0.044605 0.592425 -0.348865
O46   O     O_R   0.827257 0.036874 0.710315 -0.321555
N12   N     N_R   0.161970 0.238616 0.793602 0.231887
O47   O     O_R   0.156519 0.202732 0.842609 -0.303220
O48   O     O_R   0.227827 0.254565 0.778908 -0.363799
N13   N     N_R   0.998229 0.391320 0.725769 0.250133
O49   O     O_R   0.957329 0.435772 0.720485 -0.367834
O50   O     O_R   0.071907 0.418231 0.724771 -0.386821

loop_
_geom_bond_atom_site_label_1
_geom_bond_atom_site_label_2
_geom_bond_distance
_ccdc_geom_bond_type
C14   H8    1.113648 S    
C28   H18   1.113112 S    
O22   C43   1.285048 A    
N6    O35   1.302563 A    
C13   H6    1.112820 S    
C7    C10   1.533829 S    
H31   C47   1.114160 S    
C20   H12   1.102180 S    
C58   C60   1.583145 S    
C8    C9    1.549182 S    
O11   Zn3   2.025145 S    
C54   C58   1.570415 S    
Zn4   O16   2.025145 S    
C59   H44   1.113094 S    
C46   H30   1.113665 S    
N4    O31   1.300370 A    
C18   C20   1.562266 S    
C26   C27   1.559945 S    
C21   C22   1.536787 S    
C5    C8    1.533012 S    
N10   O44   1.300602 A    
C56   C57   1.551123 S    
C15   C19   1.541357 S    
N8    O39   1.300506 A    
C16   H10   1.113764 S    
O16   C40   1.280984 A    
C47   C49   1.554142 S    
O4    C2    1.281396 A    
O7    C4    1.280359 A    
O21   C43   1.279137 A    
H39   C55   1.115808 S    
C9    H3    1.110213 S    
Zn6   O24   2.031855 S    
C23   C27   1.534560 S    
C19   N2    1.472754 S    
C56   H41   1.110223 S    
C7    C8    1.535815 S    
C22   H15   1.109007 S    
H32   C51   1.115844 S    
O5    C3    1.284531 A    
C48   C49   1.564471 S    
C48   H33   1.116167 S    
N11   O45   1.299703 A    
C58   C59   1.564023 S    
C16   C17   1.555231 S    
C60   H43   1.115012 S    
C32   H24   1.115294 S    
C24   H17   1.111819 S    
N5    O33   1.301515 A    
C53   N10   1.474668 S    
C26   C40   1.459985 S    
C7    C38   1.440776 S    
C60   N12   1.471409 S    
C3    C33   1.471819 S    
C5    C12   1.517537 S    
N9    O42   1.300392 A    
C29   C33   1.571506 S    
Zn5   O21   2.030359 S    
O10   Zn4   2.026862 S    
C10   C11   1.548762 S    
C13   C14   1.541619 S    
O9    C37   1.285275 A    
O3    Zn1   2.021873 S    
C30   H50   1.113763 S    
C11   C12   1.535814 S    
C46   H29   1.113679 S    
N4    O32   1.300345 A    
N13   O50   1.301631 A    
C47   H36   1.109198 S    
C24   C25   1.558017 S    
O18   Zn6   2.030442 S    
C27   H21   1.110737 S    
C26   C28   1.549141 S    
C19   H45   1.115633 S    
C41   C50   1.468821 S    
C35   H51   1.110902 S    
O10   C37   1.283886 A    
C45   H27   1.113445 S    
C16   H11   1.113419 S    
C32   N6    1.470984 S    
O20   C42   1.280108 A    
Zn3   O13   2.026741 S    
C48   N8    1.469576 S    
C34   C35   1.547054 S    
C56   H42   1.107251 S    
C23   C25   1.545943 S    
O12   C38   1.279397 A    
C23   H20   1.113849 S    
H23   C31   1.107062 S    
H40   C59   1.108929 S    
C29   C30   1.541235 S    
O1    C1    1.283930 A    
C29   N5    1.472518 S    
N7    O38   1.298147 A    
H16   C27   1.112723 S    
Zn1   O7    2.022629 S    
C34   C44   1.463900 S    
C54   N11   1.473599 S    
C55   C59   1.543405 S    
O19   C42   1.285451 A    
C4    C25   1.466670 S    
C9    C12   1.537517 S    
C56   C60   1.541950 S    
C14   H7    1.110404 S    
Zn2   O8    2.021873 S    
C31   N7    1.471486 S    
C55   N13   1.473961 S    
H9    C15   1.114022 S    
O9    Zn3   2.035311 S    
C31   C35   1.537675 S    
O18   C41   1.281676 A    
C53   H37   1.116766 S    
Zn6   O22   2.031025 S    
N10   O43   1.301415 A    
C54   H38   1.107939 S    
C36   H25   1.114190 S    
C53   C54   1.541190 S    
Zn4   O14   2.035102 S    
C47   C51   1.541360 S    
C21   C25   1.577792 S    
C6    C7    1.534959 S    
N9    O41   1.301164 A    
O8    C4    1.289362 A    
N12   O47   1.300910 A    
C45   C46   1.540428 S    
O24   C44   1.278663 A    
C28   H19   1.113581 S    
N3    O30   1.301346 A    
C21   N3    1.472351 S    
C39   C57   1.464588 S    
O3    C2    1.280824 A    
Zn5   O23   2.026172 S    
C18   C42   1.474377 S    
C18   C19   1.581233 S    
O23   C44   1.282140 A    
N13   O49   1.299851 A    
O19   Zn5   2.031773 S    
C5    N4    1.455595 S    
C50   C51   1.566442 S    
O12   Zn4   2.019278 S    
Zn1   O5    2.024904 S    
C52   H35   1.109471 S    
C6    C11   1.551356 S    
C43   C58   1.471694 S    
O1    Zn1   2.033525 S    
Zn2   O6    2.033527 S    
O2    Zn2   2.024903 S    
C15   H13   1.111077 S    
C35   H52   1.113925 S    
O11   C38   1.280099 A    
N1    O25   1.301081 A    
O6    C3    1.285788 A    
O4    Zn2   2.022631 S    
N6    O36   1.301173 A    
N2    O27   1.301337 A    
C51   N9    1.469664 S    
C13   C17   1.555067 S    
C45   C49   1.560980 S    
O14   C39   1.282434 A    
C37   C49   1.469907 S    
C24   C28   1.536072 S    
C10   H53   1.110229 S    
C23   H47   1.111233 S    
N7    O37   1.301644 A    
O17   C41   1.282035 A    
C8    H2    1.110304 S    
O20   Zn6   2.025923 S    
Zn3   O15   2.019403 S    
N2    O28   1.301932 A    
C30   C34   1.554556 S    
C52   H34   1.113520 S    
C6    H1    1.110385 S    
C1    C17   1.463595 S    
C2    C12   1.444572 S    
O17   Zn5   2.031023 S    
N8    O40   1.300294 A    
C24   H48   1.113036 S    
C21   H46   1.109456 S    
N11   O46   1.301970 A    
N12   O48   1.301199 A    
C14   C18   1.555456 S    
O2    C1    1.285852 A    
C15   C17   1.542204 S    
N5    O34   1.299723 A    
C30   H22   1.112643 S    
C16   C20   1.537318 S    
C29   H49   1.116017 S    
C22   C26   1.544660 S    
C46   C50   1.549898 S    
C22   H14   1.114233 S    
O15   C40   1.284349 A    
C9    C10   1.548377 S    
C45   H28   1.113330 S    
C32   C33   1.579933 S    
C11   H4    1.110196 S    
N1    O26   1.301676 A    
C13   H5    1.112761 S    
C55   C57   1.567515 S    
C34   C36   1.546268 S    
N3    O29   1.301385 A    
C36   H26   1.110963 S    
C32   C36   1.547148 S    
C48   C52   1.539268 S    
C20   N1    1.472141 S    
O13   C39   1.283926 A    
C5    C6    1.530949 S    
C31   C33   1.579021 S    
C50   C52   1.558568 S    
C53   C57   1.571675 S    
