data_mof_unit_10499.cif
_audit_creation_date              2012-12-10T17:02:05-0500
_audit_creation_method            fapswitch 2.2
_symmetry_space_group_name_H-M    P1
_symmetry_Int_Tables_number       1
_space_group_crystal_system       triclinic
_cell_length_a                    10.770623
_cell_length_b                    11.050174
_cell_length_c                    9.873898
_cell_angle_alpha                 111.96387
_cell_angle_beta                  98.387023
_cell_angle_gamma                 91.175781
_cell_volume                      1074.5994465

loop_
_atom_site_label
_atom_site_type_symbol
_atom_type_description
_atom_site_fract_x
_atom_site_fract_y
_atom_site_fract_z
_atom_type_partial_charge
C1    C     C_R   0.490467 0.253578 0.439254 0.821232
C2    C     C_R   0.082797 0.621641 0.608337 0.093980
C3    C     C_R   0.129795 0.512489 0.505391 -0.080741
C4    C     C_R   0.048446 0.410370 0.399074 -0.193844
C5    C     C_R   0.920268 0.411622 0.397181 -0.179335
C6    C     C_R   0.871609 0.515089 0.501491 -0.073249
C7    C     C_2   0.479189 0.112762 0.402550 0.077459
C8    C     C_2   0.521611 0.068526 0.508680 -0.156480
C9    C     C_2   0.514960 0.888325 0.597140 -0.164967
C10   C     C_2   0.509391 0.930201 0.485186 -0.247991
C11   C     C_2   0.506453 0.516390 0.085588 -0.022788
C12   C     C_R   0.262879 0.503755 0.501904 0.786299
C13   C     C_2   0.488572 0.492819 0.921869 -0.092117
C14   C     C_R   0.510015 0.746780 0.560757 0.761784
C15   C     C_R   0.737549 0.505428 0.500501 0.778089
C16   C     C_R   0.162684 0.730984 0.709101 -0.240883
C17   C     C_R   0.113768 0.838104 0.807684 -0.144510
C18   C     C_R   0.983986 0.840390 0.807175 0.313900
C19   C     C_R   0.903270 0.734427 0.704443 -0.224799
C20   C     C_R   0.951393 0.623238 0.606074 0.049551
Cu1   Cu    Cu3+1 0.521920 0.521810 0.644910 0.987333
Cu2   Cu    Cu3+1 0.478080 0.478190 0.355090 0.955309
H1    H     H_    0.084727 0.327821 0.318921 0.153968
H2    H     H_    0.411683 0.423102 0.849827 0.167929
H3    H     H_    0.571237 0.596359 0.164044 0.181672
H4    H     H_    0.383579 0.369704 0.061853 0.199981
H5    H     H_    0.263239 0.736705 0.711149 0.164398
H6    H     H_    0.177351 0.921013 0.882169 0.158036
H7    H     H_    0.802975 0.741094 0.701134 0.173869
H8    H     H_    0.858839 0.329647 0.316356 0.152352
H9    H     H_    0.500202 0.859917 0.371928 0.185128
H10   H     H_    0.569053 0.136699 0.615977 0.187940
N1    N     N_2   0.445130 0.445430 0.137370 -0.293373
N2    N     N_2   0.554930 0.554500 0.862630 -0.232989
O1    O     O_R   0.511700 0.332330 0.577400 -0.595979
O2    O     O_R   0.474680 0.295500 0.332650 -0.559735
O3    O     O_R   0.338160 0.518420 0.622400 -0.592811
O4    O     O_R   0.301140 0.481590 0.377650 -0.564326
O5    O     O_R   0.525320 0.704500 0.667350 -0.537957
O6    O     O_R   0.488300 0.667670 0.422600 -0.590846
O7    O     O_R   0.698860 0.518410 0.622350 -0.573763
O8    O     O_R   0.661840 0.481580 0.377600 -0.565437
N3    N     N_2   0.414471 0.028604 0.259983 -0.455404
H11   H     H_    0.354453 0.954425 0.259411 0.257593
C21   C     C_3   0.493008 0.985342 0.146700 -0.577680
H12   H     H_    0.433630 0.927071 0.038546 0.235438
H13   H     H_    0.564603 0.923107 0.173327 0.223697
H14   H     H_    0.541165 0.070792 0.136842 0.257333
C22   C     C_2   0.666173 0.634711 0.947562 0.988259
O9    O     O_2   0.689714 0.738287 0.935226 -0.586373
O10   O     O_R   0.752433 0.591672 0.036845 -0.791395
H15   H     H_    0.828473 0.656743 0.088719 0.316508
N4    N     N_2   0.933901 0.952237 0.904293 -0.422503
H16   H     H_    0.838564 0.956751 0.876495 0.298819
C23   C     C_3   0.972162 0.981278 0.060671 -0.631586
H17   H     H_    0.929246 0.070574 0.126128 0.223527
H18   H     H_    0.076028 0.000220 0.092348 0.219745
H19   H     H_    0.939957 0.898457 0.088444 0.236354
C24   C     C_2   0.522063 0.979575 0.754086 0.829788
O11   O     O_2   0.591552 0.960249 0.852088 -0.595407
O12   O     O_R   0.447459 0.085677 0.790005 -0.770847
H20   H     H_    0.460516 0.139769 0.900294 0.322846

loop_
_geom_bond_atom_site_label_1
_geom_bond_atom_site_label_2
_ccdc_geom_bond_type
C9    C14   S    
N4    H16   S    
Cu1   O1    S    
C7    N3    S    
C2    C16   A    
C6    C20   A    
C9    C10   D    
H4    N1    S    
C19   C20   A    
Cu1   O5    S    
C11   N1    D    
C23   H17   S    
Cu2   O6    S    
C16   H5    S    
C23   H18   S    
C17   C18   A    
C14   O5    A    
C13   N2    D    
Cu1   Cu2   S    
N3    C21   S    
C15   O7    A    
Cu2   O8    S    
Cu1   O7    S    
C5    C6    A    
C2    C3    A    
N4    C23   S    
N3    H11   S    
C12   O4    A    
O12   H20   S    
C13   H2    S    
C24   O12   S    
C11   C13   S    
C7    C8    D    
C11   H3    S    
C14   O6    A    
C3    C4    A    
C8    H10   S    
C21   H12   S    
C24   O11   D    
Cu1   O3    S    
C1    O1    A    
C8    C10   S    
C18   C19   A    
C5    H8    S    
C21   H13   S    
C12   O3    A    
C22   O9    D    
Cu2   N1    S    
C23   H19   S    
C4    C5    A    
N2    C22   S    
C1    O2    A    
C3    C12   S    
C21   H14   S    
C18   N4    S    
C9    C24   S    
C6    C15   S    
C1    C7    S    
C17   H6    S    
C2    C20   A    
C10   H9    S    
Cu1   N2    S    
C4    H1    S    
Cu2   O2    S    
O10   H15   S    
C15   O8    A    
C16   C17   A    
C22   O10   S    
Cu2   O4    S    
C19   H7    S    
