data_mof_unit_26555.cif
_audit_creation_date              2013-03-05T15:56:02-0500
_audit_creation_method            fapswitch 2.2
_symmetry_space_group_name_H-M    P1
_symmetry_Int_Tables_number       1
_space_group_crystal_system       triclinic
_cell_length_a                    12.331455
_cell_length_b                    13.112226
_cell_length_c                    17.241419
_cell_angle_alpha                 105.130492
_cell_angle_beta                  74.856467
_cell_angle_gamma                 116.594374
_cell_volume                      2372.53613885

loop_
_atom_site_label
_atom_site_type_symbol
_atom_site_description
_atom_site_fract_x
_atom_site_fract_y
_atom_site_fract_z
_atom_type_partial_charge
O1    O     O_R   0.025490 0.682370 0.523640 -0.535264
O2    O     O_R   0.194150 0.640180 0.491890 -0.613988
C1    C     C_R   0.144559 0.713425 0.503658 0.821083
O3    O     O_R   0.905900 0.523560 0.631310 -0.534025
O4    O     O_R   0.074570 0.481370 0.599560 -0.605809
C2    C     C_R   0.987649 0.503484 0.652323 0.826862
Cu1   Cu    Cu3+1 0.900140 0.524980 0.518800 0.994547
Cu2   Cu    Cu3+1 0.099860 0.475020 0.481200 0.963681
O5    O     O_R   0.805850 0.359820 0.508110 -0.599878
O6    O     O_R   0.974510 0.317630 0.476360 -0.530068
O7    O     O_R   0.925430 0.518630 0.400440 -0.595169
O8    O     O_R   0.094100 0.476440 0.368690 -0.610086
C3    C     C_R   0.855786 0.285197 0.489355 0.813935
C4    C     C_R   0.010400 0.493385 0.347462 0.765506
C5    C     C_R   0.981365 0.504047 0.738192 -0.048814
C6    C     C_R   0.083890 0.512485 0.764629 -0.133973
C7    C     C_R   0.077515 0.509368 0.845572 -0.125872
C8    C     C_R   0.967625 0.494924 0.900372 0.143061
C9    C     C_R   0.866408 0.490230 0.875127 -0.144195
C10   C     C_R   0.872829 0.493911 0.794046 -0.129880
C11   C     C_R   0.893535 0.442771 0.154687 -0.181202
C12   C     C_R   0.901525 0.466423 0.236756 -0.185182
C13   C     C_R   0.103141 0.461219 0.201506 -0.194567
C14   C     C_R   0.095353 0.438257 0.119162 -0.157880
C15   C     C_R   0.990821 0.429643 0.095436 0.170901
C16   C     C_2   0.959663 0.489291 0.985177 -0.266017
C17   C     C_2   0.985727 0.413301 0.008560 0.109024
C18   C     C_R   0.006431 0.475993 0.260798 -0.017300
H1    H     H_    0.168812 0.521190 0.722800 0.187554
H2    H     H_    0.824697 0.475454 0.281270 0.149899
H3    H     H_    0.184721 0.467642 0.218688 0.151539
H4    H     H_    0.781892 0.481098 0.917707 0.140895
H5    H     H_    0.811521 0.435016 0.137270 0.132486
H6    H     H_    0.792297 0.486187 0.774791 0.188486
H7    H     H_    0.935379 0.554117 0.030558 0.151451
H8    H     H_    0.157521 0.516582 0.865355 0.163727
H9    H     H_    0.171795 0.429526 0.074152 0.134544
C19   C     C_R   0.736890 0.962668 0.410880 -0.281626
H10   H     H_    0.774173 0.898636 0.382597 0.169466
C20   C     C_R   0.774566 0.160663 0.475153 -0.167185
C21   C     C_R   0.179271 0.920575 0.530222 -0.111872
C22   C     C_R   0.256954 0.037222 0.536931 -0.103524
C23   C     C_R   0.383541 0.071573 0.515327 -0.176398
C24   C     C_R   0.434998 0.988815 0.481800 0.102504
C25   C     C_R   0.354026 0.871456 0.464353 0.034092
C26   C     C_R   0.563729 0.018516 0.464735 0.062731
C27   C     C_R   0.609695 0.933548 0.421789 0.028467
C28   C     C_R   0.528024 0.821802 0.390347 0.133909
C29   C     C_R   0.401364 0.793563 0.411555 -0.185797
C30   C     C_R   0.647783 0.130113 0.491562 -0.282021
C31   C     C_R   0.819099 0.074080 0.438329 0.356055
C32   C     C_R   0.226733 0.836114 0.497739 -0.110472
H11   H     H_    0.616444 0.195724 0.526361 0.171925
H12   H     H_    0.081880 0.896950 0.550732 0.203969
H13   H     H_    0.437915 0.163570 0.522928 0.132086
H14   H     H_    0.219057 0.101595 0.561296 0.174442
H15   H     H_    0.338774 0.711507 0.384315 0.183196
C33   C     C_R   0.654615 0.692807 0.620858 0.004574
N1    N     N_R   0.749710 0.562810 0.547300 -0.247384
C34   C     C_R   0.249536 0.350394 0.390178 0.137782
C35   C     C_R   0.348558 0.318510 0.366233 -0.235011
C36   C     C_R   0.449382 0.376488 0.406903 -0.193560
C37   C     C_R   0.452437 0.467692 0.472668 0.028051
C38   C     C_R   0.348541 0.496801 0.494693 0.216855
C39   C     C_R   0.553733 0.530577 0.517397 -0.101884
C40   C     C_R   0.549646 0.622815 0.582356 -0.017765
C41   C     C_R   0.440769 0.641921 0.606976 0.281803
C42   C     C_R   0.347036 0.583947 0.561184 -0.259954
C43   C     C_R   0.659346 0.505519 0.500382 -0.049953
C44   C     C_R   0.746046 0.651596 0.608905 0.484909
N2    N     N_R   0.249640 0.437820 0.453210 -0.210541
H16   H     H_    0.670372 0.438761 0.451403 0.143143
H17   H     H_    0.171961 0.305139 0.358123 0.159714
H18   H     H_    0.523202 0.348009 0.385547 0.134264
H19   H     H_    0.347224 0.248646 0.315887 0.162612
H20   H     H_    0.270599 0.606446 0.583151 0.234726
N3    N     N_R   0.946217 0.096071 0.429713 0.114506
O9    O     O_R   0.997942 0.132429 0.494244 -0.368127
O10   O     O_R   0.001475 0.056697 0.361509 -0.391714
C45   C     C_3   0.577419 0.734186 0.335636 -0.395554
C46   C     C_3   0.484461 0.624120 0.293036 -0.841674
H21   H     H_    0.413715 0.571894 0.338233 0.260053
H22   H     H_    0.440094 0.645983 0.255118 0.249457
H23   H     H_    0.532707 0.570644 0.252601 0.244720
H24   H     H_    0.650303 0.776871 0.286588 0.214423
H25   H     H_    0.619509 0.708240 0.372628 0.206599
N4    N     N_R   0.827526 0.695593 0.666959 0.127978
O11   O     O_R   0.931111 0.785001 0.656755 -0.391019
O12   O     O_R   0.782995 0.668208 0.739432 -0.378329
N5    N     N_R   0.414710 0.707332 0.684660 0.100512
O13   O     O_R   0.369961 0.782361 0.689902 -0.364420
O14   O     O_R   0.408560 0.673102 0.750688 -0.380744
C47   C     C_3   0.681035 0.817300 0.664551 -0.327937
C48   C     C_3   0.689524 0.893290 0.607377 -0.774985
H26   H     H_    0.762247 0.892347 0.553583 0.254221
H27   H     H_    0.600987 0.863152 0.586139 0.269320
H28   H     H_    0.713815 0.983811 0.639740 0.254404
H29   H     H_    0.614617 0.822759 0.720700 0.267162
H30   H     H_    0.770337 0.858927 0.686427 0.237920
C49   C     C_3   0.010660 0.313935 0.950036 -0.394128
C50   C     C_3   0.926304 0.198167 0.978468 -0.779310
H31   H     H_    0.944979 0.196477 0.037657 0.253676
H32   H     H_    0.828357 0.182960 0.985162 0.255073
H33   H     H_    0.942856 0.127097 0.932799 0.253163
H34   H     H_    0.995347 0.305844 0.887744 0.221867
H35   H     H_    0.108034 0.328989 0.945470 0.196546

loop_
_geom_bond_atom_site_label_1
_geom_bond_atom_site_label_2
_geom_bond_distance
_ccdc_geom_bond_type
N4    O11   1.298635 A    
C37   C39   1.443646 A    
C47   C48   1.530017 S    
C21   C22   1.387126 A    
C9    C10   1.391705 A    
C8    C16   1.458724 S    
C46   H21   1.107138 S    
Cu1   Cu2   2.702519 S    
N3    O9    1.301402 A    
C35   H19   1.082494 S    
Cu1   O7    1.967398 S    
C49   H34   1.108577 S    
C45   H24   1.111652 S    
C38   C42   1.394382 A    
C33   C47   1.532456 S    
O4    C2    1.300632 A    
O7    C4    1.301703 A    
C20   C30   1.397179 A    
C11   H5    1.083521 S    
C9    H4    1.083461 S    
C5    C6    1.402837 A    
C34   H17   1.081408 S    
C29   H15   1.075180 S    
C8    C9    1.397206 A    
C38   N2    1.385485 A    
O5    C3    1.308206 A    
C3    C20   1.478047 S    
C45   H25   1.111863 S    
C22   H14   1.082963 S    
C2    C5    1.460419 S    
C33   C40   1.423282 A    
C6    C7    1.387468 A    
C13   C14   1.392015 A    
C7    H8    1.083536 S    
C47   H30   1.106461 S    
C21   C32   1.402852 A    
C10   H6    1.082273 S    
C40   C41   1.411887 A    
C50   H32   1.111514 S    
C12   C18   1.403131 A    
C11   C12   1.387242 A    
C48   H28   1.110470 S    
O3    Cu1   1.964782 S    
C44   N4    1.431524 S    
Cu1   N1    2.036903 S    
C46   H22   1.110870 S    
C24   C26   1.421433 A    
C14   H9    1.082565 S    
N3    O10   1.301186 A    
C5    C10   1.403755 A    
C17   C49   1.523341 S    
C30   H11   1.075420 S    
C41   C42   1.383493 A    
C50   H31   1.110894 S    
C14   C15   1.400978 A    
O3    C2    1.301912 A    
C33   C44   1.404139 A    
C19   C31   1.396276 A    
C25   C32   1.423361 A    
C6    H1    1.082196 S    
C41   N5    1.433529 S    
C34   C35   1.392795 A    
O1    C1    1.309202 A    
C13   H3    1.083375 S    
C43   H16   1.076340 S    
C23   C24   1.418348 A    
C31   N3    1.434717 S    
C36   C37   1.411152 A    
N5    O14   1.301676 A    
C27   C28   1.415789 A    
C25   C29   1.408332 A    
Cu2   O8    1.964782 S    
C7    C8    1.399845 A    
C16   C17   1.350106 D    
C48   H26   1.110837 S    
C13   C18   1.404036 A    
C48   H27   1.108739 S    
C19   C27   1.410138 A    
N1    C43   1.365515 A    
C23   H13   1.077540 S    
C28   C29   1.401723 A    
O8    C4    1.301460 A    
C50   H33   1.110567 S    
N4    O12   1.300398 A    
C42   H20   1.059730 S    
C22   C23   1.390189 A    
C46   H23   1.110519 S    
C24   C25   1.412471 A    
Cu1   O5    1.930003 S    
C11   C15   1.401872 A    
C26   C27   1.423477 A    
Cu2   N2    2.024916 S    
C12   H2    1.083389 S    
O1    Cu1   1.943355 S    
O2    Cu2   1.930002 S    
C45   C46   1.530251 S    
O6    C3    1.302068 A    
O4    Cu2   1.967397 S    
C1    C32   1.482338 S    
C15   C17   1.470712 S    
C20   C31   1.411847 A    
C26   C30   1.403096 A    
C49   H35   1.110627 S    
C34   N2    1.358025 A    
C28   C45   1.530129 S    
O2    C1    1.302625 A    
N5    O13   1.301578 A    
C19   H10   1.081129 S    
C39   C43   1.422449 A    
C49   C50   1.528038 S    
C35   C36   1.395139 A    
C21   H12   1.079597 S    
N1    C44   1.364573 A    
C37   C38   1.428044 A    
C16   H7    1.087511 S    
Cu2   O6    1.943356 S    
C39   C40   1.427454 A    
C36   H18   1.077555 S    
C4    C18   1.461982 S    
C47   H29   1.102347 S    
