data_mof_unit_41869.cif
_audit_creation_date              2012-12-11T14:06:36-0500
_audit_creation_method            fapswitch 2.2
_symmetry_space_group_name_H-M    P1
_symmetry_Int_Tables_number       1
_space_group_crystal_system       triclinic
_cell_length_a                    6.951175
_cell_length_b                    17.33356
_cell_length_c                    24.203484
_cell_angle_alpha                 105.057079
_cell_angle_beta                  90.467948
_cell_angle_gamma                 90.076091
_cell_volume                      2816.01029603

loop_
_atom_site_label
_atom_site_type_symbol
_atom_type_description
_atom_site_fract_x
_atom_site_fract_y
_atom_site_fract_z
_atom_type_partial_charge
O1    O     O_R   0.494290 0.391990 0.999150 -0.540269
O2    O     O_R   0.827170 0.534410 0.082350 -0.540828
O3    O     O_R   0.994360 0.608010 0.000850 -0.542661
C1    C     C_R   0.659222 0.553447 0.105628 0.753788
O4    O     O_R   0.824210 0.388010 0.004470 -0.549108
O5    O     O_R   0.991370 0.460560 0.922410 -0.539537
C2    C     C_R   0.654364 0.355008 0.001585 0.754305
O6    O     O_R   0.497270 0.539440 0.077590 -0.529090
O7    O     O_3   0.659770 0.523970 0.973170 -0.371160
V1    V     V_3+5 0.935840 0.495550 0.004980 1.425252
O8    O     O_R   0.320910 0.465590 0.917650 -0.549324
C3    C     C_R   0.152173 0.448455 0.894304 0.713567
O9    O     O_R   0.323870 0.611990 0.995530 -0.520602
C4    C     C_R   0.154957 0.644772 0.998485 0.748444
V2    V     V_3+5 0.435470 0.504450 0.995020 1.465575
O10   O     O_3   0.161670 0.476030 0.026830 -0.375057
C5    C     C_2   0.149274 0.730014 0.999351 -0.181124
C6    C     C_2   0.979235 0.770537 0.003509 -0.413268
H1    H     H_    0.845760 0.739456 0.006763 0.165074
C7    C     C_R   0.162675 0.224821 0.620899 0.626342
N1    N     N_R   0.139086 0.303643 0.649825 -0.542319
C8    C     C_R   0.084357 0.357850 0.620002 0.559113
C9    C     C_R   0.061463 0.334687 0.559082 -0.118215
C10   C     C_R   0.069339 0.252410 0.531361 -0.029045
C11   C     C_R   0.096675 0.196013 0.563788 -0.062290
C12   C     C_R   0.025697 0.389969 0.525229 -0.046846
C13   C     C_R   0.033260 0.363651 0.464006 0.069441
C14   C     C_R   0.051498 0.280224 0.436954 -0.044563
C15   C     C_R   0.046935 0.225765 0.471225 -0.031207
C16   C     C_R   0.017959 0.144021 0.445195 -0.026814
C17   C     C_R   0.020337 0.089265 0.478541 -0.209079
C18   C     C_R   0.061409 0.113423 0.537277 -0.036546
C19   C     C_R   0.065361 0.247351 0.376484 0.618571
N2    N     N_R   0.018155 0.168744 0.352030 -0.532233
C20   C     C_R   0.980636 0.118865 0.386143 0.574287
O11   O     O_2   0.260031 0.175543 0.645828 -0.483067
O12   O     O_2   0.055930 0.434235 0.649495 -0.513850
O13   O     O_2   0.126438 0.292463 0.342378 -0.532782
O14   O     O_2   0.908653 0.045059 0.363103 -0.538650
H2    H     H_    0.989938 0.026844 0.458533 0.195767
C21   C     C_R   0.126088 0.075751 0.259711 0.163859
C22   C     C_R   0.111259 0.048595 0.199758 -0.202560
H3    H     H_    0.205333 0.001548 0.176665 0.138936
C23   C     C_R   0.976272 0.080433 0.168885 -0.080184
C24   C     C_R   0.855808 0.141784 0.198158 -0.255736
H4    H     H_    0.751751 0.166333 0.173829 0.159785
C25   C     C_R   0.868918 0.172428 0.258000 -0.030526
C26   C     C_R   0.003875 0.138737 0.289968 0.303746
C27   C     C_R   0.281841 0.400200 0.736408 0.154340
C28   C     C_R   0.247003 0.445819 0.793476 0.028039
C29   C     C_R   0.145982 0.410384 0.831443 -0.100463
C30   C     C_R   0.057059 0.334640 0.810021 -0.008530
C31   C     C_R   0.061801 0.297137 0.750367 -0.085333
C32   C     C_R   0.165872 0.331712 0.712298 0.244824
C33   C     C_R   0.449822 0.876496 0.610473 0.565793
N3    N     N_R   0.496492 0.829951 0.646616 -0.539736
C34   C     C_R   0.551199 0.751801 0.624422 0.649317
C35   C     C_R   0.537068 0.715842 0.564741 -0.079708
C36   C     C_R   0.525710 0.767552 0.528382 -0.023991
C37   C     C_R   0.485875 0.849099 0.551603 -0.028218
C38   C     C_R   0.535618 0.631631 0.539593 -0.050238
C39   C     C_R   0.562076 0.603256 0.480089 -0.219399
C40   C     C_R   0.570219 0.655374 0.444496 -0.033451
C41   C     C_R   0.549712 0.737723 0.468647 -0.010680
C42   C     C_R   0.551000 0.790384 0.433076 -0.034800
C43   C     C_R   0.518334 0.872214 0.457173 -0.123550
C44   C     C_R   0.482027 0.900945 0.515595 -0.107669
C45   C     C_R   0.587054 0.626592 0.384640 0.545150
N4    N     N_R   0.601725 0.678787 0.350800 -0.546980
C46   C     C_R   0.583977 0.759688 0.374138 0.567607
O15   O     O_2   0.372143 0.949414 0.631405 -0.522226
O16   O     O_2   0.624827 0.710407 0.659682 -0.487243
H5    H     H_    0.568412 0.539553 0.460853 0.186559
O17   O     O_2   0.584441 0.547147 0.360454 -0.546016
O18   O     O_2   0.598518 0.810423 0.340476 -0.513665
H6    H     H_    0.517556 0.914110 0.430858 0.174055
H7    H     H_    0.456016 0.964225 0.532724 0.182645
C47   C     C_R   0.479805 0.664743 0.253362 -0.185259
H8    H     H_    0.359733 0.701478 0.272208 0.164974
C48   C     C_R   0.493227 0.639147 0.193756 -0.055445
C49   C     C_R   0.649663 0.590196 0.168655 -0.155003
C50   C     C_R   0.797791 0.575797 0.204746 -0.195974
H9    H     H_    0.920558 0.540439 0.185928 0.150013
C51   C     C_R   0.790041 0.606151 0.264776 0.184808
C52   C     C_R   0.623930 0.648449 0.289462 0.350577
C53   C     C_R   0.348508 0.828375 0.739776 -0.121279
C54   C     C_R   0.334433 0.858851 0.800047 -0.106381
C55   C     C_R   0.462087 0.919879 0.830045 -0.208202
C56   C     C_R   0.595542 0.953426 0.798862 -0.048855
C57   C     C_R   0.604446 0.925728 0.738177 0.116621
C58   C     C_R   0.482031 0.862196 0.708441 0.285324
C59   C     C_2   0.642555 0.269819 0.001837 -0.327175
H10   H     H_    0.776626 0.239144 0.005198 0.149215
C60   C     C_2   0.473069 0.230037 0.997738 -0.312826
H11   H     H_    0.339043 0.260672 0.994233 0.139708
O19   O     O_R   0.618210 0.960470 0.922400 -0.538849
O20   O     O_R   0.291310 0.111960 0.995450 -0.557314
O21   O     O_R   0.124210 0.039530 0.077580 -0.543146
C61   C     C_R   0.461169 0.144962 0.998292 0.783301
O22   O     O_R   0.288310 0.965490 0.917650 -0.528892
O23   O     O_R   0.121180 0.892010 0.999220 -0.516486
C62   C     C_R   0.455871 0.949517 0.894026 0.783455
O24   O     O_R   0.621230 0.107990 0.000760 -0.536978
O25   O     O_3   0.455770 0.976060 0.026840 -0.354673
V3    V     V_3+5 0.179680 0.004440 0.995020 1.507649
O26   O     O_R   0.791670 0.888040 0.004570 -0.541130
C63   C     C_R   0.962266 0.855288 0.002248 0.794457
O27   O     O_R   0.794680 0.034510 0.082370 -0.543057
C64   C     C_R   0.964135 0.050343 0.105780 0.702941
V4    V     V_3+5 0.680070 0.995560 0.005010 1.508377
O28   O     O_3   0.953840 0.023940 0.973160 -0.375619
C65   C     C_2   0.340084 0.767063 0.996143 0.887915
O29   O     O_2   0.405762 0.816150 0.037795 -0.535067
O30   O     O_R   0.449521 0.740675 0.946671 -0.653537
H12   H     H_    0.576218 0.770132 0.948752 0.281827
C66   C     C_2   0.736968 0.239090 0.285126 0.786003
O31   O     O_2   0.687221 0.249560 0.334848 -0.567844
O32   O     O_R   0.664701 0.289028 0.252866 -0.660577
H13   H     H_    0.575555 0.331632 0.275640 0.321212
C67   C     C_3   0.451202 0.420365 0.702568 -0.349082
C68   C     C_3   0.584619 0.349208 0.681563 -0.652752
H14   H     H_    0.628532 0.325573 0.718095 0.242255
H15   H     H_    0.515357 0.301342 0.647939 0.247194
H16   H     H_    0.714897 0.368736 0.662849 0.250283
H17   H     H_    0.402544 0.442471 0.665862 0.234527
H18   H     H_    0.545039 0.467212 0.729392 0.191049
C69   C     C_3   0.299664 0.534600 0.812531 -0.353530
C70   C     C_3   0.120739 0.587049 0.827654 -0.648444
H19   H     H_    0.016969 0.573705 0.791219 0.243649
H20   H     H_    0.048522 0.578478 0.866236 0.192058
H21   H     H_    0.163284 0.650766 0.836733 0.265240
H22   H     H_    0.401228 0.546646 0.849391 0.196035
H23   H     H_    0.370083 0.555963 0.778458 0.217136
C71   C     C_3   0.952137 0.293994 0.850306 -0.339755
C72   C     C_3   0.735128 0.307507 0.848886 -0.665740
H24   H     H_    0.701996 0.372338 0.861875 0.222475
H25   H     H_    0.675633 0.281338 0.805392 0.231068
H26   H     H_    0.663174 0.278067 0.878778 0.217540
H27   H     H_    0.980947 0.228974 0.839243 0.203122
H28   H     H_    0.005082 0.314523 0.895020 0.170276
C73   C     C_2   0.984212 0.215493 0.730055 0.868872
O33   O     O_2   0.837019 0.202257 0.701198 -0.543889
O34   O     O_R   0.086379 0.153320 0.743610 -0.633099
H29   H     H_    0.032975 0.098803 0.724435 0.337506
C74   C     C_2   0.472278 0.571746 0.570494 0.926759
O35   O     O_2   0.402872 0.592775 0.618243 -0.515812
O36   O     O_R   0.474449 0.490226 0.542288 -0.662995
H30   H     H_    0.422064 0.455412 0.566513 0.303128
C75   C     C_2   0.348261 0.670374 0.159881 0.778094
O37   O     O_2   0.398098 0.693968 0.118763 -0.554752
O38   O     O_R   0.155958 0.676833 0.176897 -0.670670
H31   H     H_    0.071046 0.699526 0.150727 0.294772
C76   C     C_3   0.960954 0.592804 0.300644 -0.341768
C77   C     C_3   0.046567 0.670899 0.337353 -0.694753
H32   H     H_    0.053301 0.716767 0.312813 0.250385
H33   H     H_    0.961132 0.694368 0.376526 0.225633
H34   H     H_    0.193713 0.659747 0.351482 0.210008
H35   H     H_    0.919365 0.554056 0.328431 0.212228
H36   H     H_    0.077055 0.560634 0.272584 0.184079
C78   C     C_2   0.228220 0.758263 0.709630 0.886327
O39   O     O_2   0.153349 0.755967 0.663352 -0.563005
O40   O     O_R   0.204660 0.693820 0.733744 -0.642992
H37   H     H_    0.121039 0.649839 0.709284 0.340339
C79   C     C_2   0.182631 0.827198 0.831355 0.816107
O41   O     O_2   0.224651 0.804339 0.873539 -0.566852
O42   O     O_R   0.991595 0.823171 0.812209 -0.653229
H38   H     H_    0.901723 0.800920 0.837098 0.292908
C80   C     C_2   0.722827 0.019875 0.830107 0.767677
O43   O     O_2   0.652354 0.082710 0.857423 -0.572658
O44   O     O_R   0.922527 0.010206 0.828321 -0.651013
H39   H     H_    0.993503 0.059532 0.851096 0.296808
C81   C     C_3   0.748440 0.963475 0.705766 -0.323530
C82   C     C_3   0.926536 0.912221 0.690336 -0.647453
H40   H     H_    0.988563 0.898908 0.729092 0.268309
H41   H     H_    0.889509 0.855897 0.658092 0.246267
H42   H     H_    0.035405 0.944842 0.671985 0.257538
H43   H     H_    0.688836 0.975711 0.666724 0.234922
H44   H     H_    0.790861 0.023546 0.731109 0.192263
C83   C     C_2   0.963681 0.473195 0.553030 0.855188
O45   O     O_2   0.825889 0.484121 0.585042 -0.523518
O46   O     O_R   0.058321 0.538724 0.542212 -0.672990
H45   H     H_    0.999744 0.591589 0.563379 0.316349
C84   C     C_3   0.990837 0.422463 0.428089 -0.294425
C85   C     C_3   0.174955 0.461101 0.413396 -0.577350
H46   H     H_    0.230456 0.505976 0.451336 0.241869
H47   H     H_    0.289498 0.416276 0.398243 0.261727
H48   H     H_    0.144304 0.491885 0.379476 0.207291
H49   H     H_    0.910220 0.393107 0.388486 0.226054
H50   H     H_    0.890012 0.469956 0.449789 0.173104
C86   C     C_2   0.037121 0.051497 0.569220 0.856487
O47   O     O_2   0.975358 0.069439 0.617884 -0.530813
O48   O     O_R   0.068135 0.971049 0.541562 -0.674222
H51   H     H_    0.035590 0.933907 0.566332 0.305414
C87   C     C_3   0.279366 0.037443 0.288893 -0.369347
C88   C     C_3   0.447271 0.093814 0.309260 -0.657710
H52   H     H_    0.508751 0.110644 0.271957 0.223198
H53   H     H_    0.400918 0.147991 0.341886 0.250474
H54   H     H_    0.559281 0.063216 0.328514 0.259559
H55   H     H_    0.222601 0.016582 0.324928 0.227841
H56   H     H_    0.337152 0.982843 0.258712 0.196207

loop_
_geom_bond_atom_site_label_1
_geom_bond_atom_site_label_2
_ccdc_geom_bond_type
C81   H43   S    
O23   C63   A    
C72   H26   S    
C61   O24   A    
C33   N3    A    
C5    C65   S    
C86   O47   D    
O19   C62   A    
C30   C71   S    
C21   C22   A    
C20   O14   S    
O36   H30   S    
C44   H7    S    
C1    O6    A    
C70   H19   S    
C65   O30   S    
C49   C50   A    
C34   C35   A    
C72   H24   S    
C24   C25   A    
C31   C32   A    
C66   O31   D    
C33   C37   A    
O22   V3    S    
C15   C16   A    
O21   V3    S    
C16   C20   A    
O24   V4    S    
C79   O41   D    
C6    H1    S    
C55   C56   A    
C53   C58   A    
C73   O34   S    
C71   H28   S    
C16   C17   A    
C47   C48   A    
C27   C67   S    
O26   C63   A    
N3    C34   A    
C45   O17   S    
C42   C46   A    
O27   C64   A    
N2    C20   A    
C8    C9    A    
C9    C12   A    
C76   H35   S    
C38   C74   S    
O32   H13   S    
C65   O29   D    
C68   H16   S    
C74   O36   S    
C17   H2    S    
C10   C15   A    
O8    V2    S    
N3    C58   S    
C87   H56   S    
C1    C49   S    
C25   C26   A    
C37   C44   A    
O27   V4    S    
C45   N4    A    
C7    C11   A    
C84   H49   S    
O38   H31   S    
C39   H5    S    
O1    V2    S    
C31   C73   S    
O7    V1    S    
C77   H33   S    
C88   H54   S    
O20   V3    S    
C23   C64   S    
C11   C18   A    
C80   O44   S    
C87   C88   S    
V3    O28   S    
C10   C11   A    
C36   C37   A    
C76   C77   S    
O21   C64   A    
C82   H40   S    
N1    C8    A    
C4    C5    S    
C60   H11   S    
C22   C23   A    
C84   H50   S    
O22   C62   A    
O25   V3    S    
O20   C61   A    
C19   N2    A    
C13   C84   S    
C82   H41   S    
O23   V3    S    
C48   C75   S    
C68   H14   S    
V2    O10   S    
C29   C30   A    
C43   C44   A    
C51   C52   A    
C77   H34   S    
C71   H27   S    
O4    C2    A    
C53   C54   A    
C88   H52   S    
C28   C29   A    
C35   C36   A    
O46   H45   S    
C8    O12   S    
O19   V4    S    
V4    O28   S    
C78   O40   S    
C76   H36   S    
O2    C1    A    
C84   C85   S    
C56   C80   S    
C12   C83   S    
C39   C40   A    
C51   C76   S    
C87   H55   S    
C21   C87   S    
C9    C10   A    
C43   H6    S    
C59   C60   D    
C5    C6    D    
C12   C13   A    
C18   C86   S    
C30   C31   A    
C6    C63   S    
C69   H22   S    
C77   H32   S    
O3    C4    A    
C66   O32   S    
C47   C52   A    
C80   O43   D    
C14   C19   A    
C50   H9    S    
O6    V2    S    
C50   C51   A    
C73   O33   D    
O42   H38   S    
C75   O38   S    
C24   H4    S    
N2    C26   S    
C22   H3    S    
C69   C70   S    
O2    V1    S    
C70   H21   S    
C74   O35   D    
C46   O18   S    
C3    C29   S    
N4    C52   S    
C81   C82   S    
O25   V4    S    
O40   H37   S    
O26   V4    S    
C82   H42   S    
C81   H44   S    
C72   H25   S    
C40   C45   A    
C14   C15   A    
C86   O48   S    
O1    C2    A    
C17   C18   A    
C23   C24   A    
C69   H23   S    
C48   C49   A    
C70   H20   S    
O5    V1    S    
C55   C62   S    
O8    C3    A    
O30   H12   S    
C71   C72   S    
C83   O45   D    
C19   O13   S    
C85   H48   S    
C41   C42   A    
O9    V2    S    
O34   H29   S    
O7    V2    S    
O4    V1    S    
O3    V1    S    
V1    O10   S    
C75   O37   D    
O48   H51   S    
O5    C3    A    
C47   H8    S    
C57   C58   A    
N1    C32   S    
C60   C61   S    
C35   C38   A    
C2    C59   S    
C79   O42   S    
C59   H10   S    
C67   H17   S    
C21   C26   A    
C85   H47   S    
C54   C79   S    
C67   H18   S    
C42   C43   A    
C34   O16   S    
C38   C39   A    
C78   O39   D    
N4    C46   A    
C68   H15   S    
C25   C66   S    
C40   C41   A    
C7    O11   S    
C36   C41   A    
C7    N1    A    
C54   C55   A    
C27   C28   A    
O44   H39   S    
C57   C81   S    
C13   C14   A    
C67   C68   S    
C85   H46   S    
C28   C69   S    
C83   O46   S    
C56   C57   A    
O9    C4    A    
C53   C78   S    
C33   O15   S    
C27   C32   A    
C88   H53   S    
