data_mof_unit_59267.cif
_audit_creation_date              2013-03-05T16:09:46-0500
_audit_creation_method            fapswitch 2.2
_symmetry_space_group_name_H-M    P1
_symmetry_Int_Tables_number       1
_space_group_crystal_system       triclinic
_cell_length_a                    12.802051
_cell_length_b                    10.640896
_cell_length_c                    9.798472
_cell_angle_alpha                 90.129532
_cell_angle_beta                  98.180199
_cell_angle_gamma                 90.359728
_cell_volume                      1321.18600491

loop_
_atom_site_label
_atom_site_type_symbol
_atom_site_description
_atom_site_fract_x
_atom_site_fract_y
_atom_site_fract_z
_atom_type_partial_charge
O1    O     O_R   0.499990 0.316750 0.614620 -0.634604
O2    O     O_R   0.500010 0.683250 0.385380 -0.634582
O3    O     O_R   0.499990 0.316780 0.385290 -0.600998
O4    O     O_R   0.500010 0.683220 0.614710 -0.600990
C1    C     C_R   0.502862 0.260164 0.500354 0.881851
C2    C     C_R   0.497136 0.739837 0.499646 0.881846
O5    O     O_R   0.346360 0.499970 0.595710 -0.544408
O6    O     O_R   0.653640 0.500030 0.404290 -0.544419
O7    O     O_R   0.346360 0.499990 0.366380 -0.655623
O8    O     O_R   0.653640 0.500010 0.633620 -0.655623
C3    C     C_R   0.298097 0.515055 0.471557 0.889627
C4    C     C_R   0.701900 0.484934 0.528443 0.889636
Zn1   Zn    Zn3+2 0.500000 0.499980 0.653120 0.984184
Zn2   Zn    Zn3+2 0.500000 0.500020 0.346880 0.984201
C5    C     C_R   0.815622 0.462496 0.549217 -0.231844
C6    C     C_R   0.184371 0.537465 0.450785 -0.231856
C7    C     C_R   0.018665 0.482052 0.316483 -0.161025
C8    C     C_R   0.981334 0.517873 0.683523 -0.161068
C9    C     C_R   0.122413 0.522189 0.319778 0.095531
C10   C     C_R   0.877582 0.477751 0.680226 0.095586
C11   C     C_R   0.134744 0.553821 0.569101 0.276269
C12   C     C_R   0.865248 0.446127 0.430902 0.276252
C13   C     C_R   0.028768 0.520015 0.563333 -0.035639
C14   C     C_R   0.971229 0.479919 0.436673 -0.035652
H1    H     H_    0.975043 0.455696 0.218016 0.199684
H2    H     H_    0.024958 0.544215 0.781993 0.199673
C15   C     C_R   0.427604 0.067127 0.408236 -0.238393
C16   C     C_R   0.572384 0.932874 0.591766 -0.238495
H3    H     H_    0.370634 0.121005 0.339720 0.149642
H4    H     H_    0.629356 0.878996 0.660277 0.149661
C17   C     C_R   0.420920 0.937813 0.407379 0.172847
C18   C     C_R   0.579073 0.062188 0.592619 0.172941
C19   C     C_R   0.495110 0.872124 0.499823 -0.069128
C20   C     C_R   0.504880 0.127877 0.500178 -0.069098
C21   C     C_R   0.559143 0.585679 0.083196 0.009718
C22   C     C_R   0.440856 0.414322 0.916803 0.009602
H5    H     H_    0.606407 0.653991 0.146996 0.139533
H6    H     H_    0.393592 0.346010 0.853004 0.139581
C23   C     C_R   0.559293 0.585485 0.939053 -0.055822
C24   C     C_R   0.440706 0.414516 0.060947 -0.055788
H7    H     H_    0.606746 0.653529 0.893054 0.121957
H8    H     H_    0.393253 0.346471 0.106946 0.121948
N1    N     N_R   0.499970 0.499970 0.857200 -0.082538
N2    N     N_R   0.500030 0.500030 0.142800 -0.082511
N3    N     N_R   0.807683 0.395060 0.305922 0.202544
O9    O     O_R   0.762600 0.285294 0.308097 -0.406603
O10   O     O_R   0.785372 0.465881 0.197678 -0.443615
N4    N     N_R   0.192303 0.604902 0.694078 0.202548
O11   O     O_R   0.237371 0.714677 0.691897 -0.406595
O12   O     O_R   0.214627 0.534087 0.802324 -0.443627
C25   C     C_3   0.839141 0.449760 0.817498 -0.358583
C26   C     C_3   0.909922 0.354803 0.903258 -0.861942
H9    H     H_    0.917086 0.267954 0.842195 0.265804
H10   H     H_    0.989715 0.394281 0.937735 0.259351
H11   H     H_    0.874569 0.329294 0.996626 0.283055
H12   H     H_    0.836548 0.538360 0.877123 0.213841
H13   H     H_    0.760045 0.405811 0.804767 0.246060
C27   C     C_3   0.160857 0.550181 0.182509 -0.358529
C28   C     C_3   0.090023 0.645050 0.096683 -0.861854
H14   H     H_    0.010292 0.605443 0.062090 0.259317
H15   H     H_    0.082702 0.731867 0.157741 0.265820
H16   H     H_    0.125426 0.670653 0.003385 0.283042
H17   H     H_    0.239927 0.594210 0.195260 0.245961
H18   H     H_    0.163525 0.461566 0.122923 0.213851
C29   C     C_3   0.331702 0.874738 0.312697 -0.406274
C30   C     C_3   0.355609 0.869928 0.164523 -0.795883
H19   H     H_    0.429630 0.817496 0.159066 0.267242
H20   H     H_    0.289993 0.821524 0.098016 0.259787
H21   H     H_    0.363921 0.966519 0.124443 0.251075
H22   H     H_    0.315831 0.778232 0.347394 0.206765
H23   H     H_    0.257402 0.927656 0.315379 0.206584
C31   C     C_3   0.668325 0.125249 0.687254 -0.406262
C32   C     C_3   0.644467 0.130113 0.835448 -0.796221
H24   H     H_    0.710304 0.178037 0.901997 0.259799
H25   H     H_    0.570715 0.183018 0.841018 0.267343
H26   H     H_    0.635712 0.033573 0.875393 0.251173
H27   H     H_    0.742600 0.072285 0.684551 0.206589
H28   H     H_    0.684224 0.221736 0.652524 0.206772

loop_
_geom_bond_atom_site_label_1
_geom_bond_atom_site_label_2
_geom_bond_distance
_ccdc_geom_bond_type
C30   H20   1.110343 S    
C6    C11   1.409970 A    
C15   H3    1.085802 S    
C32   H24   1.110117 S    
C8    H2    1.079296 S    
C23   H7    1.081818 S    
N3    O9    1.301136 A    
O5    C3    1.294469 A    
O1    C1    1.275318 A    
C21   H5    1.081699 S    
C10   C25   1.525913 S    
C30   H21   1.110989 S    
C29   H22   1.109061 S    
C25   H12   1.111168 S    
O4    Zn1   1.986666 S    
C22   C24   1.412657 A    
C31   H28   1.109061 S    
C5    C12   1.409971 A    
C13   C14   1.413649 A    
C17   C19   1.406259 A    
C25   H13   1.103384 S    
C26   H11   1.110358 S    
C11   N4    1.439864 S    
N4    O12   1.301735 A    
C30   H19   1.110431 S    
C28   H14   1.108993 S    
C15   C20   1.394235 A    
C32   H25   1.110212 S    
O2    C2    1.275323 A    
C26   H10   1.108977 S    
N3    O10   1.301737 A    
C9    C27   1.525912 S    
C27   H18   1.111205 S    
C5    C10   1.418121 A    
C28   H15   1.111162 S    
C7    C14   1.399888 A    
C15   C17   1.378075 A    
C25   C26   1.531936 S    
C16   C18   1.378074 A    
O4    C2    1.275538 A    
C23   N1    1.364821 A    
C27   C28   1.531982 S    
C29   H23   1.111901 S    
C8    C13   1.399885 A    
C18   C20   1.406254 A    
C21   C23   1.412657 A    
O7    Zn2   2.003041 S    
C31   H27   1.111894 S    
C3    C6    1.462288 S    
C4    C5    1.462284 S    
C24   N2    1.364821 A    
O6    C4    1.294474 A    
C1    C20   1.408048 S    
C21   N2    1.365256 A    
O7    C3    1.285004 A    
O3    Zn2   1.986666 S    
O8    C4    1.284997 A    
N4    O11   1.301140 A    
C16   C19   1.394219 A    
C11   C13   1.394720 A    
C32   H26   1.110813 S    
C12   C14   1.394725 A    
O1    Zn1   1.985049 S    
Zn1   N1    1.999727 S    
C26   H9    1.111151 S    
Zn2   N2    1.999727 S    
C27   H17   1.103434 S    
C17   C29   1.517148 S    
C28   H16   1.110339 S    
O6    Zn2   1.967307 S    
C31   C32   1.526617 S    
O3    C1    1.275537 A    
O8    Zn1   2.003040 S    
C2    C19   1.408062 S    
C7    H1    1.079295 S    
C22   H6    1.081699 S    
C16   H4    1.085803 S    
C6    C9    1.418118 A    
C24   H8    1.081818 S    
C7    C9    1.388578 A    
C8    C10   1.388569 A    
O2    Zn2   1.985049 S    
O5    Zn1   1.967308 S    
C12   N3    1.439867 S    
C29   C30   1.526618 S    
C22   N1    1.365257 A    
C18   C31   1.517148 S    
