data_mof_unit_65828.cif
_audit_creation_date              2012-12-10T19:34:38-0500
_audit_creation_method            fapswitch 2.2
_symmetry_space_group_name_H-M    P1
_symmetry_Int_Tables_number       1
_space_group_crystal_system       triclinic
_cell_length_a                    10.817893
_cell_length_b                    15.825736
_cell_length_c                    17.02722
_cell_angle_alpha                 95.567342
_cell_angle_beta                  91.378997
_cell_angle_gamma                 92.398167
_cell_volume                      2897.62753691

loop_
_atom_site_label
_atom_site_type_symbol
_atom_type_description
_atom_site_fract_x
_atom_site_fract_y
_atom_site_fract_z
_atom_type_partial_charge
C1    C     C_R   0.496420 0.490223 0.348881 0.836033
C2    C     C_R   0.052880 0.424410 0.510048 -0.138081
C3    C     C_R   0.125746 0.500903 0.507790 -0.223082
C4    C     C_R   0.068029 0.575344 0.490411 0.603102
C5    C     C_R   0.941367 0.574564 0.475504 0.092867
C6    C     C_R   0.870408 0.497755 0.475492 -0.218300
C7    C     C_R   0.485673 0.486766 0.263404 -0.063531
C8    C     C_R   0.582939 0.455883 0.217868 -0.219110
C9    C     C_R   0.578680 0.459066 0.136376 -0.119736
C10   C     C_R   0.475900 0.492709 0.099779 0.342546
C11   C     C_R   0.376702 0.519805 0.145229 -0.166383
C12   C     C_R   0.261675 0.500410 0.505349 0.881497
C13   C     C_R   0.381283 0.518011 0.226861 0.116489
C14   C     C_R   0.530101 0.431863 0.854732 0.089161
C15   C     C_R   0.507653 0.434646 0.774498 0.553792
C16   C     C_R   0.553530 0.506956 0.903574 0.136988
C17   C     C_R   0.511181 0.512731 0.740253 -0.309467
C18   C     C_R   0.530146 0.589755 0.790951 0.052339
C19   C     C_R   0.553575 0.585841 0.872541 0.127713
C20   C     C_R   0.431769 0.751417 0.465934 0.015782
C21   C     C_R   0.434217 0.840276 0.467368 0.527869
C22   C     C_R   0.525080 0.890312 0.514438 0.191771
C23   C     C_R   0.501493 0.509985 0.652380 0.892332
C24   C     C_R   0.610162 0.847596 0.558462 0.022922
C25   C     C_R   0.603506 0.758535 0.555093 0.027288
C26   C     C_R   0.556158 0.156270 0.534923 -0.283639
C27   C     C_R   0.561834 0.245414 0.537917 0.372432
C28   C     C_R   0.472031 0.107670 0.483328 0.320770
C29   C     C_R   0.402405 0.240032 0.439100 0.310782
C30   C     C_R   0.395521 0.150894 0.435564 -0.262852
C31   C     C_R   0.736406 0.499220 0.488918 0.874897
C32   C     C_R   0.094269 0.350689 0.542189 0.185880
C33   C     C_R   0.035640 0.271072 0.517463 0.115332
C34   C     C_R   0.933413 0.266527 0.465590 -0.254852
C35   C     C_R   0.879137 0.340694 0.447147 0.648804
C36   C     C_R   0.932217 0.420861 0.477125 -0.077502
Cu1   Cu    Cu3+1 0.493970 0.415220 0.496180 1.075812
Cu2   Cu    Cu3+1 0.506030 0.584780 0.503820 1.028661
H1    H     H_    0.655351 0.435517 0.102185 0.183258
H2    H     H_    0.663335 0.431399 0.245660 0.194266
H3    H     H_    0.617898 0.125525 0.573053 0.203730
H4    H     H_    0.669476 0.726252 0.588897 0.186306
H5    H     H_    0.329910 0.114847 0.394951 0.206911
H6    H     H_    0.362753 0.713552 0.429508 0.219571
H7    H     H_    0.891495 0.205384 0.443074 0.201180
H8    H     H_    0.296547 0.544053 0.117027 0.181082
N1    N     N_2   0.467284 0.498598 0.017455 -0.192431
N2    N     N_2   0.569325 0.503173 0.985418 -0.183200
N3    N     N_R   0.515100 0.712130 0.509560 -0.235569
N4    N     N_2   0.535012 0.981630 0.519995 -0.177936
N5    N     N_2   0.460955 0.016504 0.477137 -0.091707
N6    N     N_R   0.484890 0.287850 0.490450 -0.203387
O1    O     O_R   0.494360 0.420530 0.382500 -0.540945
O2    O     O_R   0.504550 0.563720 0.388950 -0.579904
O3    O     O_R   0.314550 0.428390 0.496780 -0.574204
O4    O     O_R   0.324740 0.571580 0.503230 -0.522663
O5    O     O_R   0.495450 0.436280 0.611050 -0.508222
O6    O     O_R   0.505640 0.579470 0.617500 -0.569623
O7    O     O_R   0.675260 0.428420 0.496770 -0.536088
O8    O     O_R   0.685450 0.571610 0.503220 -0.587905
F1    F     F_    0.134495 0.649586 0.486738 -0.610870
I1    I     I_    0.226715 0.561717 0.290916 -0.240646
I2    I     I_    0.516773 0.713327 0.750583 -0.189032
I3    I     I_    0.588403 0.697239 0.953073 -0.141826
I4    I     I_    0.698194 0.304165 0.619769 -0.192939
I5    I     I_    0.750929 0.915210 0.630401 -0.147177
I6    I     I_    0.278441 0.290274 0.358700 -0.247817
I7    I     I_    0.207847 0.362804 0.647029 -0.161095
F2    F     F_    0.348143 0.875768 0.423131 -0.594342
I8    I     I_    0.095985 0.155292 0.555040 -0.168559
F3    F     F_    0.780703 0.333766 0.395544 -0.649959
I9    I     I_    0.870831 0.689865 0.440377 -0.143518
F4    F     F_    0.480667 0.359674 0.730694 -0.589930
I10   I     I_    0.528177 0.311897 0.901307 -0.102138

loop_
_geom_bond_atom_site_label_1
_geom_bond_atom_site_label_2
_ccdc_geom_bond_type
C23   O6    A    
C35   C36   A    
C16   N2    S    
C7    C8    A    
Cu2   N3    S    
C26   C27   A    
C20   N3    A    
C14   I10   S    
Cu1   Cu2   S    
C18   C19   A    
C5    I9    S    
C5    C6    A    
C28   N5    S    
C18   I2    S    
C9    H1    S    
C2    C32   A    
C34   C35   A    
C31   O7    A    
C1    O1    A    
C3    C12   S    
C29   I6    S    
C13   I1    S    
C8    C9    A    
C9    C10   A    
C24   I5    S    
C22   N4    S    
Cu1   O1    S    
Cu1   O7    S    
C6    C31   S    
C35   F3    S    
Cu2   O6    S    
C21   C22   A    
C20   H6    S    
C33   C34   A    
C24   C25   A    
Cu1   N6    S    
N4    N5    D    
C4    F1    S    
C21   F2    S    
C31   O8    A    
C1    O2    A    
C29   C30   A    
C27   I4    S    
N1    N2    D    
Cu2   O2    S    
C19   I3    S    
C23   O5    A    
C17   C18   A    
C34   H7    S    
C17   C23   S    
C12   O4    A    
C33   I8    S    
Cu2   O8    S    
C15   F4    S    
C14   C16   A    
C30   H5    S    
C3    C4    A    
C27   N6    A    
C2    C36   A    
C15   C17   A    
C1    C7    S    
C4    C5    A    
C25   H4    S    
C26   C28   A    
C32   I7    S    
C32   C33   A    
C28   C30   A    
C2    C3    A    
C11   C13   A    
C16   C19   A    
C6    C36   A    
C22   C24   A    
C25   N3    A    
C12   O3    A    
C10   C11   A    
Cu1   O3    S    
C7    C13   A    
Cu2   O4    S    
C20   C21   A    
C10   N1    S    
C14   C15   A    
C11   H8    S    
C8    H2    S    
Cu1   O5    S    
C26   H3    S    
C29   N6    A    
