data_mof_unit_60809.cif
_audit_creation_date              2012-12-10T19:45:53-0500
_audit_creation_method            fapswitch 2.2
_symmetry_space_group_name_H-M    P1
_symmetry_Int_Tables_number       1
_space_group_crystal_system       triclinic
_cell_length_a                    18.371163
_cell_length_b                    18.371168
_cell_length_c                    27.66718
_cell_angle_alpha                 90.000763
_cell_angle_beta                  90.000788
_cell_angle_gamma                 90.0015
_cell_volume                      9337.66554886

loop_
_atom_site_label
_atom_site_type_symbol
_atom_type_description
_atom_site_fract_x
_atom_site_fract_y
_atom_site_fract_z
_atom_type_partial_charge
C1    C     C_1   0.999998 0.500000 0.775502 -0.025233
C2    C     C_3   0.271362 0.212401 0.912686 -0.069431
C3    C     C_R   0.272892 0.781452 0.548062 0.009721
C4    C     C_1   0.500001 0.000000 0.224511 -0.023686
C5    C     C_1   0.000000 0.500001 0.224511 -0.023686
C6    C     C_1   0.999998 0.500001 0.724511 -0.023727
C7    C     C_1   0.500001 0.999998 0.724511 -0.023727
C8    C     C_3   0.786132 0.272825 0.912599 -0.069734
C9    C     C_3   0.727565 0.786524 0.912614 -0.069648
C10   C     C_3   0.212402 0.271363 0.912686 -0.069432
C11   C     C_3   0.272797 0.786161 0.912600 -0.069727
C12   C     C_3   0.786524 0.727565 0.912614 -0.069648
C13   C     C_3   0.727171 0.213867 0.912599 -0.069738
C14   C     C_3   0.714020 0.227013 0.412589 -0.069764
C15   C     C_3   0.773780 0.714825 0.412544 -0.069945
C16   C     C_3   0.285975 0.772975 0.412588 -0.069775
C17   C     C_1   0.500000 0.999998 0.775502 -0.025233
C18   C     C_3   0.227298 0.286257 0.412609 -0.069714
C19   C     C_3   0.714825 0.773780 0.412544 -0.069945
C20   C     C_3   0.772982 0.285969 0.412588 -0.069775
C21   C     C_3   0.286256 0.227299 0.412609 -0.069714
C22   C     C_3   0.227020 0.714012 0.412589 -0.069762
C23   C     C_R   0.500000 1.000000 0.870871 0.500155
C24   C     C_R   0.999999 0.500000 0.870871 0.500155
C25   C     C_R   1.000000 0.500000 0.370871 0.500206
C26   C     C_R   0.500001 1.000000 0.370871 0.500206
C27   C     C_R   0.500000 0.000000 0.129139 0.507330
C28   C     C_1   0.500001 0.999999 0.275502 -0.025141
C29   C     C_R   0.000000 0.500000 0.129139 0.507331
C30   C     C_R   1.000000 0.500000 0.629139 0.507364
C31   C     C_R   0.500000 1.000000 0.629139 0.507364
C32   C     C_R   0.640915 0.860545 0.000757 0.510331
C33   C     C_R   0.139457 0.640912 0.000754 0.510364
C34   C     C_R   0.359074 0.139446 0.000770 0.510258
C35   C     C_R   0.860544 0.359087 0.000754 0.510362
C36   C     C_R   0.640912 0.139457 0.000754 0.510365
C37   C     C_R   0.139446 0.359074 0.000770 0.510259
C38   C     C_R   0.359087 0.860545 0.000754 0.510360
C39   C     C_1   0.999999 0.500001 0.275502 -0.025141
C40   C     C_R   0.860545 0.640915 0.000757 0.510331
C41   C     C_R   0.140913 0.360544 0.500756 0.510342
C42   C     C_R   0.639458 0.140910 0.500752 0.510356
C43   C     C_R   0.859098 0.639465 0.500742 0.510430
C44   C     C_R   0.360542 0.859090 0.500752 0.510361
C45   C     C_R   0.140910 0.639458 0.500752 0.510355
C46   C     C_R   0.639465 0.859098 0.500742 0.510430
C47   C     C_R   0.859090 0.360542 0.500752 0.510361
C48   C     C_R   0.360544 0.140913 0.500756 0.510342
C49   C     C_1   0.999999 0.499999 0.819050 0.020294
C50   C     C_1   0.500001 0.000001 0.180962 0.024233
C51   C     C_1   0.499999 0.999999 0.819050 0.020294
C52   C     C_1   0.500001 0.999999 0.319050 0.020421
C53   C     C_1   0.999999 0.500001 0.319050 0.020421
C54   C     C_R   0.254014 0.798907 0.964449 0.000916
C55   C     C_R   0.200489 0.253404 0.964751 0.000652
C56   C     C_R   0.745972 0.201104 0.964443 0.000920
C57   C     C_R   0.799056 0.746136 0.964521 0.000841
C58   C     C_R   0.253404 0.200489 0.964751 0.000652
C59   C     C_R   0.201093 0.745983 0.964449 0.000915
C60   C     C_R   0.746136 0.799056 0.964521 0.000841
C61   C     C_1   0.000001 0.500001 0.180962 0.024233
C62   C     C_R   0.798896 0.254025 0.964443 0.000921
C63   C     C_R   0.754094 0.298827 0.464408 0.000943
C64   C     C_R   0.701517 0.754442 0.464238 0.001081
C65   C     C_R   0.245907 0.701167 0.464410 0.000945
C66   C     C_R   0.298951 0.246029 0.464472 0.000902
C67   C     C_R   0.754442 0.701517 0.464238 0.001081
C68   C     C_R   0.701170 0.245903 0.464409 0.000947
C69   C     C_R   0.246029 0.298951 0.464472 0.000902
C70   C     C_R   0.298829 0.754092 0.464409 0.000942
C71   C     C_R   0.299054 0.809156 0.004389 -0.006084
C72   C     C_1   0.999999 0.500001 0.680962 0.024227
C73   C     C_R   0.190776 0.298992 0.004478 -0.006268
C74   C     C_R   0.700943 0.190848 0.004387 -0.006079
C75   C     C_R   0.809170 0.700958 0.004407 -0.006133
C76   C     C_R   0.298992 0.190776 0.004478 -0.006268
C77   C     C_R   0.190847 0.700944 0.004389 -0.006082
C78   C     C_R   0.700958 0.809170 0.004407 -0.006133
C79   C     C_R   0.809155 0.299055 0.004387 -0.006081
C80   C     C_R   0.799065 0.309144 0.504375 -0.006060
C81   C     C_R   0.690897 0.799104 0.504321 -0.005952
C82   C     C_R   0.200935 0.690856 0.504376 -0.006064
C83   C     C_1   0.500001 0.999999 0.680962 0.024226
C84   C     C_R   0.309157 0.200947 0.504396 -0.006101
C85   C     C_R   0.799104 0.690897 0.504321 -0.005951
C86   C     C_R   0.690857 0.200934 0.504376 -0.006063
C87   C     C_R   0.200948 0.309157 0.504396 -0.006101
C88   C     C_R   0.309144 0.799065 0.504375 -0.006060
C89   C     C_R   0.281499 0.772845 0.048065 0.009726
C90   C     C_R   0.227585 0.281924 0.048064 0.009750
C91   C     C_R   0.718509 0.227152 0.048064 0.009728
C92   C     C_R   0.772735 0.718395 0.048061 0.009736
C93   C     C_R   0.281924 0.227585 0.048064 0.009751
C94   C     C_3   0.213840 0.727198 0.912600 -0.069734
C95   C     C_R   0.227159 0.718502 0.048065 0.009729
C96   C     C_R   0.718395 0.772734 0.048061 0.009737
C97   C     C_R   0.772852 0.281492 0.048065 0.009725
C98   C     C_R   0.781450 0.272894 0.548062 0.009720
C99   C     C_R   0.726868 0.781210 0.548058 0.009704
C100  C     C_R   0.218550 0.727111 0.548062 0.009713
C101  C     C_R   0.272798 0.218458 0.548063 0.009720
C102  C     C_R   0.781210 0.726868 0.548058 0.009704
C103  C     C_R   0.727109 0.218552 0.548062 0.009713
C104  C     C_R   0.218458 0.272798 0.548063 0.009720
Cl1   Cl    Cl    0.134642 0.745041 0.876834 -0.018675
Cl2   Cl    Cl    0.756329 0.636018 0.376322 -0.018922
Cl3   Cl    Cl    0.365100 0.755204 0.376736 -0.018689
Cl4   Cl    Cl    0.245186 0.365490 0.376887 -0.018642
Cl5   Cl    Cl    0.636018 0.756329 0.376322 -0.018922
Cl6   Cl    Cl    0.755211 0.365091 0.376732 -0.018691
Cl7   Cl    Cl    0.365490 0.245187 0.376887 -0.018642
Cl8   Cl    Cl    0.244803 0.634884 0.376741 -0.018699
Cl9   Cl    Cl    0.326049 0.794631 0.102917 -0.029895
Cl10  Cl    Cl    0.206468 0.327078 0.102820 -0.029545
Cl11  Cl    Cl    0.673971 0.205359 0.102918 -0.029894
Cl12  Cl    Cl    0.252923 0.132632 0.877608 -0.018288
Cl13  Cl    Cl    0.794354 0.673699 0.102890 -0.029753
Cl14  Cl    Cl    0.327078 0.206468 0.102820 -0.029545
Cl15  Cl    Cl    0.205377 0.673954 0.102917 -0.029889
Cl16  Cl    Cl    0.673699 0.794354 0.102890 -0.029753
Cl17  Cl    Cl    0.794648 0.326032 0.102918 -0.029901
Cl18  Cl    Cl    0.825925 0.294761 0.602926 -0.029962
Cl19  Cl    Cl    0.704629 0.825342 0.602974 -0.030181
Cl20  Cl    Cl    0.174073 0.705252 0.602925 -0.029973
Cl21  Cl    Cl    0.294517 0.173853 0.602906 -0.029959
Cl22  Cl    Cl    0.825342 0.704628 0.602974 -0.030181
Cl23  Cl    Cl    0.865318 0.254984 0.876820 -0.018701
Cl24  Cl    Cl    0.705248 0.174077 0.602926 -0.029973
Cl25  Cl    Cl    0.173854 0.294517 0.602906 -0.029960
Cl26  Cl    Cl    0.294757 0.825929 0.602925 -0.029962
Cl27  Cl    Cl    0.745573 0.865873 0.877025 -0.018552
Cl28  Cl    Cl    0.132633 0.252924 0.877608 -0.018287
Cl29  Cl    Cl    0.254942 0.865358 0.876836 -0.018694
Cl30  Cl    Cl    0.865873 0.745573 0.877025 -0.018553
Cl31  Cl    Cl    0.745005 0.134680 0.876820 -0.018683
Cl32  Cl    Cl    0.634895 0.244790 0.376737 -0.018701
H1    H     H_    0.235776 0.671227 0.907882 0.098924
H2    H     H_    0.829799 0.736807 0.408196 0.098809
H3    H     H_    0.264029 0.828955 0.407939 0.098882
H4    H     H_    0.171331 0.264328 0.407855 0.098913
H5    H     H_    0.736806 0.829799 0.408196 0.098809
H6    H     H_    0.828962 0.264024 0.407941 0.098882
H7    H     H_    0.264328 0.171331 0.407855 0.098913
H8    H     H_    0.171038 0.735950 0.407937 0.098884
H9    H     H_    0.327256 0.234253 0.907419 0.099081
H10   H     H_    0.764200 0.328799 0.907892 0.098922
H11   H     H_    0.671611 0.764610 0.907753 0.098960
H12   H     H_    0.234254 0.327256 0.907419 0.099082
H13   H     H_    0.328770 0.764232 0.907882 0.098926
H14   H     H_    0.764610 0.671611 0.907753 0.098960
H15   H     H_    0.671198 0.235802 0.907891 0.098921
H16   H     H_    0.735959 0.171030 0.407940 0.098883
O1    O     O_3   0.500000 1.000000 0.000010 -0.453604
O2    O     O_R   0.500000 0.939270 0.393740 -0.532991
O3    O     O_R   0.060730 0.500000 0.393740 -0.533067
O4    O     O_R   0.500000 0.060730 0.393740 -0.533067
O5    O     O_R   0.500000 0.939230 0.106280 -0.529918
O6    O     O_R   0.060770 0.500000 0.106280 -0.529952
O7    O     O_R   0.500000 0.060770 0.106280 -0.529951
O8    O     O_R   0.939230 0.500000 0.106280 -0.529917
O9    O     O_R   1.000000 0.439230 0.606280 -0.529932
O10   O     O_R   0.560770 0.000000 0.606280 -0.529905
O11   O     O_R   1.000000 0.560770 0.606280 -0.529905
O12   O     O_3   1.000000 0.500000 0.000010 -0.453604
O13   O     O_R   0.439230 0.000000 0.606280 -0.529932
O14   O     O_R   0.646160 0.914520 0.972140 -0.529340
O15   O     O_R   0.085480 0.646160 0.972140 -0.529300
O16   O     O_R   0.353840 0.085480 0.972140 -0.529452
O17   O     O_R   0.914520 0.353840 0.972140 -0.529289
O18   O     O_R   0.646160 0.085480 0.972140 -0.529298
O19   O     O_R   0.085480 0.353840 0.972140 -0.529452
O20   O     O_R   0.353840 0.914520 0.972140 -0.529292
O21   O     O_R   0.914520 0.646160 0.972140 -0.529339
O22   O     O_R   0.146160 0.414520 0.472140 -0.529313
O23   O     O_3   1.000000 0.500000 0.500010 -0.453649
O24   O     O_R   0.585480 0.146160 0.472140 -0.529281
O25   O     O_R   0.853840 0.585480 0.472140 -0.529202
O26   O     O_R   0.414520 0.853840 0.472140 -0.529296
O27   O     O_R   0.146160 0.585480 0.472140 -0.529282
O28   O     O_R   0.585480 0.853840 0.472140 -0.529202
O29   O     O_R   0.853840 0.414520 0.472140 -0.529295
O30   O     O_R   0.414520 0.146160 0.472140 -0.529314
O31   O     O_R   0.414550 0.146120 0.027860 -0.531832
O32   O     O_R   0.853880 0.414550 0.027860 -0.531877
O33   O     O_R   0.585450 0.853880 0.027860 -0.531868
O34   O     O_3   0.500000 0.000000 0.500010 -0.453649
O35   O     O_R   0.146120 0.585450 0.027860 -0.531865
O36   O     O_R   0.414550 0.853880 0.027860 -0.531876
O37   O     O_R   0.853880 0.585450 0.027860 -0.531869
O38   O     O_R   0.585450 0.146120 0.027860 -0.531866
O39   O     O_R   0.146120 0.414550 0.027860 -0.531832
O40   O     O_R   0.914550 0.646120 0.527860 -0.531928
O41   O     O_R   0.353880 0.914550 0.527860 -0.531898
O42   O     O_R   0.085450 0.353880 0.527860 -0.531891
O43   O     O_R   0.646120 0.085450 0.527860 -0.531915
O44   O     O_R   0.914550 0.353880 0.527860 -0.531898
O45   O     O_R   0.439270 1.000000 0.893740 -0.533130
O46   O     O_R   0.353880 0.085450 0.527860 -0.531891
O47   O     O_R   0.085450 0.646120 0.527860 -0.531914
O48   O     O_R   0.646120 0.914550 0.527860 -0.531928
O49   O     O_R   1.000000 0.439270 0.893740 -0.533128
O50   O     O_R   0.560730 1.000000 0.893740 -0.533045
O51   O     O_R   1.000000 0.560730 0.893740 -0.533046
O52   O     O_R   0.939270 0.500000 0.393740 -0.532990
Zn1   Zn    Zn3+2 0.500000 0.913210 0.039810 0.960711
Zn2   Zn    Zn3+2 1.000000 0.586760 0.960200 0.958777
Zn3   Zn    Zn3+2 0.413240 0.000000 0.960200 0.958659
Zn4   Zn    Zn3+2 1.000000 0.413240 0.960200 0.958663
Zn5   Zn    Zn3+2 0.086760 0.500000 0.460200 0.958797
Zn6   Zn    Zn3+2 0.500000 0.086760 0.460200 0.958798
Zn7   Zn    Zn3+2 0.913240 0.500000 0.460200 0.958918
Zn8   Zn    Zn3+2 0.500000 0.913240 0.460200 0.958917
Zn9   Zn    Zn3+2 0.086790 0.500000 0.039810 0.960704
Zn10  Zn    Zn3+2 0.500000 0.086790 0.039810 0.960704
Zn11  Zn    Zn3+2 0.913210 0.500000 0.039810 0.960710
Zn12  Zn    Zn3+2 1.000000 0.413210 0.539810 0.960677
Zn13  Zn    Zn3+2 0.586790 0.000000 0.539810 0.960686
Zn14  Zn    Zn3+2 1.000000 0.586790 0.539810 0.960686
Zn15  Zn    Zn3+2 0.413210 0.000000 0.539810 0.960677
Zn16  Zn    Zn3+2 0.586760 0.000000 0.960200 0.958780

loop_
_geom_bond_atom_site_label_1
_geom_bond_atom_site_label_2
_ccdc_geom_bond_type
C74   C91   A    
C7    C83   T    
C41   O22   A    
O35   Zn9   S    
C24   O51   A    
C8    C13   S    
O48   Zn13  S    
C22   H8    S    
O34   Zn8   S    
C21   C66   S    
C25   O3    A    
C18   C21   S    
C68   C86   A    
C26   O4    A    
O46   Zn15  S    
O40   Zn14  S    
C47   O29   A    
C25   O52   A    
C70   C88   A    
C59   C77   A    
O17   Zn4   S    
C58   C76   A    
C94   Cl1   S    
C2    H9    S    
C6    C72   T    
C60   C78   A    
C44   O41   A    
C32   O33   A    
C36   O38   A    
C47   C80   S    
C15   Cl2   S    
C25   C53   S    
C73   C90   A    
C32   O14   A    
C11   Cl29  S    
O42   Zn12  S    
C40   O21   A    
O44   Zn12  S    
C66   C69   A    
C23   C51   S    
C27   O7    A    
C98   C103  A    
C3    Cl26  S    
C10   H12   S    
C92   C96   A    
C31   C83   S    
O41   Zn15  S    
O50   Zn16  S    
O28   Zn8   S    
O1    Zn16  S    
O2    Zn8   S    
O37   Zn11  S    
C16   Cl3   S    
C4    C28   S    
O1    Zn3   S    
C2    Cl12  S    
C3    C100  A    
C11   H13   S    
C26   C52   S    
C54   C71   A    
C31   O13   A    
C78   C96   A    
C97   Cl17  S    
C7    C17   S    
C101  Cl21  S    
O21   Zn2   S    
C42   C86   S    
C59   C94   S    
O23   Zn7   S    
C69   C87   A    
C27   C50   S    
C63   C80   A    
C15   H2    S    
C18   C69   S    
C19   Cl5   S    
O33   Zn1   S    
C31   O10   A    
C19   H5    S    
O7    Zn10  S    
C12   Cl30  S    
C84   C101  A    
C13   Cl31  S    
C17   C51   T    
C33   O15   A    
O47   Zn14  S    
C30   O11   A    
C34   O16   A    
C86   C103  A    
O1    Zn10  S    
C21   Cl7   S    
C79   C97   A    
C29   O8    A    
O18   Zn16  S    
C54   C59   A    
C9    Cl27  S    
O30   Zn6   S    
C41   C87   S    
O51   Zn2   S    
C29   C61   S    
C24   O49   A    
C67   C85   A    
C56   C74   A    
C40   O37   A    
C23   O50   A    
C5    C61   T    
C1    C6    S    
C43   C85   S    
O15   Zn2   S    
C14   C20   S    
C47   O44   A    
O3    Zn5   S    
C16   C70   S    
C21   H7    S    
O12   Zn4   S    
C44   O26   A    
O13   Zn15  S    
C57   C60   A    
C81   C99   A    
C10   Cl28  S    
C95   Cl15  S    
C35   O32   A    
O8    Zn11  S    
C66   C84   A    
C77   C95   A    
C45   C82   S    
C48   C84   S    
C48   O46   A    
O6    Zn9   S    
O12   Zn11  S    
C89   C95   A    
C15   C19   S    
C92   Cl13  S    
C64   C67   A    
C22   C65   S    
C41   O42   A    
C10   C55   S    
C12   H14   S    
C76   C93   A    
C46   C81   S    
C62   C79   A    
C8    Cl23  S    
C46   O48   A    
C71   C89   A    
C89   Cl9   S    
C19   C64   S    
C15   C67   S    
C46   O28   A    
O16   Zn3   S    
O26   Zn8   S    
C34   O31   A    
C33   O35   A    
C91   C97   A    
C18   H4    S    
C103  Cl24  S    
O38   Zn10  S    
C13   H15   S    
C11   C54   S    
C36   C74   S    
C75   C92   A    
O1    Zn1   S    
C12   C57   S    
C11   C94   S    
C37   O39   A    
O9    Zn12  S    
C43   O40   A    
C101  C104  A    
C22   Cl8   S    
C104  Cl25  S    
O34   Zn6   S    
C35   O17   A    
O22   Zn5   S    
C20   Cl6   S    
C26   O2    A    
C16   H3    S    
C34   C76   S    
C93   Cl14  S    
C14   H16   S    
C2    C10   S    
O14   Zn16  S    
O43   Zn13  S    
C90   C93   A    
C99   Cl19  S    
C20   H6    S    
C90   Cl10  S    
C24   C49   S    
C98   Cl18  S    
C37   C73   S    
C63   C68   A    
C43   O25   A    
C16   C22   S    
C80   C98   A    
C3    C88   A    
C82   C100  A    
C96   Cl16  S    
O20   Zn3   S    
C8    H10   S    
O32   Zn11  S    
C102  Cl22  S    
C23   O45   A    
C37   O19   A    
C30   C72   S    
C2    C58   S    
C38   O20   A    
C29   O6    A    
O12   Zn9   S    
C27   O5    A    
O34   Zn15  S    
O27   Zn5   S    
C36   O18   A    
C65   C70   A    
C40   C75   S    
C33   C77   S    
O29   Zn7   S    
C9    C60   S    
O23   Zn12  S    
C13   C56   S    
C20   C63   S    
C5    C39   S    
O12   Zn2   S    
O34   Zn13  S    
O39   Zn9   S    
C48   O30   A    
C28   C52   T    
O4    Zn6   S    
C57   C75   A    
C65   C82   A    
C39   C53   T    
C14   Cl32  S    
O36   Zn1   S    
O31   Zn10  S    
C38   O36   A    
O52   Zn7   S    
C35   C79   S    
O23   Zn14  S    
O49   Zn4   S    
C9    H11   S    
O25   Zn7   S    
C56   C62   A    
O23   Zn5   S    
C42   O43   A    
C9    C12   S    
C18   Cl4   S    
C64   C81   A    
O10   Zn13  S    
O45   Zn3   S    
C45   O27   A    
C32   C78   S    
C87   C104  A    
C55   C73   A    
O11   Zn14  S    
C99   C102  A    
C91   Cl11  S    
C55   C58   A    
C4    C50   T    
O24   Zn6   S    
C94   H1    S    
C14   C68   S    
C45   O47   A    
C42   O24   A    
C30   O9    A    
C100  Cl20  S    
O19   Zn4   S    
C44   C88   S    
C1    C49   T    
O5    Zn1   S    
C85   C102  A    
C38   C71   S    
C8    C62   S    
