data_mof_unit_38149.cif
_audit_creation_date              2012-12-11T15:50:42-0500
_audit_creation_method            fapswitch 2.2
_symmetry_space_group_name_H-M    P1
_symmetry_Int_Tables_number       1
_space_group_crystal_system       triclinic
_cell_length_a                    6.918106
_cell_length_b                    14.447297
_cell_length_c                    16.252382
_cell_angle_alpha                 89.999936
_cell_angle_beta                  89.999962
_cell_angle_gamma                 90.0
_cell_volume                      1624.39197194

loop_
_atom_site_label
_atom_site_type_symbol
_atom_type_description
_atom_site_fract_x
_atom_site_fract_y
_atom_site_fract_z
_atom_type_partial_charge
O1    O     O_R   0.638140 0.833910 0.163320 -0.536010
O2    O     O_R   0.361860 0.166090 0.836680 -0.536010
O3    O     O_R   0.361860 0.166090 0.663320 -0.535991
O4    O     O_R   0.638140 0.833910 0.336680 -0.535991
O5    O     O_R   0.138140 0.666090 0.336680 -0.535992
O6    O     O_R   0.861860 0.333910 0.663320 -0.535992
O7    O     O_R   0.861860 0.333910 0.836680 -0.536010
O8    O     O_R   0.138140 0.666090 0.163320 -0.536010
O9    O     O_R   0.308390 0.844930 0.336080 -0.517616
O10   O     O_R   0.691610 0.155070 0.663920 -0.517616
O11   O     O_R   0.691610 0.155070 0.836080 -0.517635
O12   O     O_R   0.308390 0.844930 0.163920 -0.517635
O13   O     O_R   0.808390 0.655070 0.163920 -0.517634
O14   O     O_R   0.191610 0.344930 0.836080 -0.517634
O15   O     O_R   0.191610 0.344930 0.663920 -0.517619
O16   O     O_R   0.808390 0.655070 0.336080 -0.517619
C1    C     C_R   0.477182 0.866982 0.365093 0.862116
C2    C     C_R   0.522818 0.133018 0.634907 0.862116
C3    C     C_R   0.522817 0.133017 0.865092 0.862089
C4    C     C_R   0.477183 0.866983 0.134908 0.862089
C5    C     C_R   0.977182 0.633017 0.134907 0.862084
C6    C     C_R   0.022818 0.366983 0.865093 0.862084
C7    C     C_R   0.022818 0.366982 0.634907 0.862123
C8    C     C_R   0.977182 0.633017 0.365093 0.862123
O17   O     O_3   0.471620 0.691320 0.250000 -0.367483
O18   O     O_3   0.528380 0.308680 0.750000 -0.367483
O19   O     O_3   0.971620 0.808680 0.250000 -0.367480
O20   O     O_3   0.028380 0.191320 0.750000 -0.367480
V1    V     V_3+5 0.196770 0.760880 0.250000 1.757273
V2    V     V_3+5 0.803230 0.239120 0.750000 1.757273
V3    V     V_3+5 0.696770 0.739120 0.250000 1.757272
V4    V     V_3+5 0.303230 0.260880 0.750000 1.757272
C9    C     C_R   0.865933 0.486376 0.436035 0.332013
C10   C     C_R   0.134067 0.513624 0.563965 0.332013
C11   C     C_R   0.134008 0.513647 0.936015 0.331967
C12   C     C_R   0.865992 0.486353 0.063985 0.331967
C13   C     C_R   0.366003 0.013648 0.063986 0.331960
C14   C     C_R   0.633997 0.986352 0.936014 0.331960
C15   C     C_R   0.634084 0.986380 0.563961 0.332025
C16   C     C_R   0.365916 0.013620 0.436038 0.332025
C17   C     C_R   0.879203 0.421617 0.500662 0.353538
C18   C     C_R   0.120797 0.578383 0.499338 0.353538
C19   C     C_R   0.120738 0.578405 0.000643 0.353531
C20   C     C_R   0.879262 0.421595 0.999357 0.353531
C21   C     C_R   0.379269 0.078405 0.999357 0.353534
C22   C     C_R   0.620731 0.921595 0.000643 0.353534
C23   C     C_R   0.620810 0.921620 0.499335 0.353536
C24   C     C_R   0.379189 0.078380 0.500665 0.353536
C25   C     C_R   0.012442 0.434879 0.565679 -0.323584
C26   C     C_R   0.987558 0.565121 0.434321 -0.323584
C27   C     C_R   0.987558 0.565120 0.065679 -0.323579
C28   C     C_R   0.012442 0.434880 0.934321 -0.323579
C29   C     C_R   0.512440 0.065120 0.934320 -0.323574
C30   C     C_R   0.487560 0.934880 0.065680 -0.323574
C31   C     C_R   0.487557 0.934879 0.434322 -0.323584
C32   C     C_R   0.512443 0.065121 0.565678 -0.323584
Cl1   Cl    Cl    0.699313 0.465116 0.355687 -0.411491
Cl2   Cl    Cl    0.300687 0.534884 0.644313 -0.411491
Cl3   Cl    Cl    0.300543 0.534933 0.855639 -0.411484
Cl4   Cl    Cl    0.699457 0.465067 0.144361 -0.411484
Cl5   Cl    Cl    0.199486 0.034937 0.144365 -0.411493
Cl6   Cl    Cl    0.800514 0.965063 0.855635 -0.411493
Cl7   Cl    Cl    0.800730 0.965127 0.644303 -0.411486
Cl8   Cl    Cl    0.199269 0.034873 0.355697 -0.411486
Cl9   Cl    Cl    0.734193 0.320546 0.496259 -0.453843
Cl10  Cl    Cl    0.265807 0.679454 0.503741 -0.453843
Cl11  Cl    Cl    0.265665 0.679505 0.996220 -0.453814
Cl12  Cl    Cl    0.734335 0.320495 0.003780 -0.453814
Cl13  Cl    Cl    0.234345 0.179502 0.003778 -0.453821
Cl14  Cl    Cl    0.765655 0.820498 0.996222 -0.453821
Cl15  Cl    Cl    0.765830 0.820549 0.503738 -0.453838
Cl16  Cl    Cl    0.234170 0.179451 0.496262 -0.453838

loop_
_geom_bond_atom_site_label_1
_geom_bond_atom_site_label_2
_ccdc_geom_bond_type
O17   V3    S    
O18   V4    S    
O12   V1    S    
O19   V1    S    
C10   C18   A    
C19   C27   A    
O15   V4    S    
O16   V3    S    
O5    C8    A    
O11   C3    A    
O8    V1    S    
O2    V4    S    
C6    C28   S    
C7    C25   S    
O1    V3    S    
O3    C2    A    
C11   Cl3   S    
C16   C24   A    
O11   V2    S    
C10   C25   A    
C11   C19   A    
C1    C31   S    
O9    V1    S    
C3    C29   S    
O15   C7    A    
C21   C29   A    
O16   C8    A    
O7    V2    S    
O17   V1    S    
O12   C4    A    
C24   Cl16  S    
C17   C25   A    
O5    V1    S    
C8    C26   S    
C22   Cl14  S    
C21   Cl13  S    
O20   V4    S    
C4    C30   S    
C17   Cl9   S    
C9    C26   A    
C15   C23   A    
O19   V3    S    
O10   V2    S    
C15   C32   A    
C16   C31   A    
C22   C30   A    
O8    C5    A    
O13   C5    A    
C10   Cl2   S    
C23   Cl15  S    
C12   C27   A    
C18   C26   A    
C13   C30   A    
O9    C1    A    
O6    V2    S    
O18   V2    S    
C12   C20   A    
O4    C1    A    
C13   C21   A    
C5    C27   S    
C23   C31   A    
C24   C32   A    
O1    C4    A    
C9    Cl1   S    
O2    C3    A    
O13   V3    S    
O14   V4    S    
C12   Cl4   S    
C13   Cl5   S    
C2    C32   S    
O7    C6    A    
C15   Cl7   S    
C16   Cl8   S    
C9    C17   A    
O14   C6    A    
O20   V2    S    
C20   C28   A    
C14   C29   A    
O10   C2    A    
O6    C7    A    
O3    V4    S    
C14   C22   A    
O4    V3    S    
C20   Cl12  S    
C19   Cl11  S    
C11   C28   A    
C18   Cl10  S    
C14   Cl6   S    
