data_mof_unit_49702.cif
_audit_creation_date              2012-12-10T21:07:47-0500
_audit_creation_method            fapswitch 2.2
_symmetry_space_group_name_H-M    P1
_symmetry_Int_Tables_number       1
_space_group_crystal_system       triclinic
_cell_length_a                    8.767213
_cell_length_b                    17.674005
_cell_length_c                    16.97266
_cell_angle_alpha                 88.082416
_cell_angle_beta                  95.579939
_cell_angle_gamma                 93.080253
_cell_volume                      2612.64486949

loop_
_atom_site_label
_atom_site_type_symbol
_atom_type_description
_atom_site_fract_x
_atom_site_fract_y
_atom_site_fract_z
_atom_type_partial_charge
C1    C     C_R   0.497345 0.353422 0.500969 0.901823
C2    C     C_R   0.401417 0.452742 0.245320 0.289502
C3    C     C_R   0.608837 0.544685 0.837297 -0.310308
C4    C     C_R   0.405305 0.454405 0.161840 -0.328518
C5    C     C_R   0.508528 0.498303 0.877880 0.041426
C6    C     C_R   0.518525 0.497104 0.125374 0.061064
C7    C     C_1   0.514923 0.500324 0.965483 -0.027768
C8    C     C_1   0.517021 0.499269 0.038010 -0.020651
C9    C     C_R   0.203436 0.504346 0.480753 0.956932
C10   C     C_R   0.796742 0.497921 0.518665 0.952580
C11   C     C_2   0.044562 0.519632 0.473571 -0.063735
C12   C     C_R   0.499325 0.646693 0.498739 0.892379
C13   C     C_2   0.953991 0.481678 0.523370 -0.069059
C14   C     C_R   0.541138 0.845196 0.573517 0.203414
C15   C     C_R   0.390025 0.156387 0.430851 0.207527
C16   C     C_R   0.544476 0.766807 0.567873 -0.383154
C17   C     C_R   0.405548 0.235245 0.435487 -0.377536
C18   C     C_R   0.497085 0.729654 0.497463 -0.095338
C19   C     C_R   0.483691 0.270648 0.501464 -0.092805
C20   C     C_R   0.443731 0.771835 0.429600 0.440464
C21   C     C_R   0.546717 0.226811 0.565626 0.430596
C22   C     C_R   0.439028 0.850293 0.434181 -0.333195
C23   C     C_1   0.471348 0.966168 0.502135 -0.023910
C24   C     C_R   0.532038 0.148209 0.562047 -0.341823
C25   C     C_R   0.485497 0.886760 0.504809 0.110248
C26   C     C_R   0.456723 0.113036 0.495773 0.109948
C27   C     C_3   0.988281 0.583408 0.416412 -0.482770
C28   C     C_3   0.110742 0.642662 0.394079 -0.758485
C29   C     C_3   0.007455 0.417871 0.579677 -0.507424
C30   C     C_3   0.887279 0.354853 0.593843 -0.746119
C31   C     C_3   0.596960 0.875760 0.655041 -0.400256
C32   C     C_3   0.611757 0.961198 0.665086 -0.889081
C33   C     C_3   0.301372 0.126953 0.355092 -0.404571
C34   C     C_1   0.460648 0.033105 0.497643 -0.024727
C35   C     C_3   0.282715 0.041591 0.344012 -0.880239
C36   C     C_3   0.298324 0.396322 0.879236 -0.384812
C37   C     C_3   0.382303 0.331754 0.924311 -0.861183
C38   C     C_3   0.783017 0.563644 0.144492 -0.387596
C39   C     C_3   0.860634 0.500377 0.106482 -0.900985
C40   C     C_3   0.310259 0.387471 0.704225 -0.391368
C41   C     C_3   0.367775 0.307960 0.721271 -0.784497
C42   C     C_3   0.638610 0.625561 0.292080 -0.333903
C43   C     C_3   0.703683 0.692072 0.243160 -0.966804
C44   C     C_3   0.727230 0.597955 0.718968 -0.340534
C45   C     C_R   0.406279 0.448575 0.833503 0.116361
C46   C     C_3   0.741339 0.678078 0.751973 -0.977953
C47   C     C_3   0.282242 0.398891 0.278250 -0.377330
C48   C     C_3   0.119585 0.422059 0.252352 -0.895408
C49   C     C_R   0.630454 0.537485 0.174861 0.142551
C50   C     C_R   0.407414 0.448284 0.748167 0.189745
C51   C     C_R   0.600647 0.549150 0.255212 0.137300
C52   C     C_R   0.603445 0.547088 0.753285 0.272612
H1    H     H_    0.584551 0.734057 0.619711 0.193119
H2    H     H_    0.932864 0.557720 0.361308 0.236454
H3    H     H_    0.904601 0.615920 0.444850 0.206073
H4    H     H_    0.803839 0.374688 0.632614 0.313027
H5    H     H_    0.828255 0.335533 0.536611 0.257866
H6    H     H_    0.943806 0.305973 0.624902 0.240126
H7    H     H_    0.100949 0.388535 0.555810 0.214968
H8    H     H_    0.044233 0.445195 0.636365 0.224890
H9    H     H_    0.689637 0.988034 0.623246 0.264509
H10   H     H_    0.496931 0.985459 0.657660 0.264009
H11   H     H_    0.662773 0.973365 0.726106 0.245403
H12   H     H_    0.355016 0.269495 0.386766 0.158610
H13   H     H_    0.519208 0.851356 0.698381 0.207567
H14   H     H_    0.712438 0.854037 0.672741 0.207888
H15   H     H_    0.396419 0.017515 0.341587 0.260362
H16   H     H_    0.219418 0.013633 0.391491 0.266611
H17   H     H_    0.214373 0.030366 0.286638 0.244821
H18   H     H_    0.184378 0.149062 0.350890 0.206091
H19   H     H_    0.358434 0.151847 0.303796 0.204497
H20   H     H_    0.357242 0.773954 0.319326 0.328693
H21   H     H_    0.663818 0.222110 0.669190 0.325143
H22   H     H_    0.461219 0.305727 0.887020 0.261167
H23   H     H_    0.396321 0.883070 0.382325 0.142893
H24   H     H_    0.450141 0.352158 0.978647 0.260118
H25   H     H_    0.297248 0.287370 0.942558 0.240096
H26   H     H_    0.243916 0.429931 0.922068 0.197475
H27   H     H_    0.199804 0.371292 0.841917 0.199606
H28   H     H_    0.844413 0.445818 0.139716 0.267839
H29   H     H_    0.814814 0.493339 0.043875 0.264675
H30   H     H_    0.985332 0.515312 0.106458 0.250997
H31   H     H_    0.766834 0.611696 0.101130 0.209451
H32   H     H_    0.865304 0.581712 0.194841 0.224282
H33   H     H_    0.493139 0.310165 0.738735 0.291012
H34   H     H_    0.582715 0.114283 0.611066 0.147433
H35   H     H_    0.307991 0.278763 0.769157 0.236381
H36   H     H_    0.340522 0.273241 0.667996 0.258048
H37   H     H_    0.190882 0.387446 0.719059 0.163371
H38   H     H_    0.305055 0.399315 0.641163 0.262826
H39   H     H_    0.829491 0.690182 0.241996 0.255985
H40   H     H_    0.643984 0.694847 0.182473 0.267283
H41   H     H_    0.684581 0.745867 0.271960 0.274286
H42   H     H_    0.525356 0.644351 0.303003 0.292069
H43   H     H_    0.709593 0.619525 0.348669 0.227858
H44   H     H_    0.626238 0.700633 0.754890 0.268772
H45   H     H_    0.693649 0.579299 0.872341 0.173555
H46   H     H_    0.804498 0.678583 0.811861 0.262492
H47   H     H_    0.808033 0.716403 0.713301 0.251034
H48   H     H_    0.839226 0.571381 0.732343 0.190798
H49   H     H_    0.708935 0.605023 0.654901 0.259829
H50   H     H_    0.107223 0.482772 0.264224 0.281393
H51   H     H_    0.092169 0.411922 0.188383 0.252120
H52   H     H_    0.036472 0.387163 0.285382 0.252578
H53   H     H_    0.296282 0.340875 0.257569 0.170889
H54   H     H_    0.293872 0.394959 0.342668 0.260140
H55   H     H_    0.322460 0.419876 0.125279 0.166091
H56   H     H_    0.178072 0.663912 0.448328 0.258520
H57   H     H_    0.186947 0.619016 0.353665 0.299266
H58   H     H_    0.054676 0.691266 0.362272 0.239402
N1    N     N_R   0.500040 0.500030 0.707230 -0.143414
N2    N     N_R   0.499960 0.499970 0.292770 -0.147841
O1    O     O_R   0.500000 0.389130 0.566570 -0.582089
O2    O     O_3   0.625023 0.261268 0.630181 -0.807587
O3    O     O_R   0.500000 0.610870 0.433430 -0.608237
O4    O     O_R   0.499990 0.389100 0.433480 -0.653295
O5    O     O_R   0.500010 0.610900 0.566520 -0.644098
O6    O     O_R   0.271750 0.500010 0.550980 -0.662415
O7    O     O_R   0.728250 0.499990 0.449020 -0.641654
O8    O     O_R   0.271740 0.499980 0.417890 -0.626061
O9    O     O_R   0.728260 0.500020 0.582110 -0.648019
O10   O     O_3   0.390799 0.735870 0.360762 -0.814602
Zn1   Zn    Zn3+2 0.500010 0.500020 0.588860 0.919463
Zn2   Zn    Zn3+2 0.499990 0.499980 0.411140 0.914467

loop_
_geom_bond_atom_site_label_1
_geom_bond_atom_site_label_2
_ccdc_geom_bond_type
C31   H14   S    
C46   H47   S    
C51   N2    A    
C38   H31   S    
C44   H48   S    
C14   C31   S    
C37   H22   S    
C10   O9    A    
C49   C51   A    
C27   H2    S    
C7    C8    T    
C38   C49   S    
O7    Zn2   S    
C2    N2    A    
C45   C50   A    
C13   C29   S    
C36   C37   S    
C19   C21   A    
C24   C26   A    
C32   H9    S    
N2    Zn2   S    
C17   H12   S    
C38   C39   S    
C27   H3    S    
C48   H52   S    
C30   H5    S    
C15   C17   A    
C16   H1    S    
C10   O7    A    
C33   C35   S    
C26   C34   S    
C31   C32   S    
C47   H53   S    
C22   C25   A    
C1    O4    A    
C11   C27   S    
C40   H37   S    
C20   O10   S    
C42   C51   S    
C12   O3    A    
H20   O10   S    
C44   C52   S    
C46   H46   S    
C6    C49   A    
C9    O6    A    
C1    O1    A    
C22   H23   S    
C44   C46   S    
C41   H35   S    
C4    H55   S    
C1    C19   S    
N1    Zn1   S    
C42   H43   S    
C29   H7    S    
C39   H29   S    
C4    C6    A    
C5    C7    S    
C15   C26   A    
C6    C8    S    
C52   N1    A    
C28   H58   S    
C48   H51   S    
C37   H25   S    
C10   C13   S    
C43   H39   S    
H21   O2    S    
C2    C4    A    
C29   C30   S    
C3    H45   S    
C47   C48   S    
O1    Zn1   S    
C29   H8    S    
C35   H15   S    
C3    C52   A    
C47   H54   S    
C48   H50   S    
C36   C45   S    
C9    C11   S    
C33   H18   S    
C40   C41   S    
C37   H24   S    
C20   C22   A    
C28   H57   S    
C14   C16   A    
C42   C43   S    
C31   H13   S    
C41   H36   S    
C23   C34   T    
O3    Zn2   S    
O4    Zn2   S    
C38   H32   S    
C42   H42   S    
C39   H30   S    
C21   O2    S    
C3    C5    A    
C36   H27   S    
C44   H49   S    
C30   H4    S    
C2    C47   S    
C32   H11   S    
C41   H33   S    
C43   H40   S    
C43   H41   S    
C39   H28   S    
O5    Zn1   S    
C32   H10   S    
C36   H26   S    
C11   C13   D    
C5    C45   A    
C35   H16   S    
C28   H56   S    
C40   C50   S    
C30   H6    S    
C50   N1    A    
C17   C19   A    
C18   C20   A    
O6    Zn1   S    
C23   C25   S    
C14   C25   A    
O9    Zn1   S    
C33   H19   S    
C12   O5    A    
C46   H44   S    
C35   H17   S    
C16   C18   A    
C21   C24   A    
C12   C18   S    
C27   C28   S    
C9    O8    A    
C40   H38   S    
C24   H34   S    
C15   C33   S    
O8    Zn2   S    
