data_mof_unit_63324.cif
_audit_creation_date              2012-12-11T14:43:44-0500
_audit_creation_method            fapswitch 2.2
_symmetry_space_group_name_H-M    P1
_symmetry_Int_Tables_number       1
_space_group_crystal_system       triclinic
_cell_length_a                    8.229704
_cell_length_b                    15.034923
_cell_length_c                    18.789006
_cell_angle_alpha                 96.916272
_cell_angle_beta                  92.932183
_cell_angle_gamma                 99.252697
_cell_volume                      2271.96671412

loop_
_atom_site_label
_atom_site_type_symbol
_atom_type_description
_atom_site_fract_x
_atom_site_fract_y
_atom_site_fract_z
_atom_type_partial_charge
Ba1   Ba    Ba6+2 0.852920 0.542430 0.466290 1.650867
Ba2   Ba    Ba6+2 0.336920 0.457650 0.533720 1.648267
C1    C     C_3   0.668102 0.863534 0.278933 -0.323829
C2    C     C_3   0.439744 0.514432 0.245402 -0.017613
C3    C     C_2   0.379456 0.521925 0.168808 -0.118838
C4    C     C_3   0.150795 0.735121 0.269465 0.294441
C5    C     C_2   0.215615 0.500847 0.147804 -0.082661
C6    C     C_2   0.097670 0.477096 0.204402 -0.131871
C7    C     C_1   0.153259 0.480481 0.272914 0.075296
C8    C     C_R   0.046146 0.494551 0.929368 0.459121
C9    C     C_R   0.154940 0.499870 0.070581 0.458326
C10   C     C_R   0.090255 0.527425 0.800902 -0.127659
C11   C     C_R   0.034556 0.519368 0.727604 0.063538
C12   C     C_3   0.657492 0.771610 0.305964 0.318765
C13   C     C_R   0.769968 0.438847 0.754217 0.012315
C14   C     C_R   0.824351 0.446313 0.827138 -0.141447
C15   C     C_R   0.986777 0.489308 0.851592 -0.072749
C16   C     C_3   0.114402 0.752799 0.192806 -0.332589
C17   C     C_R   0.877270 0.472120 0.704909 -0.281673
C18   C     C_R   0.765344 0.233260 0.525052 -0.231173
C19   C     C_R   0.862360 0.172512 0.546704 0.004487
C20   C     C_R   0.803324 0.078477 0.533406 -0.140147
C21   C     C_R   0.640002 0.044988 0.502471 0.037986
C22   C     C_R   0.542257 0.110041 0.485954 -0.077589
C23   C     C_3   0.445926 0.317289 0.313864 0.318797
C24   C     C_R   0.609685 0.201618 0.491369 0.085173
C25   C     C_R   0.428293 0.909390 0.439813 0.316441
C26   C     C_R   0.349731 0.818397 0.439322 -0.062432
C27   C     C_R   0.582345 0.788369 0.511036 0.072144
C28   C     C_3   0.250559 0.734632 0.620137 0.310886
C29   C     C_R   0.646069 0.881367 0.522617 -0.187926
C30   C     C_R   0.571079 0.944313 0.487678 0.014217
C31   C     C_R   0.432611 0.757796 0.471129 -0.318231
C32   C     C_3   0.279575 0.837668 0.637932 -0.381784
C33   C     C_3   0.968966 0.252100 0.368521 0.610225
C34   C     C_3   0.401691 0.282537 0.234629 -0.389444
C35   C     C_3   0.052879 0.167560 0.357584 0.230291
C36   C     C_3   0.741034 0.660701 0.682541 0.308333
C37   C     C_3   0.762208 0.687170 0.763629 -0.384076
C38   C     C_3   0.064434 0.266707 0.725662 0.348999
C39   C     C_3   0.065769 0.239490 0.800982 -0.355812
C40   C     C_3   0.535560 0.217352 0.689213 0.351085
C41   C     C_3   0.497411 0.122559 0.711168 -0.358550
C42   C     C_2   0.303404 0.522120 0.295473 -0.265233
H1    H     H_    0.774048 0.770897 0.338089 0.117847
H2    H     H_    0.689611 0.918432 0.325232 0.125742
H3    H     H_    0.864783 0.745458 0.777615 0.127060
H4    H     H_    0.790881 0.629427 0.790592 0.067181
H5    H     H_    0.646485 0.706660 0.783627 0.131134
H6    H     H_    0.552765 0.763009 0.340462 -0.035831
H7    H     H_    0.550984 0.867300 0.248213 0.115585
H8    H     H_    0.337261 0.341552 0.337133 -0.018598
H9    H     H_    0.551293 0.374458 0.318821 0.049503
H10   H     H_    0.305217 0.220859 0.228871 0.127642
H11   H     H_    0.353017 0.334554 0.206726 0.065574
H12   H     H_    0.379252 0.859838 0.681565 0.122564
H13   H     H_    0.512779 0.265267 0.208621 0.125268
H14   H     H_    0.771945 0.873765 0.243649 0.150843
H15   H     H_    0.168926 0.705248 0.154879 0.081972
H16   H     H_    0.161333 0.327257 0.725509 0.099514
H17   H     H_    0.941787 0.284534 0.712282 -0.055921
H18   H     H_    0.187658 0.221783 0.816195 0.148269
H19   H     H_    0.042605 0.296789 0.840040 0.079386
H20   H     H_    0.967825 0.179895 0.803088 0.112635
H21   H     H_    0.669503 0.232346 0.681427 -0.070334
H22   H     H_    0.464068 0.217458 0.637540 0.081788
H23   H     H_    0.316086 0.870081 0.589930 0.056480
H24   H     H_    0.531226 0.072195 0.668629 0.062907
H25   H     H_    0.363620 0.104864 0.718636 0.149211
H26   H     H_    0.095718 0.663768 0.273733 0.075327
H27   H     H_    0.569341 0.119606 0.762228 0.115571
H28   H     H_    0.470174 0.537338 0.130160 0.110946
H29   H     H_    0.967405 0.454789 0.188784 0.119635
H30   H     H_    0.212832 0.564063 0.818229 0.110182
H31   H     H_    0.739885 0.418687 0.864363 0.107637
H32   H     H_    0.327322 0.562059 0.348201 0.058532
H33   H     H_    0.834340 0.466067 0.648862 0.066150
H34   H     H_    0.164504 0.860519 0.655567 0.129821
H35   H     H_    0.886764 0.033430 0.546564 0.085339
H36   H     H_    0.752780 0.903158 0.560114 0.086197
H37   H     H_    0.286838 0.744801 0.280442 -0.032193
H38   H     H_    0.413858 0.091996 0.467694 0.150798
H39   H     H_    0.376671 0.687059 0.467651 0.080841
H40   H     H_    0.814543 0.305162 0.530635 0.065054
H41   H     H_    0.978876 0.742260 0.179883 0.147042
H42   H     H_    0.168612 0.823691 0.186353 0.123226
H43   H     H_    0.367449 0.712512 0.605845 0.006430
H44   H     H_    0.156988 0.715016 0.573910 0.072328
H45   H     H_    0.014568 0.289989 0.422082 0.005138
H46   H     H_    0.758422 0.198313 0.317724 0.350682
H47   H     H_    0.024426 0.135281 0.254136 0.310082
H48   H     H_    0.304367 0.923791 0.351876 0.323710
H49   H     H_    0.037712 0.130887 0.405351 0.073180
H50   H     H_    0.186562 0.187291 0.352681 0.050757
H51   H     H_    0.858041 0.643409 0.663318 0.007933
H52   H     H_    0.641051 0.600873 0.670104 0.065485
N1    N     N_R   0.207146 0.525552 0.952179 -0.238149
N2    N     N_R   0.260137 0.528036 0.020979 -0.240585
N3    N     N_R   0.993799 0.469351 0.047876 -0.242166
N4    N     N_R   0.940900 0.466610 0.979022 -0.242556
O1    O     O_2   0.864880 0.449170 0.328210 -0.459255
O2    O     O_2   0.203557 0.180149 0.548843 -0.505951
O3    O     O_3   0.096712 0.194141 0.677031 -0.600587
O4    O     O_3   0.117570 0.450680 0.415600 -0.494622
O5    O     O_3   0.583420 0.609160 0.536870 -0.491657
O6    O     O_2   0.332740 0.278830 0.463690 -0.502594
O7    O     O_3   0.489501 0.245659 0.347819 -0.600089
O8    O     O_2   0.433617 0.447925 0.754117 -0.484316
O9    O     O_3   0.490391 0.280708 0.742728 -0.595870
O10   O     O_3   0.658480 0.614010 0.372860 -0.490309
O11   O     O_2   0.786530 0.565862 0.250286 -0.486817
O12   O     O_3   0.701561 0.734775 0.650987 -0.633578
O13   O     O_3   0.001218 0.304237 0.311992 -0.673943
O14   O     O_3   0.632273 0.702580 0.247256 -0.603313
O15   O     O_2   0.856970 0.721200 0.536350 -0.464159
O16   O     O_3   0.083060 0.660780 0.408640 -0.486596
O17   O     O_2   0.012907 0.823134 0.451770 -0.474498
O18   O     O_3   0.799503 0.223220 0.367963 -0.754595
O19   O     O_3   0.982742 0.107900 0.296590 -0.715092
O20   O     O_3   0.374811 0.962605 0.391522 -0.747431
O21   O     O_3   0.081080 0.795476 0.316944 -0.603253
O22   O     O_2   0.324830 0.550860 0.671840 -0.461697
O23   O     O_3   0.072140 0.549400 0.584410 -0.496883
O24   O     O_3   0.531230 0.386060 0.627150 -0.492041
O25   O     O_3   0.196738 0.696218 0.680734 -0.634242
O26   O     O_3   0.606300 0.390910 0.463140 -0.468438
O27   O     O_3   0.106650 0.339290 0.591370 -0.492031
P1    P     P_3+3 0.032340 0.422550 0.338860 0.995303
P2    P     P_3+3 0.682000 0.708060 0.557320 0.989684
P3    P     P_3+3 0.132841 0.776906 0.404808 0.949510
P4    P     P_3+3 0.157370 0.577530 0.661150 0.983030
P5    P     P_3+3 0.068344 0.220640 0.589537 0.942113
P6    P     P_3+3 0.629473 0.597316 0.278962 0.962025
P7    P     P_3+3 0.512014 0.277542 0.440870 1.017289
P8    P     P_3+3 0.556399 0.389952 0.720620 0.948439

loop_
_geom_bond_atom_site_label_1
_geom_bond_atom_site_label_2
_ccdc_geom_bond_type
C32   H12   S    
C38   H16   S    
C10   H30   S    
O9    P8    S    
C14   H31   S    
Ba1   P1    S    
O21   P3    S    
N1    N2    A    
C29   H36   S    
O13   P1    S    
Ba2   O23   S    
C5    C9    S    
C16   H42   S    
C9    N2    A    
H46   O18   S    
O2    P5    D    
C33   C35   S    
C40   O9    S    
C23   H9    S    
C20   H35   S    
O7    P7    S    
Ba1   P2    S    
C36   C37   S    
C13   P8    S    
C8    C15   S    
C13   C14   A    
C27   C31   A    
O1    P1    D    
C9    N3    A    
Ba1   Ba2   S    
C17   H33   S    
C22   H38   S    
O27   P5    S    
C27   P2    S    
C29   C30   A    
C6    C7    D    
C35   O19   S    
C10   C15   A    
C40   H21   S    
C21   C22   A    
Ba1   O16   S    
O12   P2    S    
O3    P5    S    
Ba2   O27   S    
C28   O25   S    
C41   H25   S    
C4    H37   S    
C19   C20   A    
C39   H18   S    
C12   H1    S    
Ba2   O22   S    
C4    C16   S    
C7    P1    S    
C28   C32   S    
C16   H41   S    
C5    C6    S    
Ba1   O26   S    
O8    P8    D    
C34   H13   S    
C3    C5    D    
C11   C17   A    
O11   P6    D    
O5    P2    S    
C2    C42   S    
C25   O20   S    
Ba2   O6    S    
C38   H17   S    
C36   H51   S    
C8    N1    A    
C13   C17   A    
Ba1   O23   S    
C19   P5    S    
C24   P7    S    
Ba1   O10   S    
O25   P4    S    
N3    N4    A    
O4    P1    S    
Ba2   O4    S    
Ba2   P4    S    
C11   P4    S    
C35   H49   S    
C10   C11   A    
C8    N4    A    
O17   P3    D    
C31   H39   S    
Ba1   O4    S    
C1    C12   S    
C33   H45   S    
C38   C39   S    
C37   H5    S    
C26   C31   A    
Ba1   O1    S    
C18   H40   S    
H47   O19   S    
C40   C41   S    
C39   H19   S    
C36   O12   S    
Ba2   O26   S    
O22   P4    D    
C23   O7    S    
C37   H3    S    
O15   P2    D    
C4    H26   S    
C7    C42   D    
C41   H27   S    
C1    H2    S    
O24   P8    S    
O23   P4    S    
C25   C30   A    
C22   C24   A    
C2    C3    S    
C33   O18   S    
C32   H23   S    
Ba2   O24   S    
C3    H28   S    
C41   H24   S    
Ba2   O5    S    
C39   H20   S    
C21   C30   S    
H48   O20   S    
C23   H8    S    
C27   C29   A    
C34   H11   S    
C12   O14   S    
C32   H34   S    
C38   O3    S    
C12   H6    S    
C18   C24   A    
C6    H29   S    
O14   P6    S    
C1    H7    S    
C35   H50   S    
C33   O13   S    
C26   P3    S    
C34   H10   S    
C23   C34   S    
C1    H14   S    
C16   H15   S    
O6    P7    D    
O16   P3    S    
C18   C19   A    
O26   P7    S    
C36   H52   S    
C25   C26   A    
C40   H22   S    
C20   C21   A    
C2    P6    S    
O10   P6    S    
Ba1   O15   S    
C4    O21   S    
C42   H32   S    
C28   H43   S    
C28   H44   S    
C14   C15   A    
Ba1   O5    S    
C37   H4    S    
