data_mof_unit_39508.cif
_audit_creation_date              2012-12-10T19:07:03-0500
_audit_creation_method            fapswitch 2.2
_symmetry_space_group_name_H-M    P1
_symmetry_Int_Tables_number       1
_space_group_crystal_system       triclinic
_cell_length_a                    27.786824
_cell_length_b                    10.850413
_cell_length_c                    9.564823
_cell_angle_alpha                 89.65207
_cell_angle_beta                  89.123984
_cell_angle_gamma                 91.967605
_cell_volume                      2881.6800032

loop_
_atom_site_label
_atom_site_type_symbol
_atom_type_description
_atom_site_fract_x
_atom_site_fract_y
_atom_site_fract_z
_atom_type_partial_charge
C1    C     C_R   0.498393 0.262414 0.500211 0.775255
C2    C     C_R   0.278380 0.458814 0.393990 -0.095800
C3    C     C_R   0.254174 0.516297 0.504282 0.339509
C4    C     C_R   0.101841 0.507455 0.518031 -0.053303
C5    C     C_R   0.127026 0.397108 0.514484 -0.000943
C6    C     C_R   0.101373 0.284186 0.512480 -0.142908
C7    C     C_R   0.127961 0.620698 0.520413 -0.096447
C8    C     C_R   0.355065 0.510440 0.500178 -0.037032
C9    C     C_R   0.645155 0.488773 0.497812 -0.045805
C10   C     C_R   0.973816 0.386147 0.526753 0.063055
C11   C     C_R   0.975021 0.612127 0.499205 -0.022285
C12   C     C_R   0.407663 0.503042 0.500481 0.787454
C13   C     C_R   0.949086 0.497602 0.510785 0.063293
C14   C     C_R   0.946393 0.275208 0.547743 -0.218050
C15   C     C_R   0.896441 0.273215 0.546695 -0.155373
C16   C     C_R   0.871818 0.381538 0.524521 0.005646
C17   C     C_R   0.897932 0.494294 0.505669 -0.110519
C18   C     C_R   0.872850 0.603372 0.481797 -0.122080
C19   C     C_R   0.822024 0.596824 0.481875 0.552682
C20   C     C_R   0.821378 0.379465 0.521111 0.529257
C21   C     C_R   0.719356 0.453995 0.620724 -0.128426
C22   C     C_R   0.669225 0.456882 0.620419 -0.202189
C23   C     C_R   0.497878 0.737129 0.500085 0.780132
C24   C     C_R   0.671949 0.512363 0.374339 -0.236451
C25   C     C_R   0.722051 0.509762 0.374902 -0.112974
C26   C     C_R   0.745976 0.482137 0.498461 0.349012
C27   C     C_R   0.024930 0.389024 0.520564 0.063936
C28   C     C_R   0.050681 0.504481 0.518779 0.016043
C29   C     C_R   0.025819 0.616832 0.517988 -0.055718
C30   C     C_R   0.051373 0.279980 0.514859 -0.218498
C31   C     C_R   0.103297 0.730063 0.532939 -0.216643
C32   C     C_R   0.949397 0.717446 0.463320 -0.265229
C33   C     C_R   0.899270 0.714529 0.455246 0.438002
C34   C     C_R   0.592422 0.497023 0.499190 0.795001
C35   C     C_R   0.053128 0.729054 0.538728 0.406076
C36   C     C_R   0.501166 0.062972 0.624024 -0.056039
C37   C     C_R   0.496778 0.128911 0.499741 -0.087021
C38   C     C_R   0.492449 0.063956 0.373860 -0.204370
C39   C     C_R   0.491299 0.935597 0.374668 -0.179387
C40   C     C_R   0.495841 0.870184 0.500707 -0.035776
C41   C     C_R   0.501427 0.935663 0.625390 -0.036004
C42   C     C_3   0.473730 0.925927 0.762257 -0.093664
C43   C     C_3   0.472050 0.067027 0.758337 0.587585
C44   C     C_R   0.540431 0.536160 0.070242 0.075142
C45   C     C_R   0.177582 0.402159 0.512329 0.526800
C46   C     C_R   0.463725 0.443833 0.078124 -0.159366
C47   C     C_R   0.462576 0.445702 0.928380 0.552244
C48   C     C_R   0.540037 0.538101 0.923766 0.067486
C49   C     C_3   0.566217 0.660069 0.915107 0.186664
C50   C     C_3   0.571181 0.652323 0.073891 0.253150
C51   C     C_R   0.178519 0.621926 0.514025 0.560390
C52   C     C_R   0.280874 0.574597 0.609874 -0.108266
C53   C     C_R   0.331041 0.573391 0.606503 -0.219307
C54   C     C_R   0.328487 0.455503 0.392157 -0.223587
Cu1   Cu    Cu3+1 0.500000 0.499980 0.640670 0.983041
Cu2   Cu    Cu3+1 0.500000 0.500020 0.359330 0.976911
H1    H     H_    0.346405 0.408174 0.307744 0.143099
H2    H     H_    0.262744 0.619957 0.695255 0.151082
H3    H     H_    0.122837 0.817618 0.543360 0.207281
H4    H     H_    0.967462 0.803484 0.434885 0.214764
H5    H     H_    0.654325 0.534529 0.277917 0.146927
H6    H     H_    0.742388 0.530439 0.279656 0.136651
H7    H     H_    0.488348 0.111833 0.275426 0.171728
H8    H     H_    0.485991 0.887815 0.276892 0.196948
H9    H     H_    0.258274 0.415179 0.310596 0.148302
H10   H     H_    0.494622 0.889764 0.850372 0.120107
H11   H     H_    0.436137 0.394934 0.139017 0.145913
H12   H     H_    0.541702 0.732027 0.878533 0.083222
H13   H     H_    0.608116 0.632163 0.109046 0.099488
H14   H     H_    0.119870 0.197969 0.507874 0.193262
H15   H     H_    0.649415 0.436151 0.716577 0.188306
H16   H     H_    0.737589 0.432311 0.716583 0.147185
H17   H     H_    0.877157 0.185713 0.563272 0.193048
H18   H     H_    0.962436 0.188195 0.568681 0.146454
H19   H     H_    0.034497 0.189400 0.508050 0.154135
H20   H     H_    0.351050 0.621258 0.686951 0.145580
N1    N     N_R   0.202357 0.513550 0.510094 -0.464986
N2    N     N_R   0.797637 0.486089 0.500604 -0.471470
N3    N     N_R   0.500300 0.500930 0.147930 -0.181740
N4    N     N_R   0.500310 0.500890 0.852020 -0.238057
O1    O     O_R   0.500000 0.319640 0.618810 -0.555939
O2    O     O_2   0.796187 0.271577 0.537211 -0.544895
O3    O     O_2   0.203605 0.730672 0.510168 -0.536855
O4    O     O_2   0.796937 0.700010 0.464956 -0.499291
O5    O     O_R   0.500010 0.319680 0.381230 -0.583258
O6    O     O_R   0.430260 0.500000 0.618780 -0.550494
O7    O     O_R   0.430270 0.500040 0.381190 -0.592429
O8    O     O_R   0.499990 0.680320 0.618770 -0.610059
O9    O     O_R   0.500000 0.680360 0.381190 -0.519770
O10   O     O_R   0.569730 0.499960 0.618810 -0.554554
O11   O     O_R   0.569740 0.500000 0.381220 -0.576383
O12   O     O_2   0.201790 0.296413 0.513724 -0.540467
O13   O     O_3   0.876413 0.823514 0.429738 -0.533452
C55   C     C_3   0.877951 0.847997 0.284555 0.082161
H21   H     H_    0.860139 0.771149 0.225703 0.146290
H22   H     H_    0.915736 0.862198 0.245718 0.118430
C56   C     C_3   0.851244 0.965293 0.255680 -0.702834
H23   H     H_    0.868524 0.044041 0.311835 0.243414
H24   H     H_    0.852175 0.985736 0.141752 0.187407
H25   H     H_    0.813125 0.953671 0.291401 0.270440
O14   O     O_3   0.032066 0.839194 0.570265 -0.600036
C57   C     C_3   0.021222 0.841023 0.714911 0.068308
H26   H     H_    0.054782 0.837809 0.776933 0.150710
H27   H     H_    0.996532 0.762180 0.746162 0.151941
C58   C     C_3   0.996254 0.959867 0.749459 -0.782760
H28   H     H_    0.962586 0.965518 0.688918 0.254563
H29   H     H_    0.987106 0.962010 0.862818 0.203188
H30   H     H_    0.020390 0.040620 0.723009 0.244585
N5    N     N_3   0.426472 0.863380 0.748426 -0.550085
H31   H     H_    0.431401 0.768455 0.747310 0.230336
H32   H     H_    0.406797 0.879109 0.840261 0.219849
N6    N     N_3   0.423242 0.109315 0.735643 -0.542399
H33   H     H_    0.405120 0.108760 0.832226 0.238284
H34   H     H_    0.425155 0.200336 0.700213 0.261318
O15   O     O_3   0.493671 0.127160 0.875669 -0.575806
C59   C     C_3   0.544714 0.128945 0.873242 0.061353
H35   H     H_    0.559380 0.184535 0.783255 0.165150
H36   H     H_    0.558458 0.034054 0.868293 0.103573
C60   C     C_3   0.563345 0.189353 0.005654 -0.777627
H37   H     H_    0.548770 0.139353 0.099071 0.233524
H38   H     H_    0.603285 0.188328 0.006480 0.195935
H39   H     H_    0.552047 0.286103 0.010234 0.249346
O16   O     O_3   0.426581 0.380177 0.859163 -0.555427
C61   C     C_3   0.380299 0.416976 0.902790 0.025793
H40   H     H_    0.376017 0.516257 0.878940 0.138261
H41   H     H_    0.373151 0.401564 0.015972 0.121027
C62   C     C_3   0.341917 0.340422 0.827242 -0.736945
H42   H     H_    0.339854 0.245229 0.870508 0.231316
H43   H     H_    0.306240 0.381931 0.842185 0.210846
H44   H     H_    0.350455 0.335651 0.713892 0.260618
O17   O     O_3   0.611269 0.653660 0.844840 -0.580992
C63   C     C_3   0.620376 0.762714 0.765320 0.066197
H45   H     H_    0.610578 0.847044 0.823620 0.102053
H46   H     H_    0.599529 0.758313 0.667006 0.156100
C64   C     C_3   0.673747 0.776533 0.728612 -0.739306
H47   H     H_    0.684633 0.702246 0.657287 0.262976
H48   H     H_    0.681200 0.866408 0.675040 0.209295
H49   H     H_    0.695390 0.773214 0.825141 0.246473
O18   O     O_3   0.549234 0.750073 0.143939 -0.574862
C65   C     C_3   0.582975 0.850175 0.157563 0.040808
H50   H     H_    0.562773 0.936139 0.162664 0.165745
H51   H     H_    0.608071 0.861513 0.066198 0.130798
C66   C     C_3   0.611827 0.839368 0.291610 -0.783483
H52   H     H_    0.587517 0.823964 0.383279 0.240088
H53   H     H_    0.636773 0.762032 0.284595 0.228408
H54   H     H_    0.633483 0.925879 0.307695 0.211960

loop_
_geom_bond_atom_site_label_1
_geom_bond_atom_site_label_2
_ccdc_geom_bond_type
C10   C27   A    
C64   H49   S    
C21   C26   A    
C40   C41   A    
O13   C55   S    
Cu1   N4    S    
C49   H12   S    
C20   O2    S    
C66   H54   S    
C41   C42   S    
C65   C66   S    
Cu1   Cu2   S    
C2    H9    S    
N6    H34   S    
C56   H23   S    
C64   H47   S    
C39   H8    S    
C49   O17   S    
C26   N2    S    
Cu2   N3    S    
C5    C6    A    
C14   H18   S    
C28   C29   A    
C42   N5    S    
C65   H51   S    
Cu1   O10   S    
C51   N1    A    
N5    H32   S    
C46   N3    A    
C3    C52   A    
C9    C22   A    
C1    O1    A    
C66   H52   S    
C59   H35   S    
C57   C58   S    
C6    H14   S    
C18   C19   A    
C31   H3    S    
Cu1   O8    S    
C45   O12   S    
C34   O11   A    
C43   O15   S    
Cu2   O11   S    
C63   H45   S    
C23   O9    A    
Cu1   O1    S    
C16   C20   A    
C64   H48   S    
C21   C22   A    
C27   C30   A    
C36   C41   A    
C55   H21   S    
C47   N4    A    
C4    C7    A    
N6    H33   S    
C4    C28   A    
C60   H38   S    
C1    O5    A    
C58   H30   S    
C7    C31   A    
C15   C16   A    
C21   H16   S    
O14   C57   S    
O16   C61   S    
C65   H50   S    
C2    C54   A    
C8    C54   A    
C39   C40   A    
C50   O18   S    
C16   C17   A    
Cu2   O7    S    
C55   C56   S    
C25   C26   A    
C5    C45   A    
C19   N2    A    
C57   H27   S    
C62   H43   S    
C37   C38   A    
C58   H29   S    
C47   O16   S    
C34   O10   A    
C8    C12   S    
C17   C18   A    
C24   C25   A    
C55   H22   S    
C52   H2    S    
C24   H5    S    
C48   C49   S    
C6    C30   A    
C11   C32   A    
C23   O8    A    
C61   C62   S    
C10   C14   A    
C9    C34   S    
C31   C35   A    
C53   H20   S    
C42   C43   S    
C32   H4    S    
C19   O4    S    
C3    N1    S    
C51   O3    S    
C22   H15   S    
C56   H25   S    
C52   C53   A    
O18   C65   S    
C61   H41   S    
C38   H7    S    
C60   H39   S    
C44   C50   S    
C66   H53   S    
Cu2   O9    S    
C46   C47   A    
C36   C37   A    
C56   H24   S    
C12   O7    A    
C15   H17   S    
C50   H13   S    
C44   N3    A    
C4    C5    A    
C35   O14   S    
C10   C13   A    
C33   O13   S    
C8    C53   A    
C60   H37   S    
C9    C24   A    
C62   H42   S    
C20   N2    A    
C58   H28   S    
C29   C35   A    
C59   C60   S    
C12   O6    A    
C32   C33   A    
C48   N4    A    
Cu1   O6    S    
C2    C3    A    
C62   H44   S    
C7    C51   A    
C46   H11   S    
O17   C63   S    
C30   H19   S    
C11   C13   A    
Cu2   O5    S    
C38   C39   A    
C63   C64   S    
C59   H36   S    
C25   H6    S    
C57   H26   S    
C18   C33   A    
C13   C17   A    
C44   C48   A    
C11   C29   A    
C63   H46   S    
C49   C50   S    
C43   N6    S    
C27   C28   A    
C42   H10   S    
C14   C15   A    
C61   H40   S    
C36   C43   S    
C45   N1    A    
O15   C59   S    
N5    H31   S    
C23   C40   S    
C1    C37   S    
C54   H1    S    
