data_mof_unit_30160.cif
_audit_creation_date              2012-12-10T17:42:45-0500
_audit_creation_method            fapswitch 2.2
_symmetry_space_group_name_H-M    P1
_symmetry_Int_Tables_number       1
_space_group_crystal_system       triclinic
_cell_length_a                    10.081617
_cell_length_b                    10.671154
_cell_length_c                    13.179856
_cell_angle_alpha                 93.594991
_cell_angle_beta                  70.419562
_cell_angle_gamma                 91.68212
_cell_volume                      1333.24474998

loop_
_atom_site_label
_atom_site_type_symbol
_atom_type_description
_atom_site_fract_x
_atom_site_fract_y
_atom_site_fract_z
_atom_type_partial_charge
C1    C     C_R   0.505543 0.738824 0.489983 0.844948
C2    C     C_R   0.375379 0.506249 0.821231 -0.089637
C3    C     C_R   0.309301 0.877461 0.411947 -0.181718
C4    C     C_R   0.421310 0.496255 0.703337 0.815175
C5    C     C_R   0.182418 0.931951 0.420554 -0.198799
C6    C     C_R   0.136393 0.039148 0.488547 0.517152
C7    C     C_R   0.226775 0.099871 0.538487 0.020652
C8    C     C_R   0.367351 0.056951 0.509764 0.066311
C9    C     C_R   0.396838 0.934696 0.465202 0.056681
C10   C     C_R   0.510622 0.872951 0.479427 -0.120248
C11   C     C_R   0.613409 0.941834 0.507609 -0.113886
C12   C     C_R   0.471500 0.533766 0.967721 -0.007148
C13   C     C_R   0.598339 0.068664 0.530087 -0.104640
C14   C     C_R   0.480196 0.128116 0.525205 -0.174869
C15   C     C_R   0.790592 0.608836 0.681080 0.228387
C16   C     C_R   0.492951 0.261400 0.510418 0.900144
C17   C     C_R   0.813829 0.604237 0.779392 -0.196002
C18   C     C_R   0.950923 0.600239 0.779390 -0.196277
C19   C     C_R   0.060715 0.607928 0.680765 0.259612
C20   C     C_R   0.035742 0.554232 0.587397 0.016704
C21   C     C_R   0.892374 0.553289 0.587788 0.102798
C22   C     C_R   0.960763 0.447275 0.418081 -0.090565
C23   C     C_R   0.466485 0.466415 0.873354 0.065183
C24   C     C_R   0.101215 0.441009 0.418485 0.476205
C25   C     C_R   0.580023 0.499676 0.296061 0.925043
C26   C     C_R   0.767042 0.365902 0.015206 0.387852
C27   C     C_R   0.632285 0.488177 0.177502 -0.154365
C28   C     C_R   0.268330 0.590256 0.875862 -0.305048
C29   C     C_R   0.274885 0.659871 0.966312 -0.180968
C30   C     C_R   0.387212 0.643842 0.003502 0.406680
C31   C     C_3   0.883146 0.428752 0.155149 -0.667106
C32   C     C_3   0.166488 0.187977 0.636641 -0.604061
C33   C     C_3   0.718059 0.726407 0.672228 -0.715438
C34   C     C_R   0.562989 0.490228 0.019151 0.033582
C35   C     C_3   0.143662 0.729110 0.673073 -0.797429
C36   C     C_R   0.666144 0.397435 0.967059 -0.027695
C37   C     C_R   0.663910 0.339171 0.869183 -0.091814
C38   C     C_R   0.559987 0.367023 0.827495 -0.162368
C39   C     C_R   0.542355 0.526146 0.126283 -0.093728
C40   C     C_R   0.758270 0.425716 0.116292 0.008509
H1    H     H_    0.337117 0.789278 0.365513 0.224884
H2    H     H_    0.204229 0.738407 0.997125 0.180248
H3    H     H_    0.556772 0.313011 0.755916 0.153290
H4    H     H_    0.706178 0.898542 0.511057 0.222454
H5    H     H_    0.887007 0.517231 0.202925 0.224091
H6    H     H_    0.879139 0.345928 0.202852 0.276710
H7    H     H_    0.983485 0.430621 0.086467 0.250177
H8    H     H_    0.850943 0.054765 0.685190 0.384860
H9    H     H_    0.242535 0.208405 0.680118 0.213369
H10   H     H_    0.134974 0.278031 0.614278 0.277092
H11   H     H_    0.073462 0.142946 0.694303 0.268095
H12   H     H_    0.114864 0.884044 0.381453 0.208514
H13   H     H_    0.730169 0.802506 0.730235 0.254715
H14   H     H_    0.771783 0.761567 0.591788 0.247485
H15   H     H_    0.603551 0.713291 0.690113 0.243616
H16   H     H_    0.245910 0.716578 0.684440 0.249605
H17   H     H_    0.156662 0.771416 0.595844 0.246852
H18   H     H_    0.086327 0.800942 0.736253 0.229083
H19   H     H_    0.400176 0.237957 0.251128 0.382608
H20   H     H_    0.063784 0.388097 0.879387 0.354808
H21   H     H_    0.330931 0.938713 0.031054 0.382691
H22   H     H_    0.679901 0.121649 0.549687 0.256012
H23   H     H_    0.932256 0.402833 0.352694 0.183512
H24   H     H_    0.733913 0.637473 0.853233 0.195263
H25   H     H_    0.967495 0.628914 0.854471 0.157825
H26   H     H_    0.740406 0.271027 0.822978 0.221069
H27   H     H_    0.450875 0.579845 0.173064 0.221256
H28   H     H_    0.193621 0.617180 0.839787 0.176324
N1    N     N_R   0.856860 0.501200 0.500990 -0.139879
N2    N     N_R   0.142450 0.501280 0.501020 -0.185673
O1    O     O_R   0.385310 0.683220 0.500000 -0.638423
O2    O     O_2   0.920028 0.053983 0.417913 -0.268669
O3    O     O_3   0.858531 0.002188 0.618904 -0.635137
O4    O     O_2   0.119275 0.240899 0.282395 -0.243805
O5    O     O_2   0.256938 0.424757 0.211083 -0.359875
O6    O     O_3   0.347972 0.278010 0.322803 -0.517215
O7    O     O_2   0.974504 0.209733 0.024982 -0.247949
O8    O     O_2   0.840617 0.137771 0.910416 -0.272102
O9    O     O_3   0.020317 0.319887 0.846444 -0.591903
O10   O     O_2   0.345310 0.800863 0.176952 -0.356923
O11   O     O_2   0.590876 0.774823 0.059234 -0.275560
O12   O     O_R   0.614640 0.683250 0.500010 -0.626679
O13   O     O_3   0.426861 0.905655 0.993753 -0.504257
O14   O     O_R   0.328400 0.499950 0.653610 -0.613932
O15   O     O_R   0.557730 0.499970 0.653620 -0.613093
O16   O     O_R   0.385360 0.316750 0.499990 -0.552995
O17   O     O_R   0.614690 0.316780 0.500000 -0.592783
O18   O     O_R   0.442270 0.500030 0.346380 -0.550319
O19   O     O_R   0.671600 0.500050 0.346390 -0.621321
O20   O     O_2   0.940056 0.222194 0.546731 -0.356743
S1    S     S_3+6 0.961027 0.084475 0.516354 -0.027744
S2    S     S_3+6 0.208912 0.345550 0.307037 0.054502
S3    S     S_3+6 0.901507 0.252640 0.950995 0.011231
S4    S     S_3+6 0.440860 0.781630 0.062349 0.006580
Zn1   Zn    Zn3+2 0.346880 0.499980 0.499990 1.001812
Zn2   Zn    Zn3+2 0.653120 0.500020 0.500010 0.974537

loop_
_geom_bond_atom_site_label_1
_geom_bond_atom_site_label_2
_ccdc_geom_bond_type
C33   H15   S    
H20   O9    S    
C29   H2    S    
C19   C20   A    
N1    Zn2   S    
C24   N2    A    
C7    C8    A    
C18   H25   S    
C12   C23   A    
C37   C38   A    
C35   H18   S    
C22   C24   A    
C36   C37   A    
C28   H28   S    
O9    S3    S    
C17   H24   S    
C5    C6    A    
O15   Zn2   S    
O1    Zn1   S    
O8    S3    D    
C6    S1    S    
C31   C40   S    
C18   C19   A    
O4    S2    D    
C22   H23   S    
C3    H1    S    
C13   H22   S    
C27   C39   A    
C8    C9    A    
C31   H6    S    
C16   O17   A    
C5    H12   S    
C9    C10   A    
C22   N1    A    
C26   S3    S    
O18   Zn1   S    
C31   H7    S    
C13   C14   A    
O17   Zn2   S    
C16   O16   A    
C20   N2    A    
C24   S2    S    
C33   H13   S    
O12   Zn2   S    
C34   C39   A    
O3    S1    S    
H21   O13   S    
O2    S1    D    
C4    O15   A    
C1    O12   A    
O13   S4    S    
C25   O18   A    
C21   N1    A    
O14   Zn1   S    
C2    C4    S    
C32   H11   S    
C29   C30   A    
C3    C9    A    
C4    O14   A    
C27   C40   A    
C37   H26   S    
C17   C18   A    
C11   H4    S    
C1    O1    A    
C32   H10   S    
O5    S2    D    
O6    S2    S    
C26   C36   A    
C10   C11   A    
C14   C16   S    
C12   C34   A    
C33   H14   S    
C15   C17   A    
C28   C29   A    
C8    C14   A    
C7    C32   S    
C12   C30   A    
C35   H16   S    
C39   H27   S    
H8    O3    S    
C1    C10   S    
C3    C5    A    
C6    C7    A    
C25   C27   S    
C23   C38   A    
C25   O19   A    
C35   H17   S    
O19   Zn2   S    
N2    Zn1   S    
C38   H3    S    
C30   S4    S    
C19   C35   S    
O11   S4    D    
C11   C13   A    
C26   C40   A    
O20   S1    D    
O7    S3    D    
C34   C36   A    
C32   H9    S    
O16   Zn1   S    
C15   C21   A    
C20   C21   A    
C31   H5    S    
C2    C23   A    
C2    C28   A    
O10   S4    D    
H19   O6    S    
C15   C33   S    
