data_mof_unit_60592.cif
_audit_creation_date              2012-10-26T20:10:08-0400
_audit_creation_method            fapswitch 2.2
_symmetry_space_group_name_H-M    P1
_symmetry_Int_Tables_number       1
_space_group_crystal_system       triclinic
_cell_length_a                    19.373522
_cell_length_b                    18.190972
_cell_length_c                    27.350648
_cell_angle_alpha                 90.012204
_cell_angle_beta                  92.648422
_cell_angle_gamma                 89.976559
_cell_volume                      9628.70614705

loop_
_atom_site_label
_atom_site_type_symbol
_atom_type_description
_atom_site_fract_x
_atom_site_fract_y
_atom_site_fract_z
_atom_type_partial_charge
C1    C     C_R   0.367153 0.499872 0.503080 0.586219
C2    C     C_R   0.443019 0.405097 0.867430 0.013698
C3    C     C_R   0.495225 0.499325 0.352820 -0.071407
C4    C     C_R   0.503740 0.499643 0.647174 -0.070870
C5    C     C_R   0.435297 0.406597 0.970785 0.032822
C6    C     C_R   0.556207 0.400425 0.030602 0.033701
C7    C     C_R   0.561560 0.414609 0.979657 -0.019978
C8    C     C_R   0.430611 0.416732 0.022238 -0.018892
C9    C     C_R   0.500214 0.412594 0.949495 0.025141
C10   C     C_R   0.491662 0.408237 0.052123 0.024248
C11   C     C_R   0.377681 0.387338 0.940312 -0.091986
C12   C     C_R   0.632845 0.499860 0.496930 0.587054
C13   C     C_R   0.612209 0.373761 0.060046 -0.094709
C14   C     C_R   0.379764 0.389003 0.889361 0.061021
C15   C     C_R   0.608987 0.367726 0.110872 0.062800
C16   C     C_R   0.498835 0.499963 0.406998 0.605853
C17   C     C_R   0.501058 0.500006 0.592998 0.605206
C18   C     C_R   0.367895 0.435267 0.044825 0.040660
C19   C     C_R   0.625351 0.430733 0.957878 0.037156
C20   C     C_R   0.247316 0.559769 0.497766 -0.004686
C21   C     C_R   0.741489 0.430686 0.476550 0.041479
C22   C     C_R   0.752528 0.559927 0.502220 -0.003060
C23   C     C_R   0.488571 0.407078 0.103685 -0.073891
C24   C     C_R   0.258706 0.430774 0.523980 0.042481
C25   C     C_R   0.174946 0.551583 0.495690 0.195005
C26   C     C_R   0.813944 0.424009 0.479335 0.202070
C27   C     C_R   0.824906 0.551713 0.504806 0.194867
C28   C     C_R   0.186243 0.424177 0.521692 0.202603
C29   C     C_R   0.145037 0.483688 0.506275 0.009820
C30   C     C_R   0.854989 0.483641 0.494769 0.009217
C31   C     C_R   0.290477 0.497725 0.509048 -0.127299
C32   C     C_R   0.709544 0.497732 0.491119 -0.126811
C33   C     C_R   0.930315 0.476631 0.497845 0.418877
C34   C     C_R   0.503546 0.414955 0.897911 -0.073200
C35   C     C_R   0.069743 0.476615 0.503418 0.419158
C36   C     C_R   0.539030 0.277240 0.534683 0.158666
C37   C     C_R   0.470532 0.723689 0.461108 0.180255
C38   C     C_R   0.461001 0.277224 0.465317 0.158378
C39   C     C_R   0.529612 0.723621 0.538880 0.179209
C40   C     C_R   0.539257 0.199068 0.535372 0.157607
C41   C     C_R   0.469677 0.801977 0.460889 0.163519
C42   C     C_R   0.460840 0.199050 0.464624 0.157466
C43   C     C_R   0.530554 0.801914 0.539117 0.162947
C44   C     C_R   0.500066 0.158820 0.499997 -0.002384
C45   C     C_R   0.425191 0.418232 0.125723 0.024285
C46   C     C_R   0.500119 0.841929 0.500014 0.013040
C47   C     C_R   0.500111 0.924855 0.500032 0.415176
C48   C     C_R   0.500084 0.075675 0.500007 0.409229
C49   C     C_R   0.425852 0.418199 0.177216 0.459784
C50   C     C_R   0.568333 0.422827 0.824826 0.461057
C51   C     C_R   0.544539 0.401302 0.184894 0.480783
C52   C     C_R   0.449589 0.409951 0.816148 0.475107
C53   C     C_R   0.551819 0.490920 0.275390 0.272543
C54   C     C_R   0.445357 0.493707 0.723976 0.271298
C55   C     C_R   0.556325 0.500347 0.326579 0.030105
C56   C     C_R   0.567903 0.422303 0.876369 0.022997
C57   C     C_R   0.442088 0.501703 0.672712 0.029927
C58   C     C_R   0.430615 0.502863 0.326451 -0.068670
C59   C     C_R   0.567870 0.503397 0.674140 -0.068299
C60   C     C_R   0.428130 0.494185 0.274747 0.014021
C61   C     C_R   0.569306 0.496052 0.725966 0.013973
C62   C     C_R   0.488431 0.469718 0.251581 0.157818
C63   C     C_R   0.508221 0.473277 0.748908 0.157436
C64   C     C_2   0.366793 0.518928 0.352606 0.628933
C65   C     C_2   0.632179 0.518895 0.648369 0.628303
C66   C     C_2   0.581384 0.314787 0.573056 0.713967
C67   C     C_R   0.364782 0.432822 0.096365 0.245044
C68   C     C_2   0.439423 0.687631 0.417485 0.681869
C69   C     C_2   0.418543 0.314755 0.426992 0.713764
C70   C     C_2   0.560694 0.687509 0.582517 0.682154
C71   C     C_2   0.369552 0.526321 0.244827 0.677305
C72   C     C_2   0.628248 0.527141 0.756025 0.678514
C73   C     C_2   0.374326 0.516018 0.646920 0.649894
C74   C     C_2   0.624709 0.514495 0.351539 0.652300
C75   C     C_2   0.313018 0.378710 0.861627 0.654196
C76   C     C_2   0.669803 0.335648 0.137814 0.659394
C77   C     C_2   0.309479 0.469729 0.015978 0.612074
C78   C     C_R   0.628676 0.431891 0.906347 0.243779
C79   C     C_2   0.685710 0.458223 0.988151 0.620688
C80   C     C_2   0.274984 0.634540 0.489499 0.687075
C81   C     C_2   0.700562 0.367908 0.455806 0.689412
C82   C     C_2   0.724625 0.634921 0.509425 0.686801
C83   C     C_2   0.299807 0.367844 0.544371 0.690412
C84   C     C_R   0.548265 0.390739 0.133625 0.018528
Cl1   Cl    Cl    0.120066 0.628188 0.482970 -0.362116
Cl2   Cl    Cl    0.707366 0.457136 0.879948 -0.355778
Cl3   Cl    Cl    0.376909 0.530573 0.757390 -0.359827
Cl4   Cl    Cl    0.618781 0.527541 0.240443 -0.378171
Cl5   Cl    Cl    0.854551 0.341144 0.462024 -0.361764
Cl6   Cl    Cl    0.879586 0.628518 0.517264 -0.361671
Cl7   Cl    Cl    0.145809 0.341600 0.539659 -0.361511
Cl8   Cl    Cl    0.587332 0.151913 0.582376 -0.381866
Cl9   Cl    Cl    0.430637 0.850491 0.410550 -0.395365
Cl10  Cl    Cl    0.412805 0.151871 0.417617 -0.381538
Cl11  Cl    Cl    0.569682 0.850356 0.589452 -0.395492
Cl12  Cl    Cl    0.287410 0.459776 0.123896 -0.354804
Cu1   Cu    Cu3+1 0.500000 0.573360 0.500000 1.162736
Cu2   Cu    Cu3+1 0.500000 0.426640 0.500000 1.128662
H1    H     H_    0.329855 0.370958 0.956006 0.167977
H2    H     H_    0.658776 0.592318 0.812659 0.387959
H3    H     H_    0.318500 0.578236 0.598996 0.361682
H4    H     H_    0.681522 0.575416 0.399692 0.361519
H5    H     H_    0.227500 0.316666 0.850486 0.382384
H6    H     H_    0.706990 0.257364 0.184142 0.382606
H7    H     H_    0.279207 0.545393 0.965506 0.378333
H8    H     H_    0.720532 0.526636 0.041851 0.383487
H9    H     H_    0.274147 0.724628 0.446405 0.383217
H10   H     H_    0.677898 0.259810 0.458819 0.358711
H11   H     H_    0.724642 0.726192 0.551397 0.382134
H12   H     H_    0.658196 0.353904 0.043347 0.159832
H13   H     H_    0.322204 0.259686 0.541042 0.358926
H14   H     H_    0.301571 0.488023 0.403909 0.359830
H15   H     H_    0.697372 0.487965 0.596992 0.360274
H16   H     H_    0.591632 0.343904 0.644209 0.369960
H17   H     H_    0.442753 0.670506 0.344695 0.362320
H18   H     H_    0.408152 0.343939 0.355867 0.369466
H19   H     H_    0.557265 0.670489 0.655311 0.362205
H20   H     H_    0.339865 0.591841 0.188173 0.388534
N1    N     N_R   0.486348 0.431817 0.203618 -0.380347
N2    N     N_R   0.560278 0.963421 0.504409 -0.112969
N3    N     N_R   0.560253 0.036965 0.504329 -0.111443
N4    N     N_R   0.439932 0.963447 0.495644 -0.112539
N5    N     N_R   0.508780 0.438102 0.797721 -0.378445
N6    N     N_R   0.034996 0.475250 0.459241 -0.116984
N7    N     N_R   0.965070 0.477792 0.542027 -0.116862
N8    N     N_R   0.966268 0.475121 0.456490 -0.113070
N9    N     N_R   0.033803 0.477656 0.544782 -0.113321
N10   N     N_R   0.500000 0.316380 0.500000 -0.339048
N11   N     N_R   0.500000 0.683620 0.500000 -0.306838
N12   N     N_R   0.439930 0.036990 0.495701 -0.111281
O1    O     O_R   0.400150 0.561970 0.500010 -0.441966
O2    O     O_2   0.624855 0.399760 0.802442 -0.367499
O3    O     O_2   0.400246 0.381971 0.785187 -0.366938
O4    O     O_2   0.597031 0.379831 0.215565 -0.360560
O5    O     O_2   0.331532 0.572635 0.341399 -0.398238
O6    O     O_R   0.347029 0.472646 0.390094 -0.653258
O7    O     O_2   0.667713 0.572278 0.659812 -0.399633
O8    O     O_R   0.651863 0.472708 0.610770 -0.653823
O9    O     O_2   0.640121 0.334077 0.564985 -0.418570
O10   O     O_R   0.556742 0.320694 0.620145 -0.620097
O11   O     O_2   0.387601 0.650485 0.420618 -0.461502
O12   O     O_R   0.599850 0.438030 0.499990 -0.470846
O13   O     O_R   0.468900 0.697385 0.372214 -0.598576
O14   O     O_2   0.359755 0.333881 0.435098 -0.417942
O15   O     O_R   0.443131 0.320784 0.379896 -0.620685
O16   O     O_2   0.612562 0.650340 0.579440 -0.461076
O17   O     O_R   0.531132 0.697310 0.627760 -0.598592
O18   O     O_2   0.309795 0.510892 0.253225 -0.354573
O19   O     O_R   0.383457 0.573348 0.206066 -0.640484
O20   O     O_2   0.687758 0.509996 0.748062 -0.356809
O21   O     O_R   0.614973 0.575029 0.794473 -0.640162
O22   O     O_2   0.323382 0.480979 0.657784 -0.374898
O23   O     O_R   0.599850 0.561970 0.499990 -0.442522
O24   O     O_R   0.368026 0.571471 0.611731 -0.641156
O25   O     O_2   0.675408 0.479835 0.339679 -0.375164
O26   O     O_R   0.631785 0.569061 0.387314 -0.641894
O27   O     O_2   0.291654 0.425742 0.832798 -0.363400
O28   O     O_R   0.272573 0.317078 0.870852 -0.635518
O29   O     O_2   0.727500 0.360121 0.131506 -0.417983
O30   O     O_R   0.661567 0.274961 0.168361 -0.598489
O31   O     O_2   0.250423 0.447428 0.019805 -0.393196
O32   O     O_R   0.322670 0.527008 0.983625 -0.644326
O33   O     O_2   0.743235 0.432271 0.983271 -0.387965
O34   O     O_R   0.400150 0.438030 0.500010 -0.470876
O35   O     O_R   0.676064 0.513085 0.023005 -0.637333
O36   O     O_2   0.311535 0.664546 0.521205 -0.454044
O37   O     O_R   0.254924 0.672799 0.446810 -0.549287
O38   O     O_2   0.659256 0.377843 0.421290 -0.462061
O39   O     O_R   0.709297 0.297531 0.475693 -0.564935
O40   O     O_2   0.688177 0.663900 0.477218 -0.454329
O41   O     O_R   0.744215 0.674473 0.551679 -0.549398
O42   O     O_2   0.341580 0.377553 0.578634 -0.460761
O43   O     O_R   0.290664 0.297544 0.524433 -0.564963
O44   O     O_R   0.500010 0.561950 0.430260 -0.468307
O45   O     O_R   0.499990 0.438050 0.569740 -0.467892
O46   O     O_R   0.499990 0.561950 0.569740 -0.468791
O47   O     O_R   0.500010 0.438050 0.430260 -0.468512
O48   O     O_2   0.369224 0.397016 0.200207 -0.365924

loop_
_geom_bond_atom_site_label_1
_geom_bond_atom_site_label_2
_ccdc_geom_bond_type
C21   C26   A    
C64   O6    S    
C76   O29   D    
C34   C56   A    
C23   C45   A    
H20   O19   S    
C69   O15   S    
C42   Cl10  S    
C12   O23   A    
C82   O40   D    
Cu1   Cu2   S    
H15   O8    S    
C49   N1    A    
C54   Cl3   S    
N2    N3    A    
C69   O14   D    
C22   C32   A    
C27   Cl6   S    
C22   C82   S    
C11   H1    S    
C35   N6    A    
C24   C83   S    
H14   O6    S    
C38   C42   A    
H18   O15   S    
C52   N5    A    
C36   C66   S    
C20   C25   A    
C17   O45   A    
C58   C60   A    
C37   C68   S    
C1    C31   S    
C56   C78   A    
C4    C59   A    
C68   O13   S    
C60   C62   A    
C57   C73   S    
C61   C63   A    
C79   O35   S    
C33   N7    A    
C82   O41   S    
C55   C74   S    
C3    C55   A    
C74   O25   D    
C39   C70   S    
C41   Cl9   S    
C66   O9    D    
C1    O34   A    
C12   O12   A    
C4    C57   A    
C45   C67   A    
C51   N1    A    
C41   C46   A    
C70   O16   D    
H16   O10   S    
C28   Cl7   S    
C80   O37   S    
C17   O46   A    
C65   O7    D    
C75   O27   D    
Cu2   N10   S    
C71   O18   D    
C64   O5    D    
Cu1   O46   S    
C50   O2    S    
H10   O39   S    
C12   C32   S    
C27   C30   A    
C58   C64   S    
C52   O3    S    
C48   N12   A    
C36   N10   A    
C42   C44   A    
H6    O30   S    
C80   O36   D    
H17   O13   S    
C53   C55   A    
H2    O21   S    
C25   C29   A    
C21   C32   A    
H9    O37   S    
C59   C61   A    
C76   O30   S    
C23   C84   A    
C20   C80   S    
H8    O35   S    
C36   C40   A    
Cu1   O1    S    
C48   N3    A    
C47   N4    A    
C39   C43   A    
C39   N11   A    
C60   C71   S    
C18   C67   A    
Cu1   O23   S    
C8    C18   A    
C26   Cl5   S    
C73   O24   S    
C19   C78   A    
C19   C79   S    
C5    C9    A    
C13   H12   S    
C53   C62   A    
C43   Cl11  S    
C45   C49   A    
C72   O21   S    
C83   O42   D    
C25   Cl1   S    
C74   O26   S    
C68   O11   D    
C11   C14   A    
C40   Cl8   S    
Cu2   O47   S    
C35   N9    A    
C38   N10   A    
C62   N1    S    
C15   C84   A    
C2    C52   A    
C65   O8    S    
C75   O28   S    
C47   N2    A    
C21   C81   S    
C26   C30   A    
C81   O39   S    
C22   C27   A    
C83   O43   S    
C73   O22   D    
C67   Cl12  S    
C20   C31   A    
C4    C17   S    
H4    O26   S    
C16   O47   A    
C61   C72   S    
N6    N8    A    
C49   O48   S    
C16   O44   A    
C77   O32   S    
C7    C9    A    
C46   C47   S    
C28   C29   A    
Cu1   O44   S    
C30   C33   S    
H13   O43   S    
C50   N5    A    
C24   C28   A    
C79   O33   D    
C1    O1    A    
C6    C10   A    
C5    C8    A    
C63   N5    S    
H5    O28   S    
C5    C11   A    
C6    C7    A    
C10   C23   A    
C29   C35   S    
C7    C19   A    
H19   O17   S    
C14   C75   S    
C13   C15   A    
C24   C31   A    
Cu1   N11   S    
C59   C65   S    
C6    C13   A    
Cu2   O45   S    
Cu2   O34   S    
C2    C34   A    
C71   O19   S    
H3    O24   S    
C18   C77   S    
C81   O38   D    
C72   O20   D    
C33   N8    A    
C51   O4    S    
C77   O31   D    
C37   N11   A    
C9    C34   A    
C15   C76   S    
C53   Cl4   S    
C37   C41   A    
C2    C14   A    
C43   C46   A    
C50   C56   A    
C38   C69   S    
C3    C58   A    
C44   C48   S    
C40   C44   A    
C66   O10   S    
C8    C10   A    
C78   Cl2   S    
C54   C63   A    
N7    N9    A    
H7    O32   S    
C70   O17   S    
C51   C84   A    
N4    N12   A    
Cu2   O12   S    
C3    C16   S    
H11   O41   S    
C54   C57   A    
