data_mof_unit_32756.cif
_audit_creation_date              2012-10-26T21:25:54-0400
_audit_creation_method            fapswitch 2.2
_symmetry_space_group_name_H-M    P1
_symmetry_Int_Tables_number       1
_space_group_crystal_system       triclinic
_cell_length_a                    10.959338
_cell_length_b                    10.860759
_cell_length_c                    12.679948
_cell_angle_alpha                 91.445671
_cell_angle_beta                  93.044788
_cell_angle_gamma                 88.491178
_cell_volume                      1506.17024233

loop_
_atom_site_label
_atom_site_type_symbol
_atom_type_description
_atom_site_fract_x
_atom_site_fract_y
_atom_site_fract_z
_atom_type_partial_charge
C1    C     C_R   0.261806 0.496672 0.500460 0.569391
C2    C     C_R   0.816353 0.690099 0.307988 -0.066056
C3    C     C_R   0.138433 0.422565 0.689768 0.001758
C4    C     C_R   0.862115 0.568368 0.308495 0.028258
C5    C     C_R   0.137223 0.500199 0.780010 0.006591
C6    C     C_R   0.847975 0.494256 0.216390 -0.011925
C7    C     C_R   0.187939 0.459845 0.877155 0.271933
C8    C     C_R   0.798933 0.544197 0.122188 0.285553
C9    C     C_R   0.240290 0.340291 0.883533 -0.100588
C10   C     C_R   0.757407 0.668036 0.121919 -0.050055
C11   C     C_R   0.940715 0.458346 0.588923 0.195796
C12   C     C_R   0.738231 0.499501 0.499185 0.563296
C13   C     C_R   0.059006 0.514040 0.404790 0.188986
C14   C     C_R   0.871968 0.495075 0.497416 -0.005723
C15   C     C_R   0.128021 0.490302 0.499750 -0.009163
C16   C     C_R   0.496509 0.261837 0.502316 0.529335
C17   C     C_R   0.502103 0.737938 0.497558 0.536337
C18   C     C_R   0.930853 0.521158 0.404161 -0.084360
C19   C     C_R   0.069017 0.458848 0.591301 -0.080978
C20   C     C_2   0.490831 0.453810 0.032649 -0.133535
C21   C     C_2   0.504568 0.547868 0.966953 -0.139383
C22   C     C_1   0.514258 0.530135 0.852248 0.164959
C23   C     C_R   0.505834 0.871431 0.492029 -0.018935
C24   C     C_1   0.483676 0.470673 0.147575 0.150973
C25   C     C_R   0.722007 0.229035 0.814165 -0.042720
C26   C     C_R   0.120115 0.813091 0.316326 -0.026272
C27   C     C_R   0.688019 0.192274 0.710443 -0.142305
C28   C     C_R   0.212842 0.853648 0.386995 -0.180158
C29   C     C_R   0.590948 0.111857 0.689979 0.024630
C30   C     C_R   0.331329 0.867749 0.353383 0.036425
C31   C     C_R   0.526764 0.069390 0.776301 0.222682
C32   C     C_R   0.358818 0.830251 0.248892 0.257132
C33   C     C_R   0.563187 0.106041 0.879493 -0.074796
C34   C     C_R   0.488876 0.128038 0.506148 -0.018374
C35   C     C_R   0.265262 0.785671 0.179887 -0.036552
C36   C     C_R   0.661309 0.185390 0.899135 0.213268
C37   C     C_R   0.144776 0.779952 0.212285 0.262597
C38   C     C_R   0.586566 0.936001 0.562410 -0.001384
C39   C     C_R   0.413507 0.065021 0.429252 -0.024515
C40   C     C_3   0.698078 0.873141 0.617917 -0.244790
C41   C     C_3   0.817230 0.925815 0.583292 -0.458124
C42   C     C_3   0.316786 0.135157 0.360405 -0.244670
C43   C     C_3   0.357355 0.153481 0.248283 -0.391199
C44   C     C_R   0.419634 0.935273 0.425084 -0.042726
C45   C     C_R   0.563195 0.061833 0.580938 -0.029253
C46   C     C_R   0.243547 0.263930 0.793428 -0.144139
C47   C     C_R   0.765065 0.739859 0.214855 -0.076844
C48   C     C_R   0.193156 0.304663 0.696682 -0.104630
Cu1   Cu    Cu3+1 0.492140 0.492110 0.395880 1.014341
Cu2   Cu    Cu3+1 0.507860 0.507890 0.604120 1.019229
H1    H     H_    0.093658 0.590762 0.775367 0.143349
H2    H     H_    0.286132 0.758553 0.099901 0.141451
H3    H     H_    0.277191 0.305708 0.958227 0.088426
H4    H     H_    0.720330 0.709192 0.049860 0.100745
H5    H     H_    0.282298 0.171871 0.799315 0.165610
H6    H     H_    0.734402 0.835301 0.214010 0.123399
H7    H     H_    0.193183 0.243194 0.628039 0.101524
H8    H     H_    0.823875 0.747283 0.378985 0.080731
H9    H     H_    0.648645 0.182171 0.051220 0.310939
H10   H     H_    0.081328 0.725001 0.073780 0.355253
H11   H     H_    0.219416 0.494919 0.026823 0.326510
H12   H     H_    0.881161 0.399386 0.216538 0.128661
H13   H     H_    0.766250 0.521715 0.971162 0.326617
H14   H     H_    0.931437 0.363243 0.716971 0.316077
H15   H     H_    0.074223 0.504971 0.252069 0.339859
H16   H     H_    0.397937 0.988896 0.689913 0.327492
H17   H     H_    0.530241 0.873896 0.265262 0.325649
H18   H     H_    0.818616 0.924569 0.495793 0.139555
H19   H     H_    0.828741 0.021575 0.613216 0.154239
H20   H     H_    0.896042 0.869258 0.615137 0.143268
H21   H     H_    0.693720 0.882782 0.705022 0.174141
H22   H     H_    0.704773 0.773268 0.599072 0.169200
H23   H     H_    0.507887 0.641332 0.999186 0.144815
H24   H     H_    0.454202 0.180883 0.248694 0.178955
H25   H     H_    0.346839 0.067883 0.199838 0.160741
H26   H     H_    0.299276 0.226628 0.209860 0.137010
H27   H     H_    0.228202 0.088137 0.355905 0.128947
H28   H     H_    0.292565 0.225890 0.396740 0.157215
H29   H     H_    0.487151 0.360544 0.000330 0.132557
H30   H     H_    0.797187 0.290289 0.829623 0.182259
H31   H     H_    0.028357 0.809029 0.342621 0.133500
H32   H     H_    0.738384 0.224866 0.645943 0.150907
H33   H     H_    0.190635 0.881610 0.466492 0.105755
H34   H     H_    0.514762 0.071969 0.944664 0.126184
N1    N     N_1   0.480320 0.480250 0.239400 -0.177827
N2    N     N_1   0.519680 0.519750 0.760600 -0.176579
O1    O     O_R   0.313000 0.493330 0.412070 -0.438427
O2    O     O_3   0.049768 0.742016 0.144624 -0.694215
O3    O     O_3   0.182537 0.537853 0.964323 -0.718342
O4    O     O_3   0.796503 0.471218 0.031612 -0.649198
O5    O     O_3   0.879719 0.422157 0.675284 -0.700420
O6    O     O_3   0.119576 0.538687 0.315090 -0.663581
O7    O     O_3   0.430557 0.989660 0.764141 -0.715525
O8    O     O_3   0.473215 0.839852 0.209661 -0.726881
O9    O     O_R   0.687000 0.506670 0.587930 -0.442944
O10   O     O_R   0.326280 0.506660 0.587930 -0.506741
O11   O     O_R   0.673720 0.493340 0.412070 -0.514830
O12   O     O_R   0.493370 0.312980 0.412070 -0.512822
O13   O     O_R   0.506630 0.687020 0.587930 -0.500021
O14   O     O_R   0.506650 0.326310 0.587930 -0.500320
O15   O     O_R   0.493350 0.673690 0.412070 -0.483429
O16   O     O_3   0.700607 0.220817 0.000229 -0.658757

loop_
_geom_bond_atom_site_label_1
_geom_bond_atom_site_label_2
_ccdc_geom_bond_type
C1    O1    A    
H15   O6    S    
C32   O8    S    
C40   H21   S    
C27   C29   A    
C25   H30   S    
Cu1   O1    S    
C37   O2    S    
Cu2   O10   S    
H10   O2    S    
C48   H7    S    
C15   C19   A    
C11   C19   A    
Cu2   O13   S    
C17   C23   S    
C13   C18   A    
C35   C37   A    
Cu1   O15   S    
C11   C14   A    
Cu2   O9    S    
C7    O3    S    
C21   H23   S    
C3    C48   A    
C33   C36   A    
C36   O16   S    
C14   C18   A    
C38   C45   A    
C17   O15   A    
C16   C34   S    
Cu1   O12   S    
C20   C24   S    
C41   H20   S    
C46   H5    S    
H17   O8    S    
C31   C33   A    
C12   O9    A    
C3    C19   S    
C1    C15   S    
C41   H18   S    
C24   N1    T    
C4    C18   S    
C43   H24   S    
C9    C46   A    
C38   C40   S    
C21   C22   S    
C28   H33   S    
C30   C44   S    
H11   O3    S    
C39   C42   S    
C43   H25   S    
C46   C48   A    
C34   C39   A    
C32   C35   A    
Cu1   N1    S    
C4    C6    A    
C5    C7    A    
C16   O14   A    
C6    C8    A    
C31   O7    S    
C23   C44   A    
C29   C45   S    
C2    C4    A    
C34   C45   A    
C17   O13   A    
C12   O11   A    
H16   O7    S    
C40   C41   S    
C12   C14   S    
C42   H28   S    
C26   H31   S    
C13   C15   A    
C13   O6    S    
C9    H3    S    
C42   C43   S    
C35   H2    S    
C41   H19   S    
C43   H26   S    
C7    C9    A    
C40   H22   S    
C20   H29   S    
H9    O16   S    
Cu2   O14   S    
C27   H32   S    
C3    C5    A    
C2    H8    S    
C26   C37   A    
C39   C44   A    
C2    C47   A    
C25   C27   A    
C23   C38   A    
C26   C28   A    
C6    H12   S    
C28   C30   A    
C29   C31   A    
C30   C32   A    
C16   O12   A    
C1    O10   A    
H13   O4    S    
C22   N2    T    
C10   H4    S    
C33   H34   S    
Cu2   N2    S    
C25   C36   A    
Cu1   O11   S    
C11   O5    S    
C8    O4    S    
C20   C21   D    
C42   H27   S    
C8    C10   A    
Cu1   Cu2   S    
C10   C47   A    
C5    H1    S    
H14   O5    S    
C47   H6    S    
