data_mof_unit_24053.cif
_audit_creation_date              2012-12-10T17:44:38-0500
_audit_creation_method            fapswitch 2.2
_symmetry_space_group_name_H-M    P1
_symmetry_Int_Tables_number       1
_space_group_crystal_system       triclinic
_cell_length_a                    9.924882
_cell_length_b                    10.71661
_cell_length_c                    15.554177
_cell_angle_alpha                 93.478905
_cell_angle_beta                  66.750031
_cell_angle_gamma                 89.90354
_cell_volume                      1516.61706446

loop_
_atom_site_label
_atom_site_type_symbol
_atom_type_description
_atom_site_fract_x
_atom_site_fract_y
_atom_site_fract_z
_atom_type_partial_charge
C1    C     C_R   0.504653 0.738641 0.490562 0.889873
C2    C     C_R   0.710720 0.581362 0.041028 0.124843
C3    C     C_R   0.585440 0.511137 0.088891 0.109897
C4    C     C_R   0.406925 0.495293 0.676327 0.888947
C5    C     C_R   0.806314 0.617413 0.083981 -0.211584
C6    C     C_R   0.774253 0.591625 0.177083 0.164155
C7    C     C_R   0.568017 0.470163 0.176047 -0.305790
C8    C     C_R   0.270418 0.882802 0.457861 -0.149949
C9    C     C_R   0.134440 0.943078 0.482701 -0.133147
C10   C     C_R   0.105825 0.058150 0.533472 -0.158939
C11   C     C_R   0.217832 0.118022 0.551053 -0.157216
C12   C     C_R   0.407702 0.495020 0.916941 0.041243
C13   C     C_R   0.360897 0.062672 0.517775 0.101757
C14   C     C_R   0.379717 0.937228 0.484492 0.096885
C15   C     C_R   0.506003 0.871472 0.481437 -0.128243
C16   C     C_R   0.494820 0.260762 0.507291 0.874916
C17   C     C_R   0.624912 0.935379 0.487174 -0.212295
C18   C     C_R   0.617355 0.062925 0.500378 -0.211429
C19   C     C_R   0.487267 0.127563 0.514380 -0.129365
C20   C     C_R   0.795459 0.686299 0.627347 -0.015990
C21   C     C_R   0.846669 0.768421 0.680879 -0.246614
C22   C     C_R   0.984572 0.756082 0.678641 -0.221264
C23   C     C_R   0.269443 0.445528 0.969884 0.100545
C24   C     C_R   0.077023 0.663909 0.620839 -0.153575
C25   C     C_R   0.038098 0.583487 0.560281 0.141438
C26   C     C_R   0.891945 0.588025 0.561344 0.122815
C27   C     C_R   0.964003 0.419206 0.442812 -0.136575
C28   C     C_R   0.592866 0.502417 0.324101 0.878278
C29   C     C_R   0.106855 0.419610 0.442633 -0.112550
C30   C     C_R   0.347277 0.485716 0.778909 -0.078201
C31   C     C_R   0.652505 0.517111 0.223227 -0.079575
C32   C     C_R   0.167420 0.426464 0.928099 -0.195961
C33   C     C_R   0.203636 0.448214 0.833578 0.172550
C34   C     C_R   0.508850 0.524574 0.958443 0.072463
C35   C     C_R   0.445548 0.507543 0.821714 -0.282426
C36   C     C_3   0.096637 0.352719 0.120206 -0.944208
C37   C     C_1   0.642955 0.717875 0.655042 0.254645
C38   C     C_3   0.864947 0.650270 0.226276 -0.875973
C39   C     C_3   0.089784 0.425364 0.793237 -0.882530
C40   C     C_R   0.479421 0.487935 0.049792 0.029682
C41   C     C_R   0.342122 0.435319 0.100878 -0.230182
C42   C     C_R   0.237662 0.414389 0.062483 0.191491
C43   C     C_R   0.636339 0.593655 0.912275 -0.209802
C44   C     C_R   0.735439 0.620623 0.952757 -0.232118
H1    H     H_    0.900447 0.672897 0.046969 0.147174
H2    H     H_    0.484309 0.405535 0.211559 0.153043
H3    H     H_    0.019907 0.817961 0.722949 0.162465
H4    H     H_    0.179712 0.658641 0.625981 0.223646
H5    H     H_    0.189524 0.353595 0.395576 0.147341
H6    H     H_    0.829941 0.675675 0.915686 0.152100
H7    H     H_    0.059290 0.392974 0.968259 0.161575
H8    H     H_    0.556728 0.527509 0.778000 0.169826
H9    H     H_    0.310310 0.413093 0.172679 0.149053
H10   H     H_    0.659044 0.634739 0.846631 0.152610
H11   H     H_    0.088950 0.335918 0.191755 0.235908
H12   H     H_    0.723970 0.886958 0.482167 0.165350
H13   H     H_    0.001135 0.412563 0.127849 0.254877
H14   H     H_    0.090025 0.261026 0.085022 0.245657
H15   H     H_    0.793866 0.712023 0.287464 0.239373
H16   H     H_    0.918318 0.576913 0.250390 0.258473
H17   H     H_    0.953005 0.708021 0.179258 0.231515
H18   H     H_    0.130086 0.351735 0.734935 0.240661
H19   H     H_    0.985179 0.393643 0.846361 0.234164
H20   H     H_    0.064724 0.513337 0.767842 0.251748
H21   H     H_    0.289054 0.794928 0.416428 0.167146
H22   H     H_    0.050148 0.898915 0.464696 0.137653
H23   H     H_    0.998072 0.102585 0.557113 0.138183
H24   H     H_    0.189969 0.206292 0.592180 0.157558
H25   H     H_    0.714144 0.110667 0.499277 0.167868
H26   H     H_    0.939477 0.353063 0.395973 0.139795
H27   H     H_    0.777056 0.842599 0.728830 0.155235
N1    N     N_R   0.856800 0.501200 0.500850 -0.113226
N2    N     N_R   0.142390 0.501280 0.500880 -0.122372
N3    N     N_1   0.520947 0.750760 0.682647 -0.235630
O1    O     O_R   0.385310 0.683220 0.500000 -0.647956
O2    O     O_R   0.614640 0.683250 0.500010 -0.617608
O3    O     O_R   0.319840 0.499980 0.632240 -0.637282
O4    O     O_R   0.549160 0.500000 0.632250 -0.616797
O5    O     O_R   0.385360 0.316750 0.499990 -0.625773
O6    O     O_R   0.614690 0.316780 0.500000 -0.616151
O7    O     O_R   0.450840 0.500000 0.367750 -0.615020
O8    O     O_R   0.680160 0.500020 0.367760 -0.608349
Zn1   Zn    Zn3+2 0.346880 0.499980 0.499990 0.915618
Zn2   Zn    Zn3+2 0.653120 0.500020 0.500010 0.939630

loop_
_geom_bond_atom_site_label_1
_geom_bond_atom_site_label_2
_ccdc_geom_bond_type
C37   N3    T    
C27   C29   A    
C26   N1    A    
C41   C42   A    
C36   C42   S    
O6    Zn2   S    
O2    Zn2   S    
C29   H5    S    
C10   H23   S    
C39   H20   S    
C12   C23   A    
C33   C39   S    
C23   C42   A    
C30   C35   A    
C21   H27   S    
C34   C40   A    
C3    C7    A    
C5    C6    A    
C29   N2    A    
O3    Zn1   S    
C18   C19   A    
C9    H22   S    
C2    C44   A    
C8    C9    A    
C6    C38   S    
C1    C15   S    
C9    C10   A    
C38   H17   S    
C18   H25   S    
C6    C31   A    
C8    H21   S    
C21   C22   A    
O7    Zn1   S    
C7    C31   A    
C13   C19   A    
C28   O8    A    
C24   H4    S    
C7    H2    S    
C24   C25   A    
C36   H13   S    
C25   C26   A    
C5    H1    S    
C16   O6    A    
C1    O1    A    
C43   C44   A    
C32   H7    S    
C4    O4    A    
C43   H10   S    
C17   C18   A    
C12   C35   A    
C17   H12   S    
C41   H9    S    
N1    Zn2   S    
C27   H26   S    
C38   H16   S    
C40   C41   A    
C3    C40   A    
O8    Zn2   S    
C22   C24   A    
C2    C5    A    
C12   C34   A    
C11   H24   S    
C44   H6    S    
C15   C17   A    
C39   H18   S    
C8    C14   A    
C30   C33   A    
C28   O7    A    
C1    O2    A    
C28   C31   S    
C34   C43   A    
C39   H19   S    
C36   H14   S    
C16   O5    A    
C23   C32   A    
C2    C3    A    
C4    O3    A    
C36   H11   S    
C32   C33   A    
O5    Zn1   S    
C20   C37   S    
C11   C13   A    
O1    Zn1   S    
C20   C26   A    
C16   C19   S    
C22   H3    S    
C25   N2    A    
C10   C11   A    
C38   H15   S    
O4    Zn2   S    
C20   C21   A    
C35   H8    S    
C14   C15   A    
C13   C14   A    
N2    Zn1   S    
C4    C30   S    
C27   N1    A    
