data_mof_unit_55482.cif
_audit_creation_date              2013-03-05T15:53:44-0500
_audit_creation_method            fapswitch 2.2
_symmetry_space_group_name_H-M    P1
_symmetry_Int_Tables_number       1
_space_group_crystal_system       triclinic
_cell_length_a                    14.947731
_cell_length_b                    14.806131
_cell_length_c                    17.040735
_cell_angle_alpha                 108.910664
_cell_angle_beta                  105.817617
_cell_angle_gamma                 108.077179
_cell_volume                      3086.02261479

loop_
_atom_site_label
_atom_site_type_symbol
_atom_site_description
_atom_site_fract_x
_atom_site_fract_y
_atom_site_fract_z
_atom_type_partial_charge
C1    C     C_R   0.092992 0.276764 0.041816 -0.096233
H1    H     H_    0.170807 0.295187 0.081425 0.110749
N1    N     N_R   0.055640 0.348550 0.045600 -0.058803
C2    C     C_R   0.936025 0.516152 0.745871 -0.053299
H2    H     H_    0.857537 0.490058 0.699842 0.137167
N2    N     N_R   0.960830 0.507850 0.823710 -0.046297
C3    C     C_R   0.719385 0.215409 0.819600 0.296025
N3    N     N_R   0.811290 0.303400 0.871650 -0.101784
C4    C     C_R   0.251778 0.529761 0.943741 -0.041102
H3    H     H_    0.258841 0.560165 0.895167 0.088583
N4    N     N_R   0.205180 0.552990 0.997660 -0.041054
C5    C     C_R   0.729688 0.315712 0.748086 -0.176254
H4    H     H_    0.710072 0.357083 0.709379 0.157440
N5    N     N_R   0.814810 0.361830 0.823710 -0.064625
C6    C     C_R   0.258890 0.442438 0.027968 -0.099104
H5    H     H_    0.283806 0.399816 0.062690 0.101729
N6    N     N_R   0.201660 0.494570 0.045600 -0.051191
C7    C     C_R   0.107098 0.604526 0.823867 -0.167109
H6    H     H_    0.185623 0.664414 0.851607 0.117105
N7    N     N_R   0.068420 0.560530 0.871650 -0.052861
C8    C     C_R   0.924524 0.191672 0.954486 -0.046441
H7    H     H_    0.850468 0.129341 0.905402 0.171280
N8    N     N_R   0.948050 0.295860 0.997660 -0.044145
C9    C     C_R   0.014475 0.177521 0.979615 0.049292
C10   C     C_R   0.026240 0.578911 0.744894 0.046641
C11   C     C_R   0.665658 0.222756 0.742949 -0.071329
C12   C     C_R   0.286971 0.460321 0.961136 0.054127
C13   C     C_R   0.237458 0.706778 0.265109 -0.114141
H8    H     H_    0.260020 0.687047 0.320530 0.099364
N9    N     N_R   0.185190 0.638170 0.176290 -0.045693
C14   C     C_R   0.705982 0.503215 0.920605 -0.154636
H9    H     H_    0.682328 0.526951 0.868613 0.222562
N10   N     N_R   0.798340 0.505430 0.954400 -0.066893
C15   C     C_R   0.891967 0.465615 0.189531 -0.034284
H10   H     H_    0.813201 0.449611 0.174888 0.154456
N11   N     N_R   0.931580 0.439470 0.128350 -0.036008
C16   C     C_R   0.084564 0.803139 0.010455 -0.189045
H11   H     H_    0.164353 0.857003 0.033640 0.159261
N12   N     N_R   0.051950 0.704140 0.002340 -0.081627
C17   C     C_R   0.915925 0.720489 0.930676 0.418988
N13   N     N_R   0.944360 0.651450 0.954400 -0.096893
C18   C     C_R   0.062556 0.535672 0.265455 -0.101625
H12   H     H_    0.138055 0.567957 0.318752 0.099063
N14   N     N_R   0.039170 0.492150 0.176290 -0.050437
C19   C     C_R   0.235752 0.799477 0.184975 -0.069479
H13   H     H_    0.247822 0.862331 0.164715 0.123200
N15   N     N_R   0.188710 0.696600 0.128350 -0.042584
C20   C     C_R   0.697837 0.410225 0.998098 0.308254
N16   N     N_R   0.794820 0.447010 0.002340 -0.102323
Ni1   Ni    Ni4+2 0.119330 0.493420 0.109950 0.236496
Ni2   Ni    Ni4+2 0.880670 0.506580 0.890050 0.265846
Ni3   Ni    Ni4+2 0.872590 0.372590 0.000000 0.318176
Ni4   Ni    Ni4+2 0.127410 0.627410 0.000000 0.239071
C21   C     C_R   0.263987 0.808549 0.271892 0.052616
C22   C     C_R   0.639826 0.442836 0.945121 -0.095263
C23   C     C_R   0.971897 0.526114 0.275722 0.009301
C24   C     C_R   0.001273 0.817006 0.966706 0.065355
C25   C     C_R   0.406742 0.485154 0.887877 -0.036081
C26   C     C_R   0.351638 0.425066 0.922009 0.090442
C27   C     C_R   0.369511 0.338418 0.925370 -0.168235
H14   H     H_    0.322133 0.283831 0.943245 0.117791
C28   C     C_R   0.457753 0.330558 0.916579 -0.107073
H15   H     H_    0.474825 0.267808 0.925303 0.165250
C29   C     C_R   0.528842 0.412669 0.909432 0.115067
C30   C     C_R   0.492649 0.476928 0.878949 0.068953
C31   C     C_3   0.544976 0.591640 0.900507 -0.485233
C32   C     C_3   0.452136 0.602005 0.913543 0.169983
H16   H     H_    0.618234 0.638749 0.963466 0.242209
H17   H     H_    0.549936 0.599944 0.839207 0.235949
H18   H     H_    0.408435 0.622888 0.863639 0.078954
C33   C     C_R   0.962289 0.568774 0.362067 0.122773
C34   C     C_R   0.033612 0.619827 0.677974 0.124558
C35   C     C_R   0.136552 0.689256 0.604832 -0.211523
C36   C     C_R   0.130490 0.674312 0.679998 -0.161335
C37   C     C_R   0.943152 0.593832 0.605349 -0.227253
C38   C     C_R   0.948551 0.601935 0.527696 0.151628
C39   C     C_R   0.046074 0.645812 0.526126 0.179124
C40   C     C_R   0.051863 0.633364 0.443539 -0.250616
C41   C     C_R   0.864902 0.536052 0.365187 -0.136242
C42   C     C_R   0.858129 0.554569 0.448163 -0.186124
H19   H     H_    0.127198 0.664452 0.442730 0.112268
H20   H     H_    0.793903 0.489703 0.303909 0.158116
H21   H     H_    0.211930 0.724991 0.605097 0.135685
H22   H     H_    0.782687 0.522391 0.448780 0.153068
H23   H     H_    0.201908 0.698873 0.736343 0.130321
H24   H     H_    0.867806 0.556548 0.604173 0.144400
C43   C     C_R   0.559624 0.155010 0.672746 0.136124
C44   C     C_R   0.314453 0.907826 0.354567 0.099216
C45   C     C_R   0.433031 0.093691 0.432937 -0.168515
C46   C     C_R   0.367495 0.003030 0.352466 -0.093416
C47   C     C_R   0.315799 0.907377 0.436955 -0.244243
C48   C     C_R   0.384457 0.997397 0.518325 0.180097
C49   C     C_R   0.447539 0.088493 0.515400 0.146857
C50   C     C_R   0.533250 0.167162 0.592746 -0.239852
C51   C     C_R   0.487109 0.074491 0.679928 -0.092745
C52   C     C_R   0.399711 0.994624 0.602133 -0.213322
H25   H     H_    0.585112 0.230682 0.585885 0.129305
H26   H     H_    0.499656 0.069655 0.743600 0.167984
H27   H     H_    0.479543 0.164444 0.430423 0.156488
H28   H     H_    0.348944 0.927513 0.606269 0.133897
H29   H     H_    0.365442 0.006562 0.289680 0.163763
H30   H     H_    0.270783 0.835132 0.438298 0.117113
C53   C     C_R   0.112561 0.064123 0.975448 0.090841
C54   C     C_R   0.028389 0.081877 0.934284 -0.025350
C55   C     C_R   0.962114 0.009572 0.841900 -0.145232
H31   H     H_    0.894500 0.016677 0.806565 0.153153
C56   C     C_R   0.989181 0.934976 0.790586 -0.073593
H32   H     H_    0.941791 0.886085 0.718328 0.151137
C57   C     C_R   0.081294 0.929326 0.830631 0.066128
C58   C     C_R   0.136944 0.988990 0.924447 0.019358
C59   C     C_3   0.249966 0.049995 0.980975 -0.552470
C60   C     C_3   0.225137 0.134081 0.037980 0.395222
H33   H     H_    0.280874 0.008146 0.016623 0.236043
H34   H     H_    0.292961 0.077351 0.942815 0.181614
H35   H     H_    0.257846 0.209875 0.034078 -0.011185
S1    S     S_3+6 0.806783 0.685208 0.834229 -0.062237
O1    O     O_2   0.839028 0.741831 0.780679 -0.289385
O2    O     O_2   0.755107 0.568019 0.773165 -0.342289
O3    O     O_3   0.723789 0.723374 0.868423 -0.535984
H36   H     H_    0.764095 0.800725 0.908843 0.358114
N17   N     N_R   0.660230 0.344036 0.038448 0.204475
O4    O     O_R   0.607686 0.367599 0.084855 -0.406339
O5    O     O_R   0.698139 0.278634 0.048475 -0.354011
N18   N     N_R   0.477755 0.669967 0.008646 0.262995
O6    O     O_R   0.455020 0.750165 0.027681 -0.381323
O7    O     O_R   0.524953 0.652740 0.074756 -0.358182
N19   N     N_R   0.685931 0.124840 0.836583 0.199253
O8    O     O_R   0.696072 0.135600 0.917543 -0.352402
O9    O     O_R   0.656007 0.030767 0.772508 -0.412523
S2    S     S_3+6 0.255376 0.148677 0.152161 -0.019647
O10   O     O_2   0.191247 0.047111 0.151011 -0.277869
O11   O     O_2   0.367861 0.175747 0.197865 -0.274514
O12   O     O_3   0.231115 0.246072 0.212068 -0.500362
H37   H     H_    0.289158 0.312918 0.226926 0.341402

loop_
_geom_bond_atom_site_label_1
_geom_bond_atom_site_label_2
_geom_bond_distance
_ccdc_geom_bond_type
C20   C22   1.384081 A    
C31   H16   1.112277 S    
C15   C23   1.383286 A    
C49   C50   1.376069 A    
C35   C36   1.390100 A    
N1    N8    1.398010 A    
C59   C60   1.526671 S    
C42   H22   1.084003 S    
C32   N18   1.466674 S    
C33   C41   1.406353 A    
C2    C10   1.388096 A    
C51   H26   1.079492 S    
C3    N3    1.359142 A    
N12   N13   1.398011 A    
N12   Ni4   1.831653 S    
C39   C40   1.389323 A    
C55   C56   1.411502 A    
C16   H11   1.078507 S    
C3    C11   1.391896 A    
C45   H27   1.084407 S    
C53   C58   1.386832 A    
C13   H8    1.075785 S    
C15   H10   1.064428 S    
C31   H17   1.109776 S    
N10   N16   1.368043 A    
C6    H5    1.074626 S    
C43   C50   1.398668 A    
C48   C52   1.399852 A    
S1    O1    1.500933 D    
C27   C28   1.402670 A    
C1    H1    1.067095 S    
C58   C59   1.483148 S    
C28   C29   1.409550 A    
C37   H24   1.080858 S    
C18   C23   1.383241 A    
C51   C52   1.394092 A    
C11   C43   1.466735 S    
C43   C51   1.405754 A    
C56   H32   1.081887 S    
C14   N10   1.328487 A    
N2    Ni2   1.858032 S    
C4    H3    1.076395 S    
N3    Ni3   1.882921 S    
C15   N11   1.343355 A    
N4    Ni4   1.832703 S    
N15   Ni4   1.882918 S    
C23   C33   1.467541 S    
C31   C32   1.508914 S    
N9    Ni1   1.831355 S    
C26   C27   1.404478 A    
C8    H7    1.066577 S    
C56   C57   1.401682 A    
C7    C10   1.383371 A    
C18   N14   1.334960 A    
C34   C37   1.401470 A    
C60   S2    1.795632 S    
C54   C55   1.416004 A    
N1    Ni1   1.829939 S    
C19   N15   1.326058 A    
C3    N19   1.430495 S    
N9    N15   1.368162 A    
C38   C39   1.411591 A    
C2    N2    1.333367 A    
C20   N17   1.433459 S    
C13   C21   1.390133 A    
C7    H6    1.080445 S    
C50   H25   1.080449 S    
C25   C26   1.396450 A    
C19   H13   1.075085 S    
C5    C11   1.369926 A    
C53   C60   1.505127 S    
C1    N1    1.337556 A    
S2    O11   1.503286 D    
C37   C38   1.388177 A    
N19   O9    1.301403 A    
C46   H29   1.080639 S    
C28   H15   1.079998 S    
C25   C30   1.370581 A    
C6    C12   1.389385 A    
N5    Ni2   1.831356 S    
C44   C47   1.400810 A    
N16   Ni3   1.832702 S    
C22   C29   1.461360 S    
C59   H33   1.111325 S    
C10   C34   1.467814 S    
C4    N4    1.319241 A    
N17   O4    1.301459 A    
C34   C36   1.406670 A    
C17   N13   1.353823 A    
C5    N5    1.320024 A    
C19   C21   1.372942 A    
C8    N8    1.353242 A    
O12   H37   0.990630 S    
N11   N14   1.398009 A    
S2    O12   1.680863 S    
C18   H12   1.073320 S    
C47   H30   1.084006 S    
N19   O8    1.296251 A    
C47   C48   1.389178 A    
C4    C12   1.367443 A    
N18   O7    1.302518 A    
N14   Ni1   1.858034 S    
C6    N6    1.348126 A    
N4    N6    1.368044 A    
N3    N5    1.368164 A    
C17   C24   1.385472 A    
C14   H9    1.068475 S    
C38   C42   1.397329 A    
C44   C46   1.404095 A    
N7    Ni4   1.882745 S    
N11   Ni3   1.882742 S    
N6    Ni1   1.857962 S    
C41   H20   1.080286 S    
O3    H36   0.991615 S    
N13   Ni2   1.829937 S    
N10   Ni2   1.857964 S    
N2    N7    1.398009 A    
C55   H31   1.081852 S    
S1    O3    1.677357 S    
C32   H18   1.112846 S    
C14   C22   1.367584 A    
C29   C30   1.397973 A    
C13   N9    1.341403 A    
S2    O10   1.502250 D    
C16   N12   1.339300 A    
C12   C26   1.445770 S    
C57   C58   1.389866 A    
C21   C44   1.450754 S    
C40   H19   1.082149 S    
N8    Ni3   1.831653 S    
C17   S1    1.757411 S    
C20   N16   1.353067 A    
C52   H28   1.083875 S    
C48   C49   1.410931 A    
S1    O2    1.499950 D    
C59   H34   1.112174 S    
C7    N7    1.337283 A    
C60   H35   1.108331 S    
C36   H23   1.080620 S    
C45   C49   1.393545 A    
N17   O5    1.297288 A    
C41   C42   1.388786 A    
C25   C32   1.504723 S    
C2    H2    1.077747 S    
C5    H4    1.078978 S    
C1    C9    1.379174 A    
C30   C31   1.498638 S    
C8    C9    1.397943 A    
C53   C54   1.409890 A    
C35   C39   1.397764 A    
C27   H14   1.081425 S    
C9    C54   1.485488 S    
C45   C46   1.378560 A    
C35   H21   1.084066 S    
C33   C40   1.402199 A    
C16   C24   1.378345 A    
N18   O6    1.300599 A    
