data_mof_unit_46190.cif
_audit_creation_date              2012-10-26T20:13:54-0400
_audit_creation_method            fapswitch 2.2
_symmetry_space_group_name_H-M    P1
_symmetry_Int_Tables_number       1
_space_group_crystal_system       triclinic
_cell_length_a                    8.737921
_cell_length_b                    10.852368
_cell_length_c                    9.594438
_cell_angle_alpha                 89.686881
_cell_angle_beta                  97.748784
_cell_angle_gamma                 92.092818
_cell_volume                      900.903880706

loop_
_atom_site_label
_atom_site_type_symbol
_atom_type_description
_atom_site_fract_x
_atom_site_fract_y
_atom_site_fract_z
_atom_type_partial_charge
C1    C     C_R   0.503113 0.263021 0.500562 0.540055
C2    C     C_R   0.625042 0.545260 0.941830 0.057106
C3    C     C_3   0.705563 0.668530 0.942853 -0.243969
C4    C     C_R   0.203686 0.489324 0.464370 0.530724
C5    C     C_3   0.701325 0.672046 0.101958 0.146378
C6    C     C_R   0.499628 0.737156 0.499581 0.551197
C7    C     C_R   0.795847 0.504920 0.535380 0.564195
C8    C     C_2   0.035652 0.467015 0.450189 0.257261
C9    C     C_2   0.961844 0.517672 0.548424 -0.095595
C10   C     C_R   0.466475 0.060912 0.610860 -0.017710
C11   C     C_R   0.510496 0.130688 0.501033 -0.018089
C12   C     C_R   0.555653 0.937458 0.386989 -0.172223
C13   C     C_R   0.560156 0.066944 0.388565 -0.168814
C14   C     C_3   0.031695 0.333874 0.256022 -0.064872
C15   C     C_3   0.130634 0.390954 0.846746 -0.114675
C16   C     C_3   0.916752 0.783631 0.202840 -0.130847
C17   C     C_3   0.179713 0.849858 0.842131 -0.136741
C18   C     C_3   0.656446 0.103472 0.863501 -0.127980
C19   C     C_3   0.346823 0.221854 0.102465 -0.097710
C20   C     C_R   0.503714 0.869994 0.498866 0.005010
C21   C     C_R   0.460344 0.936494 0.609252 0.013865
C22   C     C_3   0.389290 0.925005 0.742305 0.167693
C23   C     C_3   0.398885 0.067595 0.745631 0.188280
C24   C     C_R   0.623383 0.547674 0.087440 0.169574
C25   C     C_R   0.398363 0.426244 0.063429 0.358491
C26   C     C_R   0.390542 0.432789 0.911878 0.397744
Cu1   Cu    Cu3+1 0.499990 0.499980 0.640670 1.003341
Cu2   Cu    Cu3+1 0.500010 0.500020 0.359330 1.028248
H1    H     H_    0.021524 0.574695 0.632944 0.064901
H2    H     H_    0.854326 0.836724 0.274760 0.117361
H3    H     H_    0.920633 0.834354 0.102102 0.084873
H4    H     H_    0.037557 0.775403 0.254200 0.153047
H5    H     H_    0.625884 0.742502 0.137624 0.092843
H6    H     H_    0.602393 0.116380 0.302486 0.133038
H7    H     H_    0.592742 0.891074 0.298873 0.117429
H8    H     H_    0.186928 0.932528 0.911285 0.101799
H9    H     H_    0.243096 0.772779 0.897581 0.116242
H10   H     H_    0.056213 0.819689 0.819183 0.132238
H11   H     H_    0.463839 0.878486 0.827932 0.103394
H12   H     H_    0.134225 0.285248 0.307044 0.154738
H13   H     H_    0.283950 0.110120 0.730810 0.167602
H14   H     H_    0.700388 0.164675 0.783474 0.152739
H15   H     H_    0.684786 0.006213 0.846700 0.086802
H16   H     H_    0.718248 0.132074 0.967566 0.116037
H17   H     H_    0.310149 0.161859 0.186716 0.109257
H18   H     H_    0.473678 0.212750 0.104915 0.161761
H19   H     H_    0.283311 0.186563 0.002041 0.168457
H20   H     H_    0.058668 0.407674 0.181642 0.196782
H21   H     H_    0.955615 0.264097 0.194034 0.103423
H22   H     H_    0.049852 0.357984 0.754556 0.131919
H23   H     H_    0.116475 0.491817 0.858722 0.102225
H24   H     H_    0.094242 0.340248 0.937806 0.123835
H25   H     H_    0.823851 0.662408 0.913340 0.138673
H26   H     H_    0.634574 0.738521 0.883863 0.091314
N1    N     N_R   0.500980 0.500930 0.148050 -0.273188
N2    N     N_R   0.500990 0.500890 0.852140 -0.254415
O1    O     O_R   0.500000 0.319640 0.618810 -0.455619
O2    O     O_3   0.282102 0.362573 0.824600 -0.532491
O3    O     O_3   0.849538 0.664199 0.180355 -0.538046
O4    O     O_3   0.235774 0.877124 0.713995 -0.575124
O5    O     O_3   0.496248 0.117760 0.864756 -0.599097
O6    O     O_3   0.306283 0.343774 0.126917 -0.599141
O7    O     O_R   0.500020 0.319680 0.381230 -0.483233
O8    O     O_R   0.274830 0.499980 0.591380 -0.481585
O9    O     O_R   0.274850 0.500020 0.353800 -0.482632
O10   O     O_R   0.499980 0.680320 0.618770 -0.502314
O11   O     O_R   0.500000 0.680360 0.381190 -0.523043
O12   O     O_R   0.725150 0.499980 0.646200 -0.535617
O13   O     O_R   0.725170 0.500020 0.408620 -0.407290
O14   O     O_3   0.950218 0.382835 0.356975 -0.569830

loop_
_geom_bond_atom_site_label_1
_geom_bond_atom_site_label_2
_ccdc_geom_bond_type
C7    O13   A    
C14   H20   S    
C19   H17   S    
C18   O5    S    
C17   H8    S    
C18   H16   S    
C10   C23   S    
C16   H4    S    
C3    H25   S    
C4    O8    A    
Cu1   N2    S    
C8    O14   S    
Cu2   O13   S    
C23   H13   S    
C9    H1    S    
C4    C8    S    
C12   C20   A    
Cu1   O1    S    
Cu2   O9    S    
C7    O12   A    
C19   H18   S    
C13   H6    S    
Cu1   O10   S    
C17   H9    S    
C15   H24   S    
C20   C21   A    
C24   N1    A    
C2    C24   A    
C11   C13   A    
C5    H5    S    
C14   O14   S    
C5    C24   S    
C22   H11   S    
C1    O7    A    
C6    O11   A    
C3    H26   S    
Cu2   N1    S    
C2    C3    S    
C15   H23   S    
C17   H10   S    
C18   H14   S    
C10   C21   A    
C22   O4    S    
C4    O9    A    
C15   O2    S    
C19   H19   S    
C1    C11   S    
C14   H21   S    
C10   C11   A    
C5    O3    S    
C17   O4    S    
C14   H12   S    
Cu2   O7    S    
C6    O10   A    
Cu2   O11   S    
C6    C20   S    
C12   C13   A    
C16   H3    S    
Cu1   O8    S    
C15   H22   S    
C18   H15   S    
Cu1   Cu2   S    
C7    C9    S    
C22   C23   S    
C2    N2    A    
Cu1   O12   S    
C19   O6    S    
C25   O6    S    
C3    C5    S    
C25   C26   A    
C21   C22   S    
C16   H2    S    
C26   O2    S    
C25   N1    A    
C23   O5    S    
C26   N2    A    
C8    C9    D    
C12   H7    S    
C16   O3    S    
C1    O1    A    
