data_mof_unit_61655.cif
_audit_creation_date              2013-03-05T16:22:40-0500
_audit_creation_method            fapswitch 2.2
_symmetry_space_group_name_H-M    P1
_symmetry_Int_Tables_number       1
_space_group_crystal_system       triclinic
_cell_length_a                    30.600128
_cell_length_b                    21.746824
_cell_length_c                    21.738652
_cell_angle_alpha                 89.904138
_cell_angle_beta                  134.707896
_cell_angle_gamma                 89.938946
_cell_volume                      10281.0337637

loop_
_atom_site_label
_atom_site_type_symbol
_atom_site_description
_atom_site_fract_x
_atom_site_fract_y
_atom_site_fract_z
_atom_type_partial_charge
O1    O     O_R   0.090190 0.500000 0.142390 -0.582933
O2    O     O_R   0.590190 1.000000 0.142390 -0.579314
O3    O     O_R   0.090130 0.500000 0.037950 -0.581858
O4    O     O_R   0.590130 1.000000 0.037950 -0.583147
C1    C     C_R   0.118657 0.499540 0.118207 0.815229
C2    C     C_R   0.618576 0.999673 0.118197 0.815934
O5    O     O_R   0.000030 0.590170 0.052220 -0.586582
O6    O     O_R   0.000030 0.409830 0.052220 -0.581127
O7    O     O_R   0.500030 0.090170 0.052220 -0.584837
O8    O     O_R   0.500030 0.909830 0.052220 -0.582194
O9    O     O_R   0.999970 0.590160 0.947780 -0.586134
O10   O     O_R   0.999970 0.409840 0.947780 -0.588631
O11   O     O_R   0.499970 0.090160 0.947780 -0.585004
O12   O     O_R   0.499970 0.909840 0.947780 -0.586821
C3    C     C_R   0.999722 0.618743 0.999629 0.794569
C4    C     C_R   0.999723 0.381332 0.999736 0.790322
C5    C     C_R   0.500002 0.118609 0.999920 0.790417
C6    C     C_R   0.499605 0.881286 0.999623 0.794571
Cu1   Cu    Cu3+1 0.000030 0.500000 0.061840 0.984733
Cu2   Cu    Cu3+1 0.500030 1.000000 0.061840 0.985253
Cu3   Cu    Cu3+1 0.999960 0.500000 0.938160 0.963976
Cu4   Cu    Cu3+1 0.499960 1.000000 0.938160 0.965978
O13   O     O_R   0.909850 0.500000 0.962050 -0.570060
O14   O     O_R   0.409850 1.000000 0.962050 -0.574746
O15   O     O_R   0.909790 0.500000 0.857610 -0.590561
O16   O     O_R   0.409790 1.000000 0.857610 -0.590954
C7    C     C_R   0.881270 0.499582 0.881449 0.807773
C8    C     C_R   0.381225 0.999616 0.881426 0.810096
C9    C     C_R   0.025493 0.719293 0.071340 0.129980
C10   C     C_R   0.032722 0.280670 0.073564 0.119972
C11   C     C_R   0.460809 0.219066 0.996117 0.103897
C12   C     C_R   0.528104 0.780472 0.072305 0.122178
C13   C     C_R   0.998881 0.685258 0.998121 -0.097658
C14   C     C_R   0.998331 0.314978 0.998062 -0.087326
C15   C     C_R   0.501257 0.184848 0.000706 -0.076677
C16   C     C_R   0.498176 0.814839 0.997876 -0.094682
C17   C     C_R   0.971467 0.718282 0.921986 -0.190409
C18   C     C_R   0.962441 0.282455 0.919372 -0.203649
C19   C     C_R   0.543354 0.217309 0.005216 -0.198520
C20   C     C_R   0.466927 0.782239 0.920284 -0.199662
H1    H     H_    0.949657 0.694237 0.862691 0.168736
H2    H     H_    0.934365 0.306953 0.858398 0.158649
H3    H     H_    0.576099 0.192730 0.009208 0.154554
H4    H     H_    0.442347 0.806651 0.860053 0.166601
C21   C     C_R   0.971162 0.783148 0.921904 -0.196402
C22   C     C_R   0.962027 0.217574 0.919333 -0.205733
C23   C     C_R   0.543829 0.282205 0.006101 -0.198346
C24   C     C_R   0.466568 0.717362 0.920177 -0.189598
H5    H     H_    0.949287 0.807843 0.862820 0.165151
H6    H     H_    0.933764 0.193255 0.858412 0.165435
H7    H     H_    0.576827 0.306473 0.010476 0.158083
H8    H     H_    0.441831 0.692985 0.860048 0.191139
C25   C     C_R   0.999921 0.815431 0.998564 -0.075882
C26   C     C_R   0.999165 0.184798 0.998178 -0.089231
C27   C     C_R   0.500831 0.315036 0.999544 -0.083603
C28   C     C_R   0.499269 0.684663 0.998156 -0.087355
C29   C     C_R   0.027051 0.781312 0.071930 0.118513
C30   C     C_R   0.034146 0.218652 0.073741 0.115332
C31   C     C_R   0.459806 0.281085 0.993818 0.119095
C32   C     C_R   0.529905 0.718462 0.072766 0.109400
C33   C     C_3   0.059826 0.785907 0.164262 -0.493953
C34   C     C_3   0.078238 0.213874 0.169547 -0.467344
C35   C     C_3   0.407827 0.285800 0.986625 -0.448003
C36   C     C_3   0.568487 0.713503 0.167276 -0.473770
C37   C     C_3   0.058550 0.715030 0.163965 -0.440048
C38   C     C_3   0.077162 0.284766 0.169490 -0.452121
C39   C     C_3   0.408406 0.214922 0.988059 -0.450363
C40   C     C_3   0.566610 0.784343 0.166959 -0.449906
H9    H     H_    0.030870 0.807419 0.171843 0.199269
H10   H     H_    0.057131 0.192496 0.190009 0.189620
H11   H     H_    0.365877 0.305818 0.923669 0.213250
H12   H     H_    0.543661 0.691491 0.181489 0.193964
H13   H     H_    0.106743 0.805370 0.205565 0.208037
H14   H     H_    0.123205 0.194170 0.199714 0.215232
H15   H     H_    0.422017 0.306822 0.045023 0.198364
H16   H     H_    0.614869 0.694354 0.203258 0.214495
H17   H     H_    0.029156 0.695690 0.171925 0.214381
H18   H     H_    0.055838 0.304286 0.190536 0.211915
H19   H     H_    0.367026 0.194250 0.925519 0.219726
H20   H     H_    0.540625 0.803220 0.181010 0.210858
H21   H     H_    0.104715 0.693589 0.204941 0.189924
H22   H     H_    0.121405 0.305974 0.199120 0.202334
H23   H     H_    0.422295 0.194953 0.046834 0.216861
H24   H     H_    0.611914 0.805961 0.202981 0.193784
C41   C     C_R   0.217460 0.552078 0.229577 0.091787
C42   C     C_R   0.717887 0.946116 0.222160 0.093125
C43   C     C_R   0.185036 0.499416 0.182003 -0.150895
C44   C     C_R   0.684798 0.000387 0.182253 -0.142602
C45   C     C_R   0.216634 0.451111 0.184292 -0.203308
C46   C     C_R   0.715626 0.053206 0.192792 -0.199872
H25   H     H_    0.191361 0.412463 0.140723 0.167820
H26   H     H_    0.689767 0.094325 0.155579 0.159007
C47   C     C_R   0.281107 0.451692 0.243982 0.408373
C48   C     C_R   0.779992 0.053888 0.252493 0.420719
C49   C     C_R   0.314245 0.501105 0.304030 -0.198852
C50   C     C_R   0.814041 0.000578 0.304430 -0.196161
C51   C     C_R   0.280733 0.552816 0.289615 0.080355
C52   C     C_R   0.781202 0.946387 0.282714 0.080858
C53   C     C_3   0.285295 0.591705 0.350438 -0.399010
C54   C     C_3   0.786265 0.899693 0.337951 -0.374264
C55   C     C_3   0.215442 0.590851 0.283968 -0.453725
C56   C     C_3   0.716396 0.899342 0.270853 -0.477787
H27   H     H_    0.304443 0.637979 0.359372 0.202901
H28   H     H_    0.307000 0.566946 0.410799 0.260292
H29   H     H_    0.807413 0.918474 0.401305 0.241160
H30   H     H_    0.806267 0.855610 0.341255 0.207411
H31   H     H_    0.194397 0.636590 0.254089 0.187066
H32   H     H_    0.196968 0.565885 0.306324 0.223558
H33   H     H_    0.697084 0.917686 0.295397 0.221628
H34   H     H_    0.696394 0.855199 0.235159 0.190748
C57   C     C_R   0.779732 0.522689 0.826772 -0.012940
C58   C     C_R   0.279504 0.016424 0.829544 -0.007445
C59   C     C_R   0.814835 0.497810 0.814573 -0.155466
C60   C     C_R   0.314694 0.998267 0.814408 -0.163879
C61   C     C_R   0.783111 0.472065 0.732715 -0.193397
C62   C     C_R   0.282910 0.979205 0.729596 -0.193070
H35   H     H_    0.808596 0.452474 0.719866 0.169998
H36   H     H_    0.308260 0.964647 0.714343 0.174816
C63   C     C_R   0.718082 0.471878 0.666420 0.246064
C64   C     C_R   0.217935 0.978642 0.663501 0.242938
C65   C     C_R   0.684581 0.499351 0.682185 -0.097406
C66   C     C_R   0.184430 0.999499 0.682344 -0.092576
C67   C     C_R   0.717642 0.524269 0.763202 -0.077927
C68   C     C_R   0.217381 0.017945 0.766130 -0.073126
C69   C     C_3   0.710660 0.556976 0.816154 -0.442700
C70   C     C_3   0.209961 0.040134 0.823213 -0.469858
C71   C     C_3   0.781677 0.556047 0.888824 0.782709
C72   C     C_3   0.280940 0.038884 0.896049 0.794820
H37   H     H_    0.687986 0.527805 0.829049 0.160605
H38   H     H_    0.690418 0.603612 0.790157 0.216924
H39   H     H_    0.187227 0.005422 0.830553 0.161750
H40   H     H_    0.189584 0.087043 0.804847 0.207702
O17   O     O_R   0.947810 0.000000 0.857560 -0.526054
O18   O     O_R   0.447810 0.500000 0.857560 -0.544050
O19   O     O_R   0.052190 1.000000 0.962010 -0.597285
O20   O     O_R   0.552190 0.500000 0.962010 -0.587899
C73   C     C_R   0.000336 0.000448 0.881484 0.802780
C74   C     C_R   0.500380 0.499353 0.881572 0.819414
O21   O     O_R   0.947800 0.909830 0.947720 -0.570579
O22   O     O_R   0.947800 0.090170 0.947720 -0.600037
O23   O     O_R   0.447800 0.409830 0.947720 -0.582910
O24   O     O_R   0.447800 0.590170 0.947720 -0.581202
O25   O     O_R   0.052180 0.909820 0.052170 -0.586508
O26   O     O_R   0.052180 0.090180 0.052170 -0.580692
O27   O     O_R   0.552180 0.409820 0.052170 -0.590171
O28   O     O_R   0.552180 0.590180 0.052170 -0.580002
C75   C     C_R   0.000035 0.881485 0.000009 0.792883
C76   C     C_R   0.999848 0.118591 0.999801 0.789876
C77   C     C_R   0.500134 0.381354 0.999850 0.781677
C78   C     C_R   0.499857 0.618545 0.999807 0.804436
Cu5   Cu    Cu3+1 0.938190 0.000000 0.938110 1.005674
Cu6   Cu    Cu3+1 0.438190 0.500000 0.938110 1.004317
Cu7   Cu    Cu3+1 0.061790 1.000000 0.061790 0.963504
Cu8   Cu    Cu3+1 0.561790 0.500000 0.061790 0.971894
O29   O     O_R   0.947790 0.000000 0.037880 -0.582976
O30   O     O_R   0.447790 0.500000 0.037880 -0.575369
O31   O     O_R   0.052170 1.000000 0.142340 -0.591420
O32   O     O_R   0.552170 0.500000 0.142340 -0.587522
C79   C     C_R   0.999627 0.000347 0.118276 0.796883
C80   C     C_R   0.499752 0.499467 0.118505 0.798779
O33   O     O_R   0.499940 0.552220 0.409760 -0.594643
O34   O     O_R   0.499940 0.447780 0.409760 -0.585436
O35   O     O_R   0.999940 0.052220 0.409760 -0.570232
O36   O     O_R   0.999940 0.947780 0.409760 -0.588899
C81   C     C_R   0.499743 0.500108 0.381001 0.805198
C82   C     C_R   0.000012 0.999942 0.381457 0.812835
O37   O     O_R   0.409830 0.552190 0.409810 -0.591214
O38   O     O_R   0.409830 0.447810 0.409810 -0.564439
O39   O     O_R   0.909830 0.052190 0.409810 -0.561479
O40   O     O_R   0.909830 0.947810 0.409810 -0.578309
C83   C     C_R   0.381085 0.500133 0.378286 0.823138
C84   C     C_R   0.881018 0.000252 0.378357 0.804161
Cu9   Cu    Cu3+1 0.500000 0.561790 0.499990 0.970423
Cu10  Cu    Cu3+1 0.500000 0.438210 0.499990 0.978282
Cu11  Cu    Cu3+1 0.000000 0.061790 0.499990 1.013350
Cu12  Cu    Cu3+1 0.000000 0.938210 0.499990 0.969183
O41   O     O_R   0.500050 0.552150 0.590200 -0.583290
O42   O     O_R   0.500050 0.447850 0.590200 -0.585544
O43   O     O_R   0.000050 0.052150 0.590200 -0.576926
O44   O     O_R   0.000050 0.947850 0.590200 -0.582151
O45   O     O_R   0.590170 0.552180 0.590150 -0.575497
O46   O     O_R   0.590170 0.447820 0.590150 -0.592793
O47   O     O_R   0.090170 0.052180 0.590150 -0.583739
O48   O     O_R   0.090170 0.947820 0.590150 -0.589464
C85   C     C_R   0.500307 0.500051 0.619056 0.823582
C86   C     C_R   0.000401 0.999882 0.619109 0.782403
C87   C     C_R   0.618473 0.499893 0.618338 0.792227
C88   C     C_R   0.118422 0.999891 0.618571 0.787647
C89   C     C_R   0.964382 0.959129 0.746369 -0.129340
C90   C     C_R   0.465428 0.541529 0.747486 -0.040967
C91   C     C_R   0.001943 0.999264 0.816424 -0.015901
C92   C     C_R   0.502152 0.500437 0.816755 -0.115826
C93   C     C_R   0.045338 0.034557 0.826906 -0.176726
C94   C     C_R   0.544836 0.464024 0.826631 -0.180693
H41   H     H_    0.077350 0.063813 0.882951 0.154156
H42   H     H_    0.576210 0.433892 0.882152 0.152742
C95   C     C_R   0.544418 0.463484 0.761678 -0.188680
C96   C     C_R   0.044916 0.035176 0.761984 -0.176816
H43   H     H_    0.575605 0.433228 0.768126 0.148755
H44   H     H_    0.076756 0.064577 0.769008 0.144012
C97   C     C_R   0.502820 0.501021 0.688093 -0.102555
C98   C     C_R   0.002516 0.998859 0.687703 -0.015846
C99   C     C_R   0.466606 0.542635 0.685053 -0.097478
C100  C     C_R   0.965423 0.958143 0.683761 -0.154794
C101  C     C_3   0.398966 0.557153 0.613964 0.607347
C102  C     C_3   0.897387 0.945728 0.612238 0.633532
C103  C     C_3   0.896424 0.946863 0.681909 0.736159
C104  C     C_3   0.397857 0.555963 0.683510 0.713835
C105  C     C_R   0.955936 0.031448 0.175706 -0.081077
C106  C     C_R   0.464071 0.541405 0.182746 -0.115187
C107  C     C_R   0.999095 0.998843 0.184142 -0.079671
C108  C     C_R   0.500203 0.499782 0.185603 -0.079971
C109  C     C_R   0.043191 0.963867 0.260399 -0.184373
C110  C     C_R   0.542083 0.462534 0.259561 -0.176863
H45   H     H_    0.077064 0.936637 0.269511 0.152746
H46   H     H_    0.572857 0.431772 0.265702 0.154327
C111  C     C_R   0.541821 0.462152 0.323750 -0.201145
C112  C     C_R   0.043002 0.963093 0.325000 -0.201746
H47   H     H_    0.572193 0.430996 0.378196 0.149739
H48   H     H_    0.076350 0.935101 0.382168 0.148623
C113  C     C_R   0.501534 0.500996 0.316239 -0.048424
C114  C     C_R   0.000478 0.999322 0.315769 -0.067863
C115  C     C_R   0.465760 0.543166 0.247995 0.003300
C116  C     C_R   0.957990 0.032831 0.240143 -0.034155
C117  C     C_3   0.398662 0.558848 0.186752 0.638910
C118  C     C_3   0.904810 0.075950 0.193941 0.657678
C119  C     C_3   0.901771 0.075049 0.119191 0.370347
C120  C     C_3   0.396705 0.557118 0.113476 0.440016
N1    N     N_2   0.687823 0.447301 0.583857 -0.428404
H49   H     H_    0.644443 0.464585 0.532533 0.240749
C121  C     C_3   0.691131 0.381111 0.581667 -0.656902
H50   H     H_    0.668571 0.366577 0.515921 0.221441
H51   H     H_    0.667111 0.359003 0.597208 0.234755
H52   H     H_    0.739748 0.365373 0.628526 0.227376
N2    N     N_2   0.187735 0.959151 0.578876 -0.430010
H53   H     H_    0.143842 0.976083 0.529387 0.237043
C122  C     C_3   0.192560 0.893961 0.571298 -0.662137
H54   H     H_    0.171364 0.883596 0.505082 0.218715
H55   H     H_    0.168212 0.867398 0.583430 0.234967
H56   H     H_    0.241481 0.879272 0.617883 0.230628
O49   O     O_3   0.806572 0.521638 0.962510 -0.705593
H57   H     H_    0.788413 0.479805 0.943321 0.302639
O50   O     O_3   0.807449 0.614873 0.909595 -0.699839
H58   H     H_    0.852340 0.608675 0.948541 0.336015
O51   O     O_3   0.305535 0.996490 0.962939 -0.709315
H59   H     H_    0.287637 0.955457 0.936472 0.303242
O52   O     O_3   0.306574 0.097616 0.927226 -0.719960
H60   H     H_    0.351716 0.092096 0.968216 0.333754
O53   O     O_3   0.362679 0.511526 0.549780 -0.752528
H61   H     H_    0.380933 0.470526 0.576442 0.300907
O54   O     O_3   0.387711 0.615766 0.578152 -0.697578
H62   H     H_    0.400460 0.613945 0.546992 0.334144
O55   O     O_3   0.881830 0.888434 0.570883 -0.734216
H63   H     H_    0.916492 0.859319 0.611694 0.304928
O56   O     O_3   0.864181 0.994448 0.552720 -0.698118
H64   H     H_    0.872598 0.992928 0.516247 0.315549
O57   O     O_3   0.880959 0.890607 0.694989 -0.722070
H65   H     H_    0.914021 0.860181 0.719269 0.288567
O58   O     O_3   0.863336 0.996525 0.673834 -0.667170
H66   H     H_    0.819200 0.986188 0.625222 0.354502
O59   O     O_3   0.360953 0.509486 0.673173 -0.704600
H67   H     H_    0.378794 0.468758 0.680393 0.299732
O60   O     O_3   0.387099 0.613502 0.699891 -0.697270
H68   H     H_    0.342526 0.621954 0.650623 0.354958
O61   O     O_3   0.388617 0.616778 0.203448 -0.753085
H69   H     H_    0.398975 0.612548 0.257973 0.338681
O62   O     O_3   0.365422 0.511709 0.183128 -0.788773
H70   H     H_    0.323949 0.528498 0.151079 0.335831
O63   O     O_3   0.919959 0.133146 0.235450 -0.706001
H71   H     H_    0.962961 0.143603 0.266895 0.307626
O64   O     O_3   0.855071 0.048060 0.174580 -0.754735
H72   H     H_    0.820319 0.077571 0.137135 0.340888
N3    N     N_2   0.917701 0.134445 0.107628 -0.435702
H73   H     H_    0.963545 0.146270 0.155885 0.224861
C123  C     C_3   0.889072 0.151906 0.021733 -0.610911
H74   H     H_    0.910871 0.194339 0.025135 0.214641
H75   H     H_    0.839486 0.161608 0.980005 0.230062
H76   H     H_    0.894251 0.114607 0.992700 0.262369
N4    N     N_2   0.844832 0.048797 0.037996 -0.408156
H77   H     H_    0.806122 0.074320 0.009896 0.251378
C124  C     C_3   0.834512 0.982884 0.030271 -0.611875
H78   H     H_    0.790241 0.972005 0.963528 0.215503
H79   H     H_    0.832210 0.966411 0.076209 0.252643
H80   H     H_    0.871283 0.957661 0.041984 0.243372
N5    N     N_2   0.385087 0.615001 0.069035 -0.409212
H81   H     H_    0.382776 0.608801 0.019738 0.264756
C125  C     C_3   0.418052 0.670799 0.117706 -0.618944
H82   H     H_    0.420981 0.701533 0.079799 0.199869
H83   H     H_    0.465563 0.660937 0.180545 0.217380
H84   H     H_    0.392591 0.696415 0.128475 0.282762
N6    N     N_2   0.360296 0.506507 0.052626 -0.424381
H85   H     H_    0.371423 0.463483 0.080533 0.271510
C126  C     C_3   0.294688 0.516672 0.981782 -0.611129
H86   H     H_    0.272841 0.474982 0.940562 0.218696
H87   H     H_    0.285149 0.555626 0.940672 0.232884
H88   H     H_    0.273690 0.526251 0.006463 0.227824
O65   O     O_3   0.309190 0.403371 0.241799 -0.699835
H89   H     H_    0.348303 0.418242 0.262688 0.353484
O66   O     O_3   0.806926 0.107598 0.259186 -0.696379
H90   H     H_    0.844539 0.096863 0.273269 0.375953

loop_
_geom_bond_atom_site_label_1
_geom_bond_atom_site_label_2
_geom_bond_distance
_ccdc_geom_bond_type
C55   H31   1.110809 S    
C53   H27   1.111526 S    
O17   C73   1.295357 A    
C27   C31   1.385276 A    
C44   C46   1.400310 A    
C94   H42   1.083279 S    
N6    H85   1.032550 S    
O17   Cu5   1.969283 S    
O45   C87   1.291286 A    
C81   C113  1.447042 S    
O40   Cu12  1.971498 S    
C124  H80   1.107652 S    
C11   C39   1.488388 S    
C99   C101  1.506171 S    
C19   C23   1.411383 A    
Cu8   O32   1.969283 S    
C42   C44   1.388840 A    
C94   C95   1.403106 A    
O64   H72   0.992063 S    
C9    C13   1.387810 A    
C117  C120  1.551913 S    
C79   C107  1.443656 S    
C86   C98   1.446460 S    
C20   C24   1.410929 A    
C11   C31   1.349073 A    
C95   H43   1.083258 S    
C73   C91   1.449591 S    
O9    C3    1.292761 A    
Cu6   O30   1.973282 S    
O8    Cu2   1.972381 S    
C125  H83   1.108956 S    
Cu5   O29   1.973282 S    
O5    C3    1.294484 A    
O6    C4    1.293518 A    
C58   C68   1.351960 A    
O51   H59   0.993309 S    
C47   O65   1.378620 S    
C109  H45   1.083361 S    
C111  C113  1.405026 A    
C37   H17   1.111499 S    
O54   H62   0.992207 S    
C39   H19   1.111279 S    
C10   C14   1.386354 A    
C102  C103  1.535657 S    
O37   C83   1.296742 A    
C104  O59   1.411910 S    
Cu1   O13   1.974406 S    
N1    H49   1.030493 S    
C38   H22   1.111674 S    
O34   C81   1.295434 A    
C46   H26   1.084233 S    
Cu11  Cu12  2.687475 S    
O28   Cu8   1.971573 S    
C57   C59   1.384496 A    
C48   C50   1.429074 A    
C53   C55   1.520443 S    
C35   H11   1.111454 S    
O5    Cu1   1.971683 S    
C43   C45   1.403876 A    
C31   C35   1.488135 S    
C17   C21   1.410645 A    
Cu11  O47   1.971516 S    
Cu12  O48   1.972834 S    
C106  C120  1.504339 S    
C19   H3    1.083320 S    
C49   C51   1.399522 A    
C29   C33   1.487658 S    
C54   H30   1.111523 S    
C32   C36   1.487525 S    
C119  N3    1.463503 S    
N5    C125  1.454186 S    
O47   C88   1.290804 A    
O8    C6    1.293954 A    
C62   H36   1.083362 S    
C121  H52   1.110647 S    
N4    C124  1.452493 S    
C65   C67   1.384353 A    
C41   C51   1.377342 A    
C63   N1    1.424916 S    
C33   C37   1.541810 S    
C24   H8    1.083349 S    
C69   C71   1.545357 S    
C105  C116  1.357675 A    
C56   H33   1.112163 S    
C96   H44   1.083387 S    
O33   C81   1.293154 A    
C93   C96   1.402313 A    
C59   C61   1.412925 A    
C39   H23   1.111496 S    
O35   Cu11  1.971551 S    
Cu10  O46   1.972834 S    
C58   C60   1.386260 A    
O43   C86   1.294272 A    
O38   Cu10  1.971498 S    
C34   H10   1.111435 S    
O53   H61   0.992274 S    
C104  O60   1.402308 S    
C72   O51   1.408915 S    
C12   C16   1.387380 A    
N6    C126  1.448752 S    
O59   H67   0.992507 S    
C110  H46   1.083339 S    
O24   Cu6   1.972677 S    
C2    C44   1.440682 S    
O49   H57   0.993303 S    
C89   C91   1.394967 A    
C4    C14   1.443431 S    
O38   C83   1.298150 A    
C50   C52   1.399415 A    
C96   C98   1.404748 A    
Cu9   O41   1.970799 S    
C45   H25   1.083973 S    
Cu5   Cu7   2.688149 S    
C21   C25   1.409378 A    
C47   C49   1.425329 A    
O28   C78   1.292669 A    
C122  H54   1.109645 S    
C97   C99   1.394973 A    
C102  O56   1.404441 S    
C117  O61   1.403896 S    
C27   C77   1.442428 S    
C63   C65   1.420902 A    
O6    Cu1   1.972381 S    
C34   C38   1.541972 S    
O29   C79   1.292351 A    
O10   C4    1.292190 A    
O30   C80   1.295799 A    
C123  H76   1.106150 S    
C71   O50   1.401962 S    
O9    Cu3   1.972138 S    
C62   C64   1.413638 A    
C92   C94   1.407783 A    
C126  H86   1.110410 S    
C69   H37   1.111924 S    
O4    Cu4   1.974215 S    
C112  H48   1.080819 S    
C70   H40   1.111715 S    
N2    H53   1.030317 S    
C103  O58   1.403339 S    
C114  C116  1.382313 A    
O44   C86   1.291641 A    
C9    C37   1.489828 S    
O27   Cu8   1.972894 S    
C7    C59   1.445644 S    
C61   C63   1.414843 A    
C28   C78   1.438031 S    
C42   C56   1.490514 S    
C26   C76   1.439952 S    
O7    C5    1.292813 A    
Cu3   O15   1.970165 S    
C70   C72   1.544761 S    
C72   O52   1.401071 S    
O14   C8    1.295834 A    
C100  C102  1.507630 S    
C60   C62   1.413306 A    
O62   H70   0.991680 S    
C115  C117  1.501799 S    
C124  H79   1.108315 S    
C105  C119  1.511072 S    
C106  C108  1.395224 A    
O11   C5    1.291629 A    
O12   Cu4   1.971443 S    
C49   C83   1.464227 S    
O21   Cu5   1.971361 S    
N3    C123  1.446924 S    
C120  N6    1.461633 S    
C45   C47   1.405129 A    
C18   C22   1.411027 A    
C1    C43   1.444200 S    
Cu12  O44   1.971497 S    
C118  C119  1.561098 S    
C122  H56   1.110636 S    
C102  O55   1.410714 S    
C66   C68   1.383616 A    
C117  O62   1.407625 S    
O56   H64   0.991726 S    
O23   Cu6   1.971361 S    
C30   C34   1.488005 S    
C123  H74   1.110897 S    
C71   O49   1.408526 S    
C82   C114  1.438124 S    
O60   H68   0.992307 S    
C98   C100  1.394714 A    
O1    C1    1.295986 A    
C68   C70   1.490781 S    
C126  H88   1.108720 S    
C64   N2    1.424571 S    
O25   Cu7   1.972894 S    
O50   H58   0.992376 S    
C103  O57   1.410981 S    
O41   C85   1.291447 A    
C85   C97   1.447910 S    
C120  N5    1.468313 S    
C61   H35   1.083463 S    
N4    H77   1.031372 S    
Cu10  O42   1.971497 S    
O37   Cu9   1.972815 S    
C55   H32   1.112127 S    
C53   H28   1.106110 S    
Cu9   O45   1.971516 S    
O31   C79   1.294354 A    
O63   H71   0.993015 S    
O32   C80   1.293105 A    
C46   C48   1.402688 A    
C89   C100  1.383807 A    
C38   H18   1.111486 S    
O1    Cu1   1.969932 S    
O2    Cu2   1.969932 S    
C40   H24   1.109660 S    
O35   C82   1.294329 A    
O4    C2    1.290092 A    
C25   C29   1.383904 A    
C23   H7    1.083215 S    
C33   H13   1.111461 S    
C57   C67   1.351409 A    
C13   C17   1.414209 A    
C28   C32   1.384156 A    
C15   C19   1.411313 A    
O66   H90   0.988122 S    
C91   C93   1.407593 A    
N5    H81   1.032232 S    
C118  O64   1.401115 S    
O20   Cu8   1.973498 S    
O7    Cu2   1.971683 S    
C37   H21   1.110484 S    
C125  H82   1.111753 S    
C21   H5    1.083254 S    
C109  C112  1.408490 A    
O18   Cu6   1.969283 S    
C22   C26   1.410981 A    
O39   Cu11  1.972815 S    
C125  H84   1.108277 S    
C121  H51   1.111367 S    
O22   Cu5   1.972677 S    
C119  N4    1.468219 S    
Cu2   Cu4   2.687130 S    
C52   C54   1.493610 S    
O19   C73   1.293831 A    
C11   C15   1.385521 A    
C56   H34   1.110746 S    
C111  H47   1.082574 S    
C12   C32   1.349326 A    
C36   C40   1.541363 S    
C90   C92   1.393327 A    
C106  C115  1.383173 A    
Cu1   Cu3   2.687130 S    
C74   C92   1.447843 S    
O3    C1    1.289616 A    
C18   H2    1.083181 S    
O24   C78   1.291128 A    
N1    C121  1.446080 S    
O55   H63   0.992814 S    
O40   C84   1.300965 A    
C89   C103  1.503866 S    
O11   Cu4   1.972138 S    
O36   Cu12  1.970858 S    
Cu7   O31   1.969283 S    
C42   C52   1.377778 A    
C58   C72   1.497886 S    
C101  O53   1.411184 S    
C108  C110  1.406349 A    
C126  H87   1.109685 S    
Cu4   O16   1.970165 S    
C34   H14   1.111417 S    
C5    C15   1.440850 S    
C6    C16   1.445461 S    
O27   C77   1.291935 A    
C40   H20   1.111537 S    
O65   H89   0.989884 S    
O12   C6    1.292753 A    
O26   C76   1.293318 A    
O22   C76   1.291437 A    
O23   C77   1.294003 A    
Cu9   Cu10  2.687475 S    
O25   C75   1.292401 A    
O21   C75   1.290785 A    
C54   H29   1.109424 S    
C35   H15   1.111739 S    
C123  H75   1.109857 S    
O57   H65   0.992978 S    
C118  O63   1.411620 S    
C90   C99   1.382976 A    
C65   C87   1.438115 S    
C25   C75   1.436809 S    
O33   Cu9   1.971551 S    
O26   Cu7   1.971573 S    
C67   C69   1.491642 S    
O42   C85   1.295260 A    
C66   C88   1.435944 S    
C69   H38   1.111696 S    
Cu2   O14   1.974406 S    
C93   H41   1.083266 S    
C95   C97   1.404997 A    
O13   C7    1.295776 A    
C48   O66   1.377900 S    
O61   H69   0.992383 S    
C12   C40   1.489614 S    
C17   H1    1.083043 S    
N2    C122  1.446822 S    
O2    C2    1.293806 A    
C51   C53   1.492385 S    
C64   C66   1.419582 A    
C112  C114  1.408585 A    
C41   C43   1.388592 A    
C80   C108  1.448985 S    
C35   C39   1.541463 S    
C16   C20   1.413573 A    
O20   C74   1.292648 A    
Cu11  O43   1.970799 S    
C124  H78   1.110250 S    
O10   Cu3   1.971443 S    
O48   C88   1.290076 A    
C101  O54   1.402828 S    
C20   H4    1.083116 S    
C54   C56   1.520189 S    
N3    H73   1.032322 S    
C36   H16   1.111450 S    
C10   C38   1.488864 S    
C8    C60   1.447490 S    
C90   C104  1.503052 S    
C107  C109  1.411997 A    
Cu6   Cu8   2.688149 S    
C122  H55   1.111382 S    
C57   C71   1.496611 S    
O39   C84   1.295027 A    
O3    Cu3   1.974215 S    
O58   H66   0.992295 S    
C41   C55   1.489565 S    
C23   C27   1.412461 A    
C26   C30   1.384870 A    
C101  C104  1.536051 S    
C33   H9    1.111747 S    
C24   C28   1.410081 A    
C14   C18   1.412457 A    
C9    C29   1.349363 A    
C110  C111  1.401030 A    
C116  C118  1.493380 S    
O18   C74   1.295728 A    
O52   H60   0.991981 S    
O34   Cu10  1.970858 S    
O15   C7    1.290974 A    
C22   H6    1.083210 S    
O16   C8    1.291857 A    
O19   Cu7   1.973498 S    
O36   C82   1.290313 A    
C113  C115  1.395901 A    
C70   H39   1.111837 S    
C10   C30   1.349274 A    
C105  C107  1.391906 A    
O46   C87   1.290603 A    
C36   H12   1.110086 S    
C50   C84   1.465931 S    
C121  H50   1.110377 S    
C3    C13   1.446587 S    
