data_mof_unit_57195.cif
_audit_creation_date              2012-12-10T17:53:21-0500
_audit_creation_method            fapswitch 2.2
_symmetry_space_group_name_H-M    P1
_symmetry_Int_Tables_number       1
_space_group_crystal_system       triclinic
_cell_length_a                    23.268055
_cell_length_b                    10.631965
_cell_length_c                    9.968216
_cell_angle_alpha                 88.946147
_cell_angle_beta                  89.890217
_cell_angle_gamma                 93.619734
_cell_volume                      2460.64104091

loop_
_atom_site_label
_atom_site_type_symbol
_atom_type_description
_atom_site_fract_x
_atom_site_fract_y
_atom_site_fract_z
_atom_type_partial_charge
C1    C     C_R   0.507931 0.262169 0.501891 0.928686
C2    C     C_R   0.122858 0.615531 0.606987 0.638430
C3    C     C_R   0.248672 0.652754 0.454977 0.480856
C4    C     C_R   0.389647 0.502509 0.499705 0.863025
C5    C     C_R   0.307550 0.635775 0.449934 0.333963
C6    C     C_R   0.328092 0.519704 0.497606 -0.342020
C7    C     C_R   0.288806 0.421754 0.545383 0.437255
C8    C     C_R   0.230528 0.442606 0.551117 -0.109462
C9    C     C_R   0.210521 0.556437 0.505224 -0.010720
C10   C     C_R   0.756776 0.662280 0.439728 0.499143
C11   C     C_R   0.697054 0.638607 0.441309 0.312563
C12   C     C_R   0.970877 0.525279 0.250048 0.367170
C13   C     C_R   0.672531 0.525187 0.498212 -0.323781
C14   C     C_R   0.707592 0.435996 0.555048 0.354005
C15   C     C_R   0.766942 0.459298 0.553060 -0.143295
C16   C     C_R   0.496289 0.739724 0.499188 0.893531
C17   C     C_R   0.791643 0.570773 0.495390 0.017965
C18   C     C_R   0.521177 0.106134 0.759808 0.537768
C19   C     C_R   0.495873 0.043268 0.872516 -0.370639
C20   C     C_R   0.459021 0.936708 0.856655 -0.112917
C21   C     C_R   0.451274 0.883825 0.730481 0.515758
C22   C     C_R   0.482739 0.938267 0.618207 -0.126092
C23   C     C_R   0.030989 0.518952 0.253473 0.381818
C24   C     C_R   0.508261 0.060106 0.629423 -0.035675
C25   C     C_R   0.519476 0.129886 0.508290 -0.129747
C26   C     C_R   0.528061 0.066983 0.387924 0.389363
C27   C     C_R   0.516351 0.939095 0.384911 -0.161369
C28   C     C_R   0.610425 0.502886 0.499704 1.023316
C29   C     C_R   0.493555 0.874298 0.498177 -0.158057
C30   C     C_R   0.424792 0.334490 0.151328 -0.155708
C31   C     C_R   0.386121 0.249938 0.092798 -0.281948
C32   C     C_R   0.383335 0.243737 0.956029 0.328192
C33   C     C_R   0.420773 0.322440 0.874411 0.411255
C34   C     C_R   0.062028 0.548291 0.372791 -0.176306
C35   C     C_R   0.461601 0.414797 0.931866 -0.004357
C36   C     C_R   0.462506 0.417040 0.076308 0.089666
C37   C     C_R   0.535474 0.579640 0.070637 -0.051217
C38   C     C_R   0.535919 0.580550 0.928779 0.476509
C39   C     C_R   0.882472 0.629538 0.597203 0.577312
C40   C     C_R   0.879822 0.551692 0.374134 0.609178
C41   C     C_R   0.940597 0.557354 0.366868 -0.180985
C42   C     C_R   0.971905 0.594698 0.482818 -0.053909
C43   C     C_R   0.942486 0.634042 0.597150 -0.068065
C44   C     C_R   0.032440 0.590956 0.486113 -0.100470
C45   C     C_R   0.063088 0.627826 0.604116 -0.114474
C46   C     C_R   0.032659 0.673817 0.714600 0.443088
C47   C     C_R   0.973133 0.675307 0.710076 -0.136016
C48   C     C_R   0.121828 0.536632 0.383995 0.655160
Cl1   Cl    Cl    0.935657 0.496409 0.094530 -0.381422
Cl2   Cl    Cl    0.653408 0.754867 0.374878 -0.479271
Cl3   Cl    Cl    0.678752 0.291800 0.623763 -0.441422
Cl4   Cl    Cl    0.557937 0.141554 0.241608 -0.551376
Cl5   Cl    Cl    0.065374 0.474960 0.103617 -0.333706
Cl6   Cl    Cl    0.329556 0.138201 0.889289 -0.459363
Cl7   Cl    Cl    0.065162 0.732109 0.862910 -0.371123
Cl8   Cl    Cl    0.222373 0.795521 0.395655 -0.400508
H1    H     H_    0.794350 0.389650 0.594338 0.212582
H2    H     H_    0.565566 0.224529 0.872298 0.355417
H3    H     H_    0.398367 0.778842 0.625517 0.339361
H4    H     H_    0.405260 0.220020 0.718791 0.343850
H5    H     H_    0.572155 0.655659 0.770117 0.388949
H6    H     H_    0.383143 0.712785 0.395306 0.330398
H7    H     H_    0.342376 0.288887 0.540229 0.335570
H8    H     H_    0.821567 0.781676 0.394286 0.349574
H9    H     H_    0.503702 0.078435 0.972454 0.209233
H10   H     H_    0.436860 0.893870 0.943266 0.202965
H11   H     H_    0.526559 0.890185 0.294261 0.211354
H12   H     H_    0.564535 0.644812 0.123610 0.202044
H13   H     H_    0.422889 0.332487 0.257131 0.232165
H14   H     H_    0.357418 0.189511 0.155155 0.227787
H15   H     H_    0.950739 0.708226 0.796869 0.237732
H16   H     H_    0.200106 0.367892 0.586475 0.213905
N1    N     N_R   0.852869 0.586490 0.488062 -0.362795
N2    N     N_R   0.149997 0.569803 0.498967 -0.345464
N3    N     N_R   0.499460 0.498800 0.142780 -0.138827
N4    N     N_R   0.499440 0.498720 0.857170 -0.142483
O1    O     O_R   0.500000 0.316780 0.614690 -0.542824
O2    O     O_R   0.583850 0.500050 0.614640 -0.605326
O3    O     O_R   0.583840 0.500030 0.385310 -0.572296
O4    O     O_2   0.853606 0.665852 0.706090 -0.477925
O5    O     O_3   0.561987 0.204871 0.775666 -0.661464
O6    O     O_3   0.410726 0.784175 0.720205 -0.706845
O7    O     O_3   0.414851 0.309584 0.740112 -0.693973
O8    O     O_3   0.574341 0.666782 0.867253 -0.722944
O9    O     O_3   0.342687 0.734839 0.397930 -0.700218
O10   O     O_3   0.304999 0.303520 0.582814 -0.658281
O11   O     O_3   0.779258 0.774554 0.383127 -0.638948
O12   O     O_2   0.847269 0.508771 0.270964 -0.429155
O13   O     O_2   0.152355 0.491279 0.282620 -0.435143
O14   O     O_2   0.154178 0.646949 0.716338 -0.413466
O15   O     O_R   0.500000 0.316750 0.385360 -0.615556
O16   O     O_R   0.416160 0.499970 0.614690 -0.501140
O17   O     O_R   0.416150 0.499950 0.385360 -0.654675
O18   O     O_R   0.500000 0.683250 0.614640 -0.614024
O19   O     O_R   0.500000 0.683220 0.385310 -0.624600
Zn1   Zn    Zn3+2 0.500000 0.500020 0.653130 1.060725
Zn2   Zn    Zn3+2 0.500000 0.499980 0.346870 1.005208

loop_
_geom_bond_atom_site_label_1
_geom_bond_atom_site_label_2
_ccdc_geom_bond_type
C1    C25   S    
C22   C29   A    
C27   C29   A    
C1    O1    A    
C41   C42   A    
C19   C20   A    
H3    O6    S    
N3    Zn2   S    
C12   Cl1   S    
C7    C8    A    
C38   N4    A    
C45   C46   A    
C12   C23   A    
C26   C27   A    
C37   C38   A    
C18   C24   A    
C20   H10   S    
C30   C31   A    
H4    O7    S    
C7    O10   S    
C10   C17   A    
C37   H12   S    
O16   Zn1   S    
C18   O5    S    
C40   N1    A    
C18   C19   A    
C2    O14   S    
C28   O3    A    
C31   H14   S    
C14   Cl3   S    
O2    Zn1   S    
C8    C9    A    
C46   Cl7   S    
C13   C28   S    
C28   O2    A    
H8    O11   S    
C2    N2    A    
C5    O9    S    
C37   N3    A    
C1    O15   A    
C21   C22   A    
C17   N1    S    
C15   H1    S    
C42   C44   A    
C32   Cl6   S    
C23   Cl5   S    
C2    C45   A    
C10   O11   S    
H6    O9    S    
C35   N4    A    
C8    H16   S    
C48   N2    A    
C34   C44   A    
C24   C25   A    
C4    C6    S    
H2    O5    S    
C39   C43   A    
C16   C29   S    
C35   C36   A    
C12   C41   A    
C3    C9    A    
C36   N3    A    
C26   Cl4   S    
C3    Cl8   S    
C31   C32   A    
C23   C34   A    
O15   Zn2   S    
O18   Zn1   S    
C33   O7    S    
C47   H15   S    
C40   C41   A    
C48   O13   S    
H7    O10   S    
C22   C24   A    
C34   C48   A    
C42   C43   A    
O17   Zn2   S    
C30   H13   S    
C44   C45   A    
C15   C17   A    
C46   C47   A    
C16   O19   A    
C38   O8    S    
O3    Zn2   S    
C3    C5    A    
H5    O8    S    
O19   Zn2   S    
C6    C7    A    
O1    Zn1   S    
C16   O18   A    
C30   C36   A    
C32   C33   A    
C40   O12   S    
C25   C26   A    
C11   Cl2   S    
C39   O4    S    
C21   O6    S    
C11   C13   A    
C5    C6    A    
C33   C35   A    
C19   H9    S    
C39   N1    A    
C27   H11   S    
C10   C11   A    
C4    O17   A    
C20   C21   A    
C9    N2    S    
C14   C15   A    
C13   C14   A    
C43   C47   A    
N4    Zn1   S    
C4    O16   A    
