data_mof_unit_13348.cif
_audit_creation_date              2012-10-26T18:50:29-0400
_audit_creation_method            fapswitch 2.2
_symmetry_space_group_name_H-M    P1
_symmetry_Int_Tables_number       1
_space_group_crystal_system       triclinic
_cell_length_a                    9.640042
_cell_length_b                    10.820083
_cell_length_c                    15.382979
_cell_angle_alpha                 83.780063
_cell_angle_beta                  74.033423
_cell_angle_gamma                 90.950468
_cell_volume                      1531.74990591

loop_
_atom_site_label
_atom_site_type_symbol
_atom_type_description
_atom_site_fract_x
_atom_site_fract_y
_atom_site_fract_z
_atom_type_partial_charge
C1    C     C_R   0.995635 0.261785 0.507207 0.553838
C2    C     C_R   0.239791 0.605335 0.041040 0.034791
C3    C     C_R   0.333925 0.555829 0.090465 0.031668
C4    C     C_R   0.918850 0.507704 0.671761 0.564605
C5    C     C_R   0.093050 0.615786 0.085463 -0.134273
C6    C     C_R   0.038090 0.574368 0.177910 -0.122084
C7    C     C_R   0.274756 0.509852 0.182751 -0.122107
C8    C     C_R   0.071845 0.098486 0.657341 -0.001560
C9    C     C_R   0.149759 0.029448 0.708307 -0.116908
C10   C     C_R   0.181383 0.907865 0.693050 -0.124639
C11   C     C_R   0.130433 0.853054 0.629444 -0.107805
C12   C     C_R   0.680983 0.554477 0.906266 0.026983
C13   C     C_R   0.060859 0.923822 0.571997 0.013600
C14   C     C_R   0.043088 0.052090 0.580864 0.018176
C15   C     C_R   0.987401 0.125915 0.516945 0.005815
C16   C     C_R   0.999445 0.736561 0.504140 0.549816
C17   C     C_R   0.930334 0.069734 0.455994 -0.142483
C18   C     C_R   0.933386 0.942554 0.454196 -0.126243
C19   C     C_R   0.000458 0.869562 0.509883 0.020408
C20   C     C_R   0.712440 0.661652 0.373402 -0.046226
C21   C     C_R   0.684303 0.738577 0.304225 0.025081
C22   C     C_R   0.545873 0.743360 0.298259 -0.159888
C23   C     C_R   0.778810 0.531569 0.959318 0.037218
C24   C     C_R   0.431580 0.674555 0.362750 -0.011727
C25   C     C_R   0.456900 0.584102 0.434958 0.126893
C26   C     C_R   0.606395 0.581376 0.436879 0.104397
C27   C     C_R   0.545358 0.420493 0.558929 0.093977
C28   C     C_R   0.081977 0.501100 0.327476 0.555469
C29   C     C_R   0.398229 0.420655 0.558561 0.019532
C30   C     C_R   0.875912 0.521218 0.770591 0.002459
C31   C     C_R   0.129415 0.523000 0.227414 0.010714
C32   C     C_R   0.924144 0.513757 0.917837 -0.138824
C33   C     C_R   0.974838 0.513366 0.823994 -0.014460
C34   C     C_R   0.534834 0.580631 0.949846 0.020585
C35   C     C_R   0.730028 0.539685 0.813108 -0.115418
C36   C     C_1   0.981497 0.188140 0.704325 0.208535
C37   C     C_1   0.585347 0.331741 0.623302 0.250770
C38   C     C_1   0.301855 0.717969 0.343689 0.273394
C39   C     C_1   0.127855 0.499826 0.786895 0.211186
C40   C     C_1   0.487327 0.701595 0.811570 0.184737
C41   C     C_R   0.483876 0.553714 0.046459 0.024125
C42   C     C_R   0.585170 0.530905 0.096813 -0.131954
C43   C     C_R   0.730413 0.523513 0.053716 -0.132713
C44   C     C_R   0.438866 0.636850 0.902748 -0.010628
C45   C     C_R   0.293670 0.647767 0.948711 -0.123426
Cu1   Cu    Cu3+1 0.140660 0.499990 0.500010 0.966543
Cu2   Cu    Cu3+1 0.859340 0.500010 0.499990 0.970730
H1    H     H_    0.804308 0.506135 0.094957 0.108198
H2    H     H_    0.528031 0.807326 0.243030 0.132027
H3    H     H_    0.319892 0.355256 0.606185 0.132467
H4    H     H_    0.925566 0.586244 0.211144 0.140242
H5    H     H_    0.222080 0.691273 0.912222 0.110415
H6    H     H_    0.998452 0.497540 0.958963 0.114315
H7    H     H_    0.653682 0.534993 0.773756 0.161929
H8    H     H_    0.556145 0.523698 0.170141 0.110566
H9    H     H_    0.803170 0.793774 0.175171 0.235289
H10   H     H_    0.772321 0.907867 0.244066 0.241156
H11   H     H_    0.021388 0.658810 0.049131 0.105197
H12   H     H_    0.885359 0.125044 0.408202 0.132691
H13   H     H_    0.173547 0.065278 0.766056 0.128493
H14   H     H_    0.235046 0.852603 0.735923 0.142975
H15   H     H_    0.144800 0.754769 0.628427 0.161581
H16   H     H_    0.887512 0.901283 0.406545 0.148131
H17   H     H_    0.821601 0.668522 0.373299 0.213513
H18   H     H_    0.339965 0.463331 0.221815 0.118747
N1    N     N_R   0.648320 0.501210 0.499140 -0.262134
N2    N     N_R   0.352470 0.501290 0.499110 -0.251352
N3    N     N_1   0.904670 0.254587 0.745847 -0.282546
N4    N     N_1   0.616671 0.259979 0.675275 -0.268041
N5    N     N_3   0.798579 0.814799 0.240655 -0.648899
N6    N     N_1   0.204482 0.759321 0.322156 -0.309130
N7    N     N_1   0.250731 0.489388 0.758129 -0.313652
N8    N     N_1   0.525569 0.753780 0.738683 -0.287902
O1    O     O_R   0.118810 0.319640 0.500010 -0.501444
O2    O     O_R   0.881240 0.319660 0.500000 -0.490009
O3    O     O_R   0.055570 0.499980 0.629840 -0.498223
O4    O     O_R   0.818000 0.500010 0.629830 -0.483961
O5    O     O_R   0.118760 0.680340 0.500000 -0.510242
O6    O     O_R   0.881190 0.680360 0.499990 -0.520952
O7    O     O_R   0.182000 0.499990 0.370170 -0.500273
O8    O     O_R   0.944430 0.500020 0.370160 -0.531850

loop_
_geom_bond_atom_site_label_1
_geom_bond_atom_site_label_2
_ccdc_geom_bond_type
C37   N4    T    
C27   C29   A    
C41   C42   A    
C25   N2    A    
Cu2   O6    S    
C11   H15   S    
Cu1   O3    S    
C12   C23   A    
C33   C39   S    
C5    H11   S    
C1    O1    A    
C3    C7    A    
C5    C6    A    
C18   H16   S    
C23   C43   A    
C40   N8    T    
C18   C19   A    
C8    C36   S    
C29   N2    A    
C8    C9    A    
C24   C38   S    
C39   N7    T    
C1    C15   S    
C6    H4    S    
C9    C10   A    
Cu2   N1    S    
C6    C31   A    
C13   C14   A    
C35   H7    S    
C38   N6    T    
C34   C41   A    
C29   H3    S    
C2    C45   A    
C7    C31   A    
C13   C19   A    
C1    O2    A    
C34   C44   A    
C24   C25   A    
Cu1   O5    S    
C45   H5    S    
C25   C26   A    
Cu1   N2    S    
C26   N1    A    
C20   H17   S    
C42   H8    S    
C7    H18   S    
C17   C18   A    
C12   C35   A    
C17   H12   S    
C22   H2    S    
C30   C35   A    
H9    N5    S    
H10   N5    S    
C22   C24   A    
C10   H14   S    
C42   C43   A    
Cu2   O4    S    
C12   C34   A    
C32   H6    S    
Cu1   O1    S    
C44   C45   A    
C43   H1    S    
C15   C17   A    
Cu1   Cu2   S    
C3    C41   A    
C8    C14   A    
C30   C33   A    
C28   O8    A    
C28   C31   S    
C36   N3    T    
C21   N5    S    
C16   O6    A    
C23   C32   A    
C9    H13   S    
C2    C3    A    
Cu2   O2    S    
C4    O4    A    
C27   N1    A    
C32   C33   A    
Cu1   O7    S    
C11   C13   A    
C20   C26   A    
C27   C37   S    
C16   C19   S    
C16   O5    A    
Cu2   O8    S    
C28   O7    A    
C4    O3    A    
C10   C11   A    
C2    C5    A    
C40   C44   S    
C20   C21   A    
C14   C15   A    
C21   C22   A    
C4    C30   S    
