data_mof_unit_7074.cif
_audit_creation_date              2012-10-26T20:50:29-0400
_audit_creation_method            fapswitch 2.2
_symmetry_space_group_name_H-M    P1
_symmetry_Int_Tables_number       1
_space_group_crystal_system       triclinic
_cell_length_a                    19.388655
_cell_length_b                    18.362069
_cell_length_c                    10.934965
_cell_angle_alpha                 91.339542
_cell_angle_beta                  92.436332
_cell_angle_gamma                 89.456883
_cell_volume                      3888.29828043

loop_
_atom_site_label
_atom_site_type_symbol
_atom_type_description
_atom_site_fract_x
_atom_site_fract_y
_atom_site_fract_z
_atom_type_partial_charge
C1    C     C_R   0.367886 0.500527 0.502367 0.540461
C2    C     C_R   0.039827 0.560872 0.481171 -0.097823
C3    C     C_R   0.641300 0.589314 0.065622 -0.095497
C4    C     C_R   0.726580 0.360501 0.488102 0.043488
C5    C     C_R   0.753348 0.306548 0.567017 -0.121298
C6    C     C_R   0.735513 0.233613 0.547437 -0.121088
C7    C     C_R   0.687764 0.214359 0.453540 -0.106013
C8    C     C_R   0.659023 0.267605 0.378483 -0.111614
C9    C     C_R   0.681099 0.339583 0.390759 -0.046758
C10   C     C_R   0.271031 0.403481 0.352523 0.046698
C11   C     C_R   0.306453 0.433264 0.256194 -0.072104
C12   C     C_R   0.319789 0.391118 0.152096 -0.116037
C13   C     C_R   0.075839 0.512886 0.558786 0.032910
C14   C     C_R   0.297127 0.319279 0.141587 -0.128940
C15   C     C_R   0.262058 0.288952 0.236942 -0.123660
C16   C     C_R   0.249514 0.330564 0.342492 -0.088260
C17   C     C_R   0.844885 0.644964 0.582287 0.036425
C18   C     C_R   0.878842 0.651986 0.698130 -0.067225
C19   C     C_R   0.913022 0.716397 0.732697 -0.099988
C20   C     C_R   0.913899 0.774091 0.651799 -0.105501
C21   C     C_R   0.879994 0.767672 0.536770 -0.116752
C22   C     C_R   0.844776 0.703793 0.502628 -0.106367
C23   C     C_R   0.166311 0.621817 0.684582 0.030616
C24   C     C_R   0.931621 0.513583 0.546975 0.029609
C25   C     C_R   0.175377 0.694162 0.649777 -0.108141
C26   C     C_R   0.146474 0.751551 0.717232 -0.120152
C27   C     C_R   0.108804 0.737200 0.819980 -0.107150
C28   C     C_R   0.100091 0.665430 0.855747 -0.109487
C29   C     C_R   0.128791 0.607871 0.788537 -0.081152
C30   C     C_R   0.039967 0.465766 0.631579 -0.125678
C31   C     C_R   0.968044 0.466560 0.626543 -0.125215
C32   C     C_R   0.442462 0.719756 0.454207 0.105899
C33   C     C_R   0.555202 0.723531 0.543514 0.107111
C34   C     C_R   0.434094 0.795778 0.476528 -0.048719
C35   C     C_R   0.557971 0.798826 0.519487 -0.047037
C36   C     C_R   0.494662 0.837854 0.500218 -0.014852
C37   C     C_R   0.633000 0.499641 0.499608 0.542249
C38   C     C_R   0.539269 0.959074 0.589915 -0.011755
C39   C     C_R   0.447798 0.965143 0.435780 -0.017947
C40   C     C_R   0.500522 0.499224 0.261525 0.548627
C41   C     C_R   0.494565 0.501102 0.736696 0.548756
C42   C     C_R   0.553658 0.032611 0.569081 -0.020219
C43   C     C_R   0.442764 0.040688 0.463041 -0.015658
C44   C     C_R   0.501151 0.078046 0.515768 -0.043887
C45   C     C_R   0.493193 0.921109 0.508392 -0.033001
C46   C     C_R   0.487516 0.198046 0.398800 -0.032128
C47   C     C_R   0.526641 0.206448 0.612909 -0.040839
C48   C     C_R   0.814425 0.574070 0.542399 -0.015703
C49   C     C_R   0.481391 0.275168 0.399151 0.033559
C50   C     C_R   0.525756 0.283006 0.602360 0.050869
C51   C     C_R   0.506144 0.161488 0.509662 0.009298
C52   C     C_R   0.483099 0.563816 0.065248 0.001764
C53   C     C_R   0.477905 0.566511 0.939508 -0.037979
C54   C     C_R   0.493102 0.498280 0.126334 -0.024032
C55   C     C_R   0.481463 0.502673 0.868003 -0.032693
C56   C     C_R   0.488702 0.432669 0.054064 -0.051610
C57   C     C_R   0.469301 0.437135 0.927404 -0.035391
C58   C     C_3   0.507367 0.641669 0.935843 -0.123651
C59   C     C_R   0.194347 0.560935 0.610071 -0.010991
C60   C     C_3   0.517301 0.636753 0.076132 -0.117819
C61   C     C_R   0.752574 0.436275 0.501426 -0.025731
C62   C     C_R   0.248531 0.451418 0.454611 -0.020275
C63   C     C_R   0.824488 0.443445 0.512948 -0.138467
C64   C     C_R   0.178232 0.453295 0.478529 -0.141607
C65   C     C_R   0.855608 0.510845 0.535326 -0.000555
C66   C     C_R   0.150992 0.507579 0.554446 -0.001739
C67   C     C_R   0.537886 0.373236 0.083843 0.057781
C68   C     C_R   0.516344 0.300880 0.085679 -0.111794
C69   C     C_R   0.564979 0.244428 0.080795 -0.127961
C70   C     C_R   0.743048 0.568531 0.520430 -0.126140
C71   C     C_R   0.635434 0.259758 0.082204 -0.117933
C72   C     C_R   0.657482 0.331659 0.084681 -0.132150
C73   C     C_R   0.608986 0.388134 0.085241 -0.097931
C74   C     C_R   0.417656 0.386427 0.867942 0.044244
C75   C     C_R   0.433435 0.313568 0.838372 -0.088492
C76   C     C_R   0.383892 0.268856 0.778703 -0.111003
C77   C     C_R   0.318808 0.296836 0.745128 -0.097683
C78   C     C_R   0.302956 0.369637 0.771299 -0.105077
C79   C     C_R   0.352012 0.414220 0.831974 -0.094302
C80   C     C_1   0.393109 0.681711 0.374568 0.242670
C81   C     C_R   0.265159 0.557340 0.591038 -0.145844
C82   C     C_1   0.605180 0.691514 0.627656 0.230599
C83   C     C_R   0.363502 0.827830 0.492578 0.025284
C84   C     C_R   0.309327 0.819305 0.403247 -0.075164
C85   C     C_R   0.244516 0.850821 0.421089 -0.105684
C86   C     C_R   0.232908 0.891800 0.527368 -0.104968
C87   C     C_R   0.286070 0.901281 0.616134 -0.117445
C88   C     C_R   0.350788 0.869385 0.599120 -0.086825
C89   C     C_R   0.625136 0.833119 0.493193 0.010066
C90   C     C_R   0.681397 0.834630 0.578921 -0.078833
C91   C     C_R   0.741506 0.871888 0.554003 -0.093833
C92   C     C_R   0.710222 0.500319 0.504182 -0.010238
C93   C     C_R   0.747207 0.905860 0.442021 -0.097597
C94   C     C_R   0.692456 0.903221 0.354982 -0.112448
C95   C     C_R   0.631715 0.867245 0.380351 -0.100666
C96   C     C_1   0.567407 0.925840 0.700300 0.199097
C97   C     C_1   0.413924 0.937286 0.324182 0.216760
C98   C     C_1   0.623992 0.055355 0.593533 0.218508
C99   C     C_1   0.377659 0.077969 0.438754 0.219922
C100  C     C_R   0.474389 0.156658 0.281641 0.011976
C101  C     C_R   0.414163 0.170330 0.209853 -0.099302
C102  C     C_R   0.395706 0.124902 0.109906 -0.102881
C103  C     C_R   0.292820 0.502713 0.514893 0.004730
C104  C     C_R   0.437023 0.064792 0.081458 -0.084152
C105  C     C_R   0.498521 0.052034 0.149415 -0.113744
C106  C     C_R   0.518113 0.098729 0.247117 -0.109663
C107  C     C_R   0.554441 0.175957 0.729749 0.006284
C108  C     C_R   0.621188 0.195329 0.773382 -0.077561
C109  C     C_R   0.656104 0.153458 0.861628 -0.085970
C110  C     C_R   0.623412 0.094468 0.911911 -0.089998
C111  C     C_R   0.555306 0.078364 0.875467 -0.100571
C112  C     C_R   0.519866 0.120467 0.788164 -0.102948
C113  C     C_R   0.455888 0.701500 0.902994 0.039842
C114  C     C_R   0.968025 0.560686 0.474259 -0.098415
C115  C     C_R   0.474746 0.774128 0.929328 -0.088486
C116  C     C_R   0.425791 0.830207 0.919334 -0.097877
C117  C     C_R   0.357749 0.814390 0.881752 -0.104176
C118  C     C_R   0.339290 0.743047 0.848803 -0.113466
C119  C     C_R   0.388010 0.686712 0.858642 -0.064567
C120  C     C_R   0.592123 0.634159 0.122436 0.034194
C121  C     C_R   0.613067 0.677236 0.224962 -0.060816
C122  C     C_R   0.681421 0.674706 0.270734 -0.105271
C123  C     C_R   0.729436 0.629014 0.214761 -0.106764
C124  C     C_R   0.709408 0.586552 0.112163 -0.114630
Cu1   Cu    Cu3+1 0.500000 0.573360 0.500000 0.973771
Cu2   Cu    Cu3+1 0.500000 0.426640 0.500000 0.959321
H1    H     H_    0.464194 0.302495 0.316857 0.131824
H2    H     H_    0.067432 0.596577 0.423147 0.110874
H3    H     H_    0.067694 0.428014 0.690823 0.098750
H4    H     H_    0.940740 0.429822 0.683202 0.099372
H5    H     H_    0.461890 0.288333 0.082611 0.107829
H6    H     H_    0.548131 0.188815 0.073922 0.148568
H7    H     H_    0.673074 0.215988 0.085042 0.107632
H8    H     H_    0.712052 0.343669 0.085912 0.104895
H9    H     H_    0.626969 0.443398 0.082757 0.100624
H10   H     H_    0.484483 0.291762 0.857274 0.117574
H11   H     H_    0.396215 0.212746 0.756391 0.108847
H12   H     H_    0.545815 0.316182 0.678200 0.134469
H13   H     H_    0.280915 0.262277 0.697806 0.111340
H14   H     H_    0.252755 0.391662 0.744229 0.110255
H15   H     H_    0.338786 0.470684 0.851170 0.092114
H16   H     H_    0.317540 0.791698 0.316778 0.140156
H17   H     H_    0.203549 0.844407 0.351411 0.109059
H18   H     H_    0.182844 0.916628 0.540552 0.103026
H19   H     H_    0.277219 0.933664 0.698012 0.097581
H20   H     H_    0.391558 0.878061 0.668385 0.122355
H21   H     H_    0.677998 0.810385 0.667484 0.148683
H22   H     H_    0.783541 0.874919 0.622191 0.119952
H23   H     H_    0.555440 0.644080 0.884479 0.159050
H24   H     H_    0.793956 0.934460 0.422932 0.103144
H25   H     H_    0.696803 0.929628 0.268218 0.103723
H26   H     H_    0.589463 0.866434 0.312238 0.108324
H27   H     H_    0.379946 0.213968 0.235511 0.122987
H28   H     H_    0.348378 0.135126 0.056773 0.102247
H29   H     H_    0.421472 0.028275 0.006409 0.101028
H30   H     H_    0.530821 0.005614 0.127111 0.104414
H31   H     H_    0.565878 0.087980 0.298744 0.105055
H32   H     H_    0.648096 0.239444 0.733075 0.112022
H33   H     H_    0.708990 0.166023 0.889322 0.097277
H34   H     H_    0.484989 0.675870 0.128760 0.139107
H35   H     H_    0.650853 0.061129 0.978582 0.105598
H36   H     H_    0.531130 0.030799 0.909885 0.115099
H37   H     H_    0.468095 0.104983 0.757747 0.099712
H38   H     H_    0.526741 0.786817 0.962807 0.125984
H39   H     H_    0.440334 0.885736 0.942784 0.116659
H40   H     H_    0.319517 0.857618 0.876597 0.107009
H41   H     H_    0.286844 0.731137 0.817978 0.126146
H42   H     H_    0.371764 0.631680 0.835672 0.106219
H43   H     H_    0.576437 0.712590 0.269794 0.103307
H44   H     H_    0.696943 0.708031 0.349853 0.108870
H45   H     H_    0.857123 0.395396 0.504862 0.112562
H46   H     H_    0.782248 0.626310 0.250259 0.101063
H47   H     H_    0.746682 0.551406 0.068618 0.104072
H48   H     H_    0.626993 0.556098 0.985679 0.108042
H49   H     H_    0.789306 0.320716 0.642140 0.097691
H50   H     H_    0.757927 0.192448 0.606481 0.139152
H51   H     H_    0.672623 0.158451 0.437830 0.135767
H52   H     H_    0.619529 0.252533 0.311140 0.131277
H53   H     H_    0.661360 0.379479 0.326827 0.130743
H54   H     H_    0.321725 0.489872 0.259473 0.124938
H55   H     H_    0.346327 0.415068 0.078743 0.122217
H56   H     H_    0.143245 0.415676 0.430306 0.114974
H57   H     H_    0.306991 0.287055 0.059898 0.115728
H58   H     H_    0.244678 0.233128 0.229072 0.123065
H59   H     H_    0.221712 0.306511 0.415090 0.104736
H60   H     H_    0.879696 0.607121 0.760777 0.106918
H61   H     H_    0.939458 0.721272 0.821658 0.101853
H62   H     H_    0.940954 0.823689 0.678109 0.101079
H63   H     H_    0.881079 0.812242 0.473875 0.103175
H64   H     H_    0.819715 0.699531 0.412843 0.091654
H65   H     H_    0.204054 0.706018 0.569799 0.122217
H66   H     H_    0.153157 0.807164 0.689892 0.108906
H67   H     H_    0.713043 0.618232 0.521154 0.154574
H68   H     H_    0.086362 0.781691 0.871879 0.099831
H69   H     H_    0.070948 0.654382 0.935408 0.098912
H70   H     H_    0.121749 0.552515 0.817369 0.102803
H71   H     H_    0.298892 0.597394 0.636077 0.118807
H72   H     H_    0.940921 0.595964 0.410053 0.107948
N1    N     N_R   0.500000 0.683620 0.500000 -0.268195
N2    N     N_R   0.500000 0.316380 0.500000 -0.236957
N3    N     N_1   0.353747 0.651591 0.309243 -0.338183
N4    N     N_1   0.644502 0.666597 0.697877 -0.349591
N5    N     N_1   0.589246 0.899760 0.789351 -0.348961
N6    N     N_1   0.387540 0.915802 0.233646 -0.328854
N7    N     N_1   0.681186 0.070498 0.613625 -0.339275
N8    N     N_1   0.325362 0.107467 0.420261 -0.325290
O1    O     O_R   0.400190 0.561980 0.499980 -0.501575
O2    O     O_R   0.599810 0.561980 0.500020 -0.495049
O3    O     O_R   0.400190 0.438070 0.500040 -0.481262
O4    O     O_R   0.599810 0.438070 0.499960 -0.501456
O5    O     O_R   0.500000 0.561960 0.319660 -0.491541
O6    O     O_R   0.500000 0.561960 0.680340 -0.496287
O7    O     O_R   0.500000 0.438060 0.319720 -0.511102
O8    O     O_R   0.500000 0.438060 0.680280 -0.505818

loop_
_geom_bond_atom_site_label_1
_geom_bond_atom_site_label_2
_ccdc_geom_bond_type
C121  H43   S    
C87   C88   A    
C63   C65   A    
C24   C114  A    
C93   C94   A    
C107  C112  A    
C35   C36   A    
C17   C48   S    
C75   C76   A    
C85   H17   S    
C14   H57   S    
Cu1   O5    S    
C86   H18   S    
C7    C8    A    
C79   H15   S    
C85   C86   A    
C116  C117  A    
C23   C59   S    
C40   O5    A    
C26   C27   A    
C101  C102  A    
C23   C29   A    
C28   C29   A    
C43   C99   S    
C38   C42   A    
C31   H4    S    
C16   H59   S    
C42   C98   S    
C59   C66   A    
C81   H71   S    
C30   C31   A    
C39   C97   S    
C108  H32   S    
C33   N1    A    
C58   C60   S    
C115  C116  A    
C46   C100  S    
C118  H41   S    
C28   H69   S    
C108  C109  A    
C7    H51   S    
C61   C63   A    
C18   C19   A    
C115  H38   S    
C69   C71   A    
C2    C13   A    
C118  C119  A    
C91   H22   S    
C38   C45   A    
C62   C64   A    
C52   C60   S    
C19   H61   S    
C113  C119  A    
C41   O6    A    
C21   H63   S    
Cu1   O6    S    
C41   C55   S    
C111  C112  A    
C8    C9    A    
C122  H44   S    
C40   O7    A    
C58   C113  S    
C107  C108  A    
C98   N7    T    
C67   C73   A    
C84   H16   S    
C48   C65   A    
C22   H64   S    
Cu2   O8    S    
C33   C82   S    
C102  H28   S    
C123  H46   S    
C9    H53   S    
C58   H23   S    
C77   C78   A    
C39   C45   A    
C64   H56   S    
C83   C88   A    
C12   H55   S    
C21   C22   A    
C5    H49   S    
C93   H24   S    
C10   C62   S    
C111  H36   S    
C42   C44   A    
C104  C105  A    
C110  H35   S    
C52   C54   A    
C47   C50   A    
C13   C66   S    
C53   C55   A    
C49   H1    S    
C54   C56   A    
C74   C75   A    
C112  H37   S    
C99   N8    T    
C1    O3    A    
C67   C68   A    
C73   H9    S    
C13   C30   A    
C123  C124  A    
C84   C85   A    
C25   H65   S    
C89   C90   A    
C82   N4    T    
C50   N2    A    
C75   H10   S    
C68   C69   A    
C39   C43   A    
C124  H47   S    
C25   C26   A    
C76   H11   S    
C4    C61   S    
Cu1   O1    S    
C110  C111  A    
C40   C54   S    
C64   C66   A    
C57   C74   S    
C89   C95   A    
C68   H5    S    
C43   C44   A    
C90   H21   S    
Cu2   O7    S    
C32   C80   S    
C3    H48   S    
C63   H45   S    
C83   C84   A    
C46   C49   A    
C101  H27   S    
C117  H40   S    
C11   C12   A    
C15   H58   S    
C77   H13   S    
C17   C18   A    
C36   C45   S    
C27   H68   S    
C70   H67   S    
C52   C53   A    
C76   C77   A    
C72   H8    S    
C102  C104  A    
C121  C122  A    
C24   C65   S    
C3    C124  A    
C35   C89   S    
C44   C51   S    
C12   C14   A    
C47   C107  S    
C74   C79   A    
C55   C57   A    
Cu2   O4    S    
Cu1   Cu2   S    
C37   O2    A    
C116  H39   S    
C34   C83   S    
C97   N6    T    
C106  H31   S    
C120  C121  A    
C86   C87   A    
C96   N5    T    
C62   C103  A    
C81   C103  A    
Cu2   N2    S    
C20   H62   S    
C56   C57   A    
C80   N3    T    
C1    C103  S    
C26   H66   S    
C87   H19   S    
C37   C92   S    
C91   C93   A    
C78   C79   A    
C30   H3    S    
C70   C92   A    
C3    C120  A    
C59   C81   A    
C48   C70   A    
C72   C73   A    
Cu2   O3    S    
C78   H14   S    
C71   H7    S    
C47   C51   A    
C53   C58   S    
C50   H12   S    
C6    C7    A    
C95   H26   S    
C32   N1    A    
C56   C67   S    
C105  C106  A    
Cu1   O2    S    
C100  C106  A    
C17   C22   A    
C19   C20   A    
C94   H25   S    
C24   C31   A    
C71   C72   A    
C29   H70   S    
C10   C16   A    
C117  C118  A    
C41   O8    A    
C2    C114  A    
C90   C91   A    
C5    C6    A    
C6    H50   S    
C69   H6    S    
C46   C51   A    
C100  C101  A    
C33   C35   A    
C61   C92   A    
C18   H60   S    
C60   C120  S    
C34   C36   A    
C23   C25   A    
C104  H29   S    
C94   C95   A    
C1    O1    A    
C37   O4    A    
C10   C11   A    
C109  H33   S    
C8    H52   S    
C4    C5    A    
C105  H30   S    
C20   C21   A    
Cu1   N1    S    
C114  H72   S    
C38   C96   S    
C27   C28   A    
C122  C123  A    
C88   H20   S    
C14   C15   A    
C11   H54   S    
C60   H34   S    
C4    C9    A    
C109  C110  A    
C119  H42   S    
C15   C16   A    
C32   C34   A    
C113  C115  A    
C49   N2    A    
C2    H2    S    
