data_mof_unit_38630.cif
_audit_creation_date              2012-12-11T16:53:51-0500
_audit_creation_method            fapswitch 2.2
_symmetry_space_group_name_H-M    P1
_symmetry_Int_Tables_number       1
_space_group_crystal_system       triclinic
_cell_length_a                    15.000994
_cell_length_b                    14.751314
_cell_length_c                    17.11777
_cell_angle_alpha                 108.794348
_cell_angle_beta                  106.635004
_cell_angle_gamma                 108.291835
_cell_volume                      3072.28931497

loop_
_atom_site_label
_atom_site_type_symbol
_atom_type_description
_atom_site_fract_x
_atom_site_fract_y
_atom_site_fract_z
_atom_type_partial_charge
C1    C     C_R   0.087665 0.281314 0.068243 -0.120202
C2    C     C_R   0.063139 0.517828 0.264216 -0.131177
C3    C     C_R   0.228612 0.800045 0.186602 -0.104945
C4    C     C_R   0.934958 0.519684 0.747911 -0.124349
C5    C     C_R   0.733401 0.461720 0.043927 -0.248138
C6    C     C_R   0.251650 0.808351 0.273868 0.119455
C7    C     C_R   0.705676 0.537163 0.027464 -0.089829
C8    C     C_R   0.970937 0.491026 0.273696 0.070578
C9    C     C_R   0.002498 0.810727 0.952637 0.015423
C10   C     C_R   0.500765 0.624568 0.014561 0.133673
C11   C     C_R   0.468704 0.597643 0.076408 -0.077315
C12   C     C_R   0.025775 0.582222 0.747594 0.064973
C13   C     C_R   0.538665 0.588025 0.145418 -0.068389
C14   C     C_R   0.624280 0.576208 0.133825 -0.178765
C15   C     C_R   0.640306 0.579134 0.057567 0.011819
C16   C     C_R   0.721507 0.213534 0.822940 -0.122556
C17   C     C_R   0.585561 0.615992 0.005469 0.234781
C18   C     C_3   0.534436 0.573752 0.903529 -0.382382
C19   C     C_3   0.441075 0.583083 0.913525 -0.572658
C20   C     C_R   0.961109 0.528085 0.359186 0.123992
C21   C     C_R   0.032511 0.622217 0.680776 0.122997
C22   C     C_R   0.135193 0.680994 0.605060 -0.208135
C23   C     C_R   0.666423 0.216125 0.744065 0.053143
C24   C     C_R   0.129602 0.677222 0.683566 -0.164140
C25   C     C_R   0.941081 0.588334 0.604619 -0.263025
C26   C     C_R   0.946147 0.583390 0.524120 0.171841
C27   C     C_R   0.044250 0.625608 0.523506 0.188119
C28   C     C_R   0.299798 0.596577 0.004375 -0.110357
C29   C     C_R   0.050592 0.600895 0.440799 -0.260696
C30   C     C_R   0.862885 0.494419 0.360000 -0.152844
C31   C     C_R   0.855376 0.523845 0.442416 -0.182725
C32   C     C_R   0.558052 0.143031 0.677778 0.117599
C33   C     C_R   0.293593 0.905386 0.360121 -0.061353
C34   C     C_R   0.359278 0.563798 0.054955 0.070220
C35   C     C_R   0.393411 0.097753 0.450490 -0.356997
C36   C     C_R   0.330409 0.008907 0.365712 0.721547
C37   C     C_R   0.307387 0.894647 0.440835 -0.344724
C38   C     C_R   0.378095 0.981726 0.524747 0.196386
C39   C     C_R   0.424575 0.083275 0.528814 0.097447
C40   C     C_R   0.728682 0.309561 0.745968 -0.121296
C41   C     C_R   0.510873 0.165053 0.607415 -0.213410
C42   C     C_R   0.505192 0.045657 0.677664 -0.174166
C43   C     C_R   0.413539 0.965966 0.601995 -0.183610
C44   C     C_R   0.078365 0.114431 0.138881 0.047068
C45   C     C_R   0.229322 0.705694 0.265184 -0.139524
C46   C     C_R   0.996380 0.098285 0.062594 0.105722
C47   C     C_R   0.905218 0.000094 0.018447 -0.217510
C48   C     C_R   0.892405 0.929115 0.057747 -0.177163
C49   C     C_R   0.970370 0.954441 0.140983 0.162415
C50   C     C_R   0.065484 0.043539 0.176798 -0.020559
C51   C     C_3   0.129037 0.131435 0.272049 0.676589
C52   C     C_R   0.295482 0.497366 0.078369 -0.139015
C53   C     C_3   0.143400 0.209294 0.231086 -0.644138
C54   C     C_R   0.107944 0.604345 0.824864 -0.124575
C55   C     C_R   0.914885 0.196682 0.990715 -0.120900
C56   C     C_R   0.746452 0.561462 0.970684 0.689645
C57   C     C_R   0.000697 0.184605 0.035105 0.055413
C58   C     C_2   0.522737 0.587951 0.226911 0.522384
C59   C     C_R   0.890208 0.434281 0.186971 -0.117119
C60   C     C_R   0.085525 0.800199 0.002712 -0.138794
C61   C     C_R   0.916412 0.715759 0.922851 -0.002550
F1    F     F_    0.740101 0.633538 0.939856 -0.782723
F2    F     F_    0.313198 0.025419 0.290538 -0.755945
F3    F     F_    0.070114 0.141252 0.320662 -0.674125
H1    H     H_    0.165813 0.305651 0.115892 0.111127
H2    H     H_    0.855847 0.498001 0.704680 0.089153
H3    H     H_    0.519563 0.489569 0.865463 0.185645
H4    H     H_    0.426306 0.644898 0.895945 0.195352
H5    H     H_    0.371961 0.503977 0.880924 0.221480
H6    H     H_    0.126384 0.632599 0.441256 0.112287
H7    H     H_    0.791871 0.442477 0.297856 0.126582
H8    H     H_    0.210861 0.716275 0.605846 0.121796
H9    H     H_    0.779510 0.492447 0.442198 0.143643
H10   H     H_    0.201590 0.709104 0.743081 0.114462
H11   H     H_    0.865407 0.551540 0.602866 0.118176
H12   H     H_    0.809270 0.389361 0.168601 0.087011
H13   H     H_    0.547091 0.241327 0.608025 0.116560
H14   H     H_    0.691717 0.160212 0.850079 0.088239
H15   H     H_    0.537705 0.027683 0.732503 0.115636
H16   H     H_    0.426807 0.176181 0.453476 0.167622
H17   H     H_    0.377344 0.888669 0.600206 0.117011
H18   H     H_    0.273477 0.817086 0.438854 0.144561
H19   H     H_    0.841169 0.981143 0.956997 0.130956
H20   H     H_    0.819545 0.857672 0.026441 0.178387
H21   H     H_    0.201963 0.129385 0.308770 0.075715
H22   H     H_    0.105682 0.262409 0.247115 0.235853
H23   H     H_    0.166191 0.853106 0.025326 0.113495
H24   H     H_    0.326819 0.660448 0.986226 0.101847
H25   H     H_    0.225146 0.250913 0.242204 0.174513
H26   H     H_    0.707705 0.345596 0.702380 0.091406
H27   H     H_    0.317731 0.463942 0.123988 0.092730
H28   H     H_    0.188393 0.661293 0.852392 0.085019
H29   H     H_    0.834205 0.144109 0.968652 0.094142
H30   H     H_    0.246978 0.683346 0.319346 0.094123
H31   H     H_    0.468082 0.614390 0.244140 0.002863
H32   H     H_    0.841567 0.690119 0.869183 0.152320
H33   H     H_    0.139995 0.548049 0.316423 0.090114
H34   H     H_    0.237561 0.862736 0.166214 0.179409
H35   H     H_    0.706422 0.419330 0.079552 0.140342
H36   H     H_    0.673821 0.558215 0.180175 0.174096
H37   H     H_    0.571704 0.630241 0.879526 0.232813
N1    N     N_R   0.055640 0.348550 0.045600 -0.042244
N2    N     N_R   0.811290 0.303400 0.871650 -0.040044
N3    N     N_R   0.205180 0.552990 0.997660 -0.043030
N4    N     N_R   0.814810 0.361830 0.823710 -0.044204
N5    N     N_R   0.201660 0.494570 0.045600 -0.038917
N6    N     N_R   0.068420 0.560530 0.871650 -0.040503
N7    N     N_R   0.948050 0.295860 0.997660 -0.040208
N8    N     N_R   0.185190 0.638170 0.176290 -0.043709
N9    N     N_R   0.798340 0.505430 0.954400 -0.104126
N10   N     N_R   0.931580 0.439470 0.128350 -0.035517
N11   N     N_R   0.051950 0.704140 0.002340 -0.052394
N12   N     N_R   0.944360 0.651450 0.954400 -0.047690
N13   N     N_R   0.039170 0.492150 0.176290 -0.039204
N14   N     N_R   0.188710 0.696600 0.128350 -0.056953
N15   N     N_R   0.794820 0.447010 0.002340 -0.068995
N16   N     N_R   0.960830 0.507850 0.823710 -0.042545
Ni1   Ni    Ni4+2 0.119330 0.493420 0.109950 0.213130
Ni2   Ni    Ni4+2 0.880670 0.506580 0.890050 0.224472
Ni3   Ni    Ni4+2 0.872590 0.372590 0.000000 0.210491
Ni4   Ni    Ni4+2 0.127410 0.627410 0.000000 0.204459
O1    O     O_2   0.572120 0.560679 0.277002 -0.589163

loop_
_geom_bond_atom_site_label_1
_geom_bond_atom_site_label_2
_ccdc_geom_bond_type
N14   Ni4   S    
C6    C45   A    
C27   C29   A    
C11   C13   A    
N7    Ni3   S    
N2    Ni3   S    
C55   H29   S    
C3    C6    A    
N11   Ni4   S    
C51   H21   S    
N3    N5    A    
C30   H7    S    
C61   H32   S    
C39   C41   A    
C20   C30   A    
C26   C27   A    
C8    C20   S    
C54   N6    A    
C9    C61   A    
N16   Ni2   S    
C8    C59   A    
C41   H13   S    
C30   C31   A    
C45   N8    A    
C31   H9    S    
C10   C17   A    
C23   C40   A    
C35   H16   S    
C33   C36   A    
C18   C19   S    
C22   H8    S    
N12   Ni2   S    
C44   C53   S    
C5    H35   S    
C2    H33   S    
C28   H24   S    
C1    H1    S    
C32   C41   A    
N1    N7    A    
C53   H22   S    
C47   H19   S    
C4    C12   A    
C36   F2    S    
C16   H14   S    
N1    Ni1   S    
C7    C15   S    
C28   C34   A    
C26   C31   A    
C13   C14   A    
N5    Ni1   S    
C7    C56   A    
C45   H30   S    
C56   N9    A    
N11   N12   A    
C60   H23   S    
C44   C46   A    
N8    Ni1   S    
C17   C18   S    
C20   C29   A    
C58   O1    D    
C5    C7    A    
C13   C58   S    
C25   C26   A    
C12   C21   S    
C33   C37   A    
N15   Ni3   S    
N10   Ni3   S    
C25   H11   S    
C35   C36   A    
C35   C39   A    
C58   H31   S    
C54   H28   S    
C37   C38   A    
C60   N11   A    
C1    C57   A    
C28   N3    A    
C16   N2    A    
C59   N10   A    
C47   C48   A    
C10   C19   S    
C50   C51   S    
C19   H4    S    
N2    N4    A    
N13   Ni1   S    
C48   C49   A    
C16   C23   A    
C22   C27   A    
C55   C57   A    
C5    N15   A    
C53   H25   S    
C43   H17   S    
C22   C24   A    
C37   H18   S    
C19   H5    S    
C42   C43   A    
N6    Ni4   S    
N9    N15   A    
C29   H6    S    
C44   C50   A    
C15   C17   A    
C21   C25   A    
C46   C47   A    
C11   C34   S    
C2    C8    A    
C51   F3    S    
N9    Ni2   S    
C14   H36   S    
N3    Ni4   S    
C34   C52   A    
C6    C33   S    
C55   N7    A    
C9    C60   A    
C40   H26   S    
C23   C32   S    
C18   H3    S    
C38   C43   A    
C46   C57   S    
C3    N14   A    
C4    H2    S    
C2    N13   A    
C3    H34   S    
C24   H10   S    
C38   C39   A    
C1    N1    A    
N10   N13   A    
C56   F1    S    
C4    N16   A    
C10   C11   A    
N8    N14   A    
C61   N12   A    
C52   N5    A    
C48   H20   S    
C42   H15   S    
C49   C50   A    
C21   C24   A    
C32   C42   A    
C14   C15   A    
N4    Ni2   S    
C52   H27   S    
C51   C53   S    
C59   H12   S    
N6    N16   A    
C12   C54   A    
C40   N4    A    
C18   H37   S    
