data_mof_unit_9224.cif
_audit_creation_date              2012-12-10T17:46:28-0500
_audit_creation_method            fapswitch 2.2
_symmetry_space_group_name_H-M    P1
_symmetry_Int_Tables_number       1
_space_group_crystal_system       triclinic
_cell_length_a                    20.784035
_cell_length_b                    21.875529
_cell_length_c                    14.956133
_cell_angle_alpha                 89.415559
_cell_angle_beta                  131.237411
_cell_angle_gamma                 90.794216
_cell_volume                      5112.98560197

loop_
_atom_site_label
_atom_site_type_symbol
_atom_type_description
_atom_site_fract_x
_atom_site_fract_y
_atom_site_fract_z
_atom_type_partial_charge
C1    C     C_R   0.603444 0.914749 0.632741 0.824497
C2    C     C_R   0.784346 0.180762 0.164805 0.427396
C3    C     C_R   0.714299 0.766055 0.949735 0.025420
C4    C     C_R   0.241517 0.719909 0.977901 0.026233
C5    C     C_R   0.760389 0.279945 0.022651 0.041988
C6    C     C_R   0.784955 0.738124 0.057097 0.030993
C7    C     C_R   0.214295 0.266053 0.949729 0.025428
C8    C     C_R   0.243841 0.828782 0.947720 -0.220841
C9    C     C_R   0.758188 0.171036 0.052813 -0.196332
C10   C     C_R   0.632319 0.757572 0.912996 -0.219604
C11   C     C_R   0.366956 0.246723 0.094385 -0.237354
C12   C     C_R   0.743846 0.328779 0.947731 -0.220859
C13   C     C_R   0.617710 0.716779 0.970527 0.398113
C14   C     C_R   0.258196 0.671039 0.052817 -0.196232
C15   C     C_R   0.132315 0.257569 0.912990 -0.219587
C16   C     C_R   0.866960 0.746723 0.094390 -0.237397
C17   C     C_R   0.381587 0.285484 0.034681 0.367120
C18   C     C_R   0.717612 0.319032 0.835664 0.386315
C19   C     C_R   0.284356 0.680767 0.164808 0.427473
C20   C     C_R   0.117707 0.216778 0.970524 0.398107
C21   C     C_R   0.881591 0.785480 0.034681 0.367128
C22   C     C_R   0.334696 0.048184 0.665172 -0.220093
C23   C     C_R   0.665832 0.951917 0.335691 -0.226117
C24   C     C_R   0.834693 0.548181 0.665169 -0.220219
C25   C     C_R   0.396375 0.085099 0.367185 0.822866
C26   C     C_R   0.165831 0.451918 0.335690 -0.226083
C27   C     C_R   0.354869 0.024300 0.600482 0.052218
C28   C     C_R   0.645266 0.975802 0.399932 0.048413
C29   C     C_R   0.854868 0.524298 0.600480 0.052210
C30   C     C_R   0.145266 0.475803 0.399932 0.048371
C31   C     C_R   0.490120 0.989771 0.781208 0.512425
C32   C     C_R   0.510191 0.010197 0.218840 0.502957
C33   C     C_R   0.990120 0.489772 0.781208 0.512302
C34   C     C_R   0.010190 0.510196 0.218839 0.502952
C35   C     C_R   0.461635 0.000956 0.844397 -0.081521
C36   C     C_R   0.398321 0.912923 0.370122 0.836546
C37   C     C_R   0.539228 0.999129 0.156247 -0.090147
C38   C     C_R   0.961635 0.500956 0.844396 -0.081493
C39   C     C_R   0.039226 0.499129 0.156245 -0.090149
C40   C     C_R   0.391155 0.040148 0.788390 0.093359
C41   C     C_R   0.609701 0.959953 0.212507 0.110480
C42   C     C_R   0.891152 0.540146 0.788387 0.093444
C43   C     C_R   0.109699 0.459953 0.212506 0.110572
C44   C     C_R   0.506294 0.983180 0.965793 0.132738
C45   C     C_R   0.494923 0.016938 0.035026 0.113757
C46   C     C_R   0.006293 0.483180 0.965792 0.132755
C47   C     C_R   0.601698 0.087091 0.629838 0.838398
C48   C     C_R   0.994920 0.516937 0.035024 0.113800
C49   C     C_R   0.441659 0.068227 0.981393 -0.042294
C50   C     C_R   0.559759 0.931943 0.019701 -0.101970
C51   C     C_R   0.941653 0.568224 0.981388 -0.042311
C52   C     C_R   0.059759 0.431943 0.019701 -0.102491
C53   C     C_R   0.383605 0.075452 0.858262 -0.102832
C54   C     C_R   0.617547 0.924698 0.142879 -0.134465
C55   C     C_R   0.883599 0.575449 0.858257 -0.102876
C56   C     C_R   0.117546 0.424698 0.142878 -0.134648
C57   C     C_R   0.653041 0.142078 0.695574 -0.120394
C58   C     C_R   0.103443 0.414749 0.632740 0.824481
C59   C     C_R   0.347323 0.857851 0.304394 -0.122956
C60   C     C_R   0.325218 0.124151 0.276663 -0.079681
C61   C     C_R   0.674085 0.875375 0.723645 -0.086145
C62   C     C_R   0.153042 0.642078 0.695574 -0.120405
C63   C     C_R   0.847332 0.357847 0.304404 -0.122953
C64   C     C_R   0.825219 0.624152 0.276664 -0.079661
C65   C     C_R   0.174084 0.375376 0.723646 -0.086121
C66   C     C_R   0.704031 0.243333 0.698867 0.456757
C67   C     C_R   0.297475 0.756241 0.301370 0.467676
C68   C     C_R   0.173022 0.127553 0.108046 0.420986
C69   C     C_R   0.896376 0.585100 0.367186 0.822869
C70   C     C_R   0.826489 0.871688 0.891038 0.418502
C71   C     C_R   0.204031 0.743332 0.698863 0.456731
C72   C     C_R   0.797482 0.256237 0.301382 0.467507
C73   C     C_R   0.673024 0.627551 0.108041 0.420979
C74   C     C_R   0.326484 0.371696 0.891051 0.418549
C75   C     C_R   0.671757 0.185553 0.646312 -0.220594
C76   C     C_R   0.329089 0.814094 0.353775 -0.217346
C77   C     C_R   0.242591 0.102796 0.217322 -0.223034
C78   C     C_R   0.756910 0.895085 0.780218 -0.225295
C79   C     C_R   0.171757 0.685552 0.646310 -0.220604
C80   C     C_R   0.898324 0.412922 0.370125 0.836545
C81   C     C_R   0.829099 0.314090 0.353787 -0.217338
C82   C     C_R   0.742592 0.602794 0.217318 -0.223096
C83   C     C_R   0.256909 0.395092 0.780228 -0.225265
C84   C     C_R   0.677467 0.153410 0.805786 -0.147019
C85   C     C_R   0.323287 0.846593 0.194355 -0.150679
C86   C     C_R   0.339120 0.172044 0.229395 -0.127820
C87   C     C_R   0.660076 0.830076 0.775180 -0.120886
C88   C     C_R   0.177470 0.653410 0.805788 -0.146976
C89   C     C_R   0.823297 0.346587 0.194367 -0.150674
C90   C     C_R   0.839122 0.672046 0.229399 -0.127844
C91   C     C_R   0.101699 0.587090 0.629839 0.838380
C92   C     C_R   0.160074 0.330075 0.775175 -0.120863
C93   C     C_R   0.712614 0.209871 0.862772 0.024751
C94   C     C_R   0.288956 0.789986 0.137633 0.019520
C95   C     C_R   0.270736 0.197823 0.118325 0.019324
C96   C     C_R   0.728522 0.805171 0.887085 0.054415
C97   C     C_R   0.212616 0.709872 0.862770 0.024754
C98   C     C_R   0.788963 0.289981 0.137644 0.019575
C99   C     C_R   0.770739 0.697825 0.118329 0.019321
C100  C     C_R   0.228518 0.305170 0.887082 0.054434
C101  C     C_R   0.713060 0.258408 0.799172 -0.095914
C102  C     C_R   0.217609 0.819033 0.835655 0.386246
C103  C     C_R   0.288738 0.741350 0.201263 -0.102556
C104  C     C_R   0.185635 0.180396 0.064479 -0.111355
C105  C     C_R   0.813696 0.821104 0.938772 -0.091136
C106  C     C_R   0.213060 0.758408 0.799167 -0.095899
C107  C     C_R   0.788742 0.241345 0.201272 -0.102496
C108  C     C_R   0.685638 0.680397 0.064481 -0.111350
C109  C     C_R   0.313692 0.321108 0.938776 -0.091092
C110  C     C_R   0.741516 0.219907 0.977904 0.026422
C111  C     C_R   0.260385 0.779948 0.022643 0.042020
C112  C     C_R   0.284951 0.238122 0.057092 0.031016
Cu1   Cu    Cu3+1 0.526640 0.000000 0.436960 1.026430
Cu2   Cu    Cu3+1 0.473360 0.000000 0.563040 1.030572
Cu3   Cu    Cu3+1 0.026640 0.500000 0.436960 1.026434
Cu4   Cu    Cu3+1 0.973360 0.500000 0.563040 1.030561
H1    H     H_    0.441896 0.101260 0.033712 0.223183
H2    H     H_    0.905399 0.039163 0.282144 0.396178
H3    H     H_    0.471183 0.811119 0.946838 0.384478
H4    H     H_    0.540151 0.201290 0.192998 0.358562
H5    H     H_    0.656646 0.456412 0.820378 0.386499
H6    H     H_    0.407221 0.539919 0.284058 0.396653
H7    H     H_    0.971187 0.311125 0.946836 0.384501
H8    H     H_    0.040159 0.701286 0.193015 0.358550
H9    H     H_    0.337764 0.881000 0.157743 0.201413
H10   H     H_    0.662756 0.119215 0.842453 0.202380
H11   H     H_    0.594409 0.816934 0.727415 0.139284
H12   H     H_    0.559836 0.898750 0.967808 0.222663
H13   H     H_    0.404671 0.186431 0.279617 0.141420
H14   H     H_    0.837774 0.380994 0.157754 0.201410
H15   H     H_    0.162762 0.619215 0.842458 0.202424
H16   H     H_    0.094407 0.316930 0.727406 0.139279
H17   H     H_    0.904674 0.686433 0.279624 0.141411
H18   H     H_    0.340884 0.824447 0.434227 0.195030
H19   H     H_    0.659769 0.175070 0.565760 0.188255
H20   H     H_    0.765955 0.934376 0.744696 0.159192
H21   H     H_    0.233847 0.061820 0.249733 0.158645
H22   H     H_    0.840893 0.324445 0.434238 0.195035
H23   H     H_    0.941886 0.601256 0.033705 0.223198
H24   H     H_    0.159768 0.675068 0.565758 0.188253
H25   H     H_    0.265953 0.434385 0.744713 0.159162
H26   H     H_    0.733847 0.561818 0.249727 0.158610
H27   H     H_    0.337323 0.766879 0.625397 0.404358
H28   H     H_    0.672957 0.231983 0.389588 0.382272
H29   H     H_    0.610515 0.494529 0.114083 0.382281
H30   H     H_    0.389665 0.502284 0.875534 0.380918
H31   H     H_    0.837344 0.266881 0.625437 0.404356
H32   H     H_    0.172949 0.731959 0.389566 0.382243
H33   H     H_    0.110486 0.994532 0.114086 0.382327
H34   H     H_    0.059837 0.398751 0.967808 0.222712
H35   H     H_    0.889707 0.002259 0.875494 0.380950
H36   H     H_    0.244426 0.875378 0.971244 0.195889
H37   H     H_    0.757685 0.124426 0.029278 0.215971
H38   H     H_    0.578779 0.784855 0.843068 0.206519
H39   H     H_    0.420475 0.220344 0.166067 0.172904
H40   H     H_    0.744433 0.375376 0.971257 0.195899
H41   H     H_    0.257702 0.624430 0.029288 0.216363
H42   H     H_    0.078775 0.284851 0.843060 0.206515
H43   H     H_    0.920478 0.720345 0.166073 0.172917
H44   H     H_    0.315381 0.100299 0.032083 0.378014
H45   H     H_    0.336341 0.111278 0.818598 0.157917
H46   H     H_    0.716022 0.991872 0.058870 0.402029
H47   H     H_    0.815378 0.600297 0.032086 0.378007
H48   H     H_    0.215859 0.491622 0.059038 0.402460
H49   H     H_    0.687898 0.967901 0.494718 0.158273
H50   H     H_    0.312080 0.032281 0.505704 0.157442
H51   H     H_    0.187898 0.467902 0.494718 0.158284
H52   H     H_    0.812078 0.532278 0.505702 0.157396
H53   H     H_    0.277422 0.075221 0.619971 0.171327
H54   H     H_    0.723175 0.924923 0.381213 0.172430
H55   H     H_    0.777418 0.575216 0.619967 0.171196
H56   H     H_    0.664832 0.888878 0.182743 0.162484
H57   H     H_    0.223175 0.424924 0.381212 0.172467
H58   H     H_    0.836333 0.611273 0.818592 0.157887
H59   H     H_    0.164831 0.388879 0.182743 0.162556
H60   H     H_    0.156638 0.956413 0.820360 0.386508
N1    N     N_R   0.433280 0.000000 0.657760 -0.243355
N2    N     N_R   0.566720 0.000000 0.342240 -0.241730
N3    N     N_R   0.933280 0.500000 0.657760 -0.243328
N4    N     N_R   0.066720 0.500000 0.342240 -0.241731
O1    O     O_R   0.600040 0.935040 0.546740 -0.613489
O2    O     O_R   0.444990 0.064930 0.346780 -0.495516
O3    O     O_R   0.444990 0.935070 0.346780 -0.536036
O4    O     O_R   0.555010 0.064930 0.653220 -0.534937
O5    O     O_R   0.055010 0.435070 0.653220 -0.500714
O6    O     O_R   0.944990 0.564930 0.346780 -0.495513
O7    O     O_R   0.944990 0.435070 0.346780 -0.536025
O8    O     O_R   0.055010 0.564930 0.653220 -0.534964
O9    O     O_2   0.226183 0.921500 0.740758 -0.211173
O10   O     O_2   0.096292 0.858241 0.608942 -0.211312
O11   O     O_3   0.115469 0.923278 0.768018 -0.466221
O12   O     O_R   0.399960 0.064960 0.453260 -0.613772
O13   O     O_2   0.907034 0.141600 0.390844 -0.239086
O14   O     O_2   0.775241 0.079453 0.261035 -0.208314
O15   O     O_3   0.882902 0.075206 0.228844 -0.503812
O16   O     O_2   0.452412 0.684178 0.846795 -0.139069
O17   O     O_2   0.537268 0.713260 0.056006 -0.279579
O18   O     O_3   0.487447 0.798193 0.900817 -0.545105
O19   O     O_2   0.462170 0.283143 0.949086 -0.222536
O20   O     O_2   0.547349 0.316277 0.155988 -0.165484
O21   O     O_3   0.510903 0.201602 0.107524 -0.515463
O22   O     O_2   0.726186 0.421501 0.740769 -0.211256
O23   O     O_R   0.399960 0.935040 0.453260 -0.585848
O24   O     O_2   0.596293 0.358243 0.608953 -0.211346
O25   O     O_3   0.615475 0.423279 0.768035 -0.466263
O26   O     O_2   0.407105 0.641669 0.390842 -0.240522
O27   O     O_2   0.275360 0.579461 0.261188 -0.207124
O28   O     O_3   0.382926 0.575217 0.228851 -0.504146
O29   O     O_2   0.952409 0.184179 0.846799 -0.139086
O30   O     O_2   0.037268 0.213267 0.056007 -0.279502
O31   O     O_3   0.987446 0.298195 0.900810 -0.545102
O32   O     O_2   0.962154 0.783108 0.949060 -0.222552
O33   O     O_2   0.047351 0.816270 0.155955 -0.165455
O34   O     O_R   0.600040 0.064960 0.546740 -0.587580
O35   O     O_3   0.010904 0.701589 0.107539 -0.515481
O36   O     O_2   0.182067 0.820525 0.539564 -0.205452
O37   O     O_2   0.314403 0.832501 0.747908 -0.251139
O38   O     O_3   0.300815 0.739986 0.629963 -0.464602
O39   O     O_2   0.684452 0.168758 0.248236 -0.237030
O40   O     O_2   0.818199 0.176579 0.456792 -0.200586
O41   O     O_3   0.703093 0.259218 0.373998 -0.477743
O42   O     O_2   0.518220 0.589896 0.026006 -0.188064
O43   O     O_2   0.543536 0.585356 0.887265 -0.201181
O44   O     O_3   0.615520 0.504620 0.054146 -0.469290
O45   O     O_R   0.100040 0.435040 0.546740 -0.613478
O46   O     O_2   0.456998 0.416970 0.108536 -0.199834
O47   O     O_2   0.481163 0.406789 0.969194 -0.196193
O48   O     O_3   0.384621 0.494317 0.936034 -0.462199
O49   O     O_2   0.682068 0.320530 0.539573 -0.205484
O50   O     O_2   0.814404 0.332501 0.747917 -0.251136
O51   O     O_3   0.800812 0.239989 0.629962 -0.464611
O52   O     O_2   0.184465 0.668748 0.248235 -0.237128
O53   O     O_2   0.318218 0.676574 0.456785 -0.200543
O54   O     O_3   0.203099 0.759201 0.374006 -0.477763
O55   O     O_2   0.018219 0.089907 0.026024 -0.187968
O56   O     O_R   0.899960 0.564960 0.453260 -0.613776
O57   O     O_2   0.043527 0.085353 0.887275 -0.201181
O58   O     O_3   0.115512 0.004623 0.054167 -0.469311
O59   O     O_2   0.957017 0.916970 0.108512 -0.199936
O60   O     O_2   0.981175 0.906753 0.969165 -0.196145
O61   O     O_3   0.884650 0.994304 0.935985 -0.462298
O62   O     O_2   0.348623 0.992625 0.006858 -0.328391
O63   O     O_2   0.353533 0.995092 0.170129 -0.268155
O64   O     O_3   0.374926 0.096575 0.108612 -0.584177
O65   O     O_2   0.622198 0.910813 0.887708 -0.347535
O66   O     O_2   0.646637 0.005046 0.829778 -0.270785
O67   O     O_R   0.899960 0.435040 0.453260 -0.585855
O68   O     O_3   0.658177 0.009969 0.007434 -0.529783
O69   O     O_2   0.848621 0.492624 0.006858 -0.328391
O70   O     O_2   0.853531 0.495090 0.170129 -0.268151
O71   O     O_3   0.874924 0.596573 0.108614 -0.584168
O72   O     O_2   0.122194 0.410815 0.887702 -0.347721
O73   O     O_2   0.146641 0.505045 0.829780 -0.270416
O74   O     O_3   0.158178 0.509977 0.007430 -0.529518
O75   O     O_R   0.100040 0.564960 0.546740 -0.587585
O76   O     O_R   0.555010 0.935070 0.653220 -0.500689
S1    S     S_3+6 0.163929 0.881136 0.733908 0.099840
S2    S     S_3+6 0.750705 0.211852 0.345609 0.078276
S3    S     S_3+6 0.583500 0.577645 0.014609 0.097286
S4    S     S_3+6 0.416431 0.421635 0.980516 0.101317
S5    S     S_3+6 0.750342 0.287436 0.653499 0.083022
S6    S     S_3+6 0.250713 0.711845 0.345606 0.078268
S7    S     S_3+6 0.083495 0.077648 0.014622 0.097313
S8    S     S_3+6 0.916446 0.921620 0.980487 0.101199
S9    S     S_3+6 0.395187 0.021368 0.126686 -0.009695
S10   S     S_3+6 0.604921 0.978141 0.872716 0.001996
S11   S     S_3+6 0.895185 0.521367 0.126687 -0.009690
S12   S     S_3+6 0.837665 0.118615 0.266376 0.076116
S13   S     S_3+6 0.104921 0.478144 0.872715 0.002180
S14   S     S_3+6 0.521531 0.726050 0.943992 0.062222
S15   S     S_3+6 0.477592 0.273654 0.061519 0.078682
S16   S     S_3+6 0.663933 0.381136 0.733920 0.099750
S17   S     S_3+6 0.337720 0.618638 0.266413 0.075978
S18   S     S_3+6 0.021529 0.226052 0.943991 0.062236
S19   S     S_3+6 0.977590 0.773639 0.061509 0.078684
S20   S     S_3+6 0.250342 0.787433 0.653494 0.083035

loop_
_geom_bond_atom_site_label_1
_geom_bond_atom_site_label_2
_ccdc_geom_bond_type
O37   S20   D    
C91   O8    A    
C72   S2    S    
C16   C21   A    
C37   C45   A    
O71   S11   S    
O57   S7    D    
H3    O18   S    
C24   C42   A    
C94   C111  A    
C34   N4    A    
O65   S10   D    
O10   S1    D    
C64   C90   A    
C74   C83   A    
C82   H26   S    
C3    C6    A    
C10   H38   S    
C74   C109  A    
C71   C79   A    
C67   C103  A    
O27   S17   D    
H29   O44   S    
Cu1   O3    S    
C95   C104  A    
C70   S8    S    
C99   C108  A    
Cu4   O8    S    
C50   C54   A    
O35   S19   S    
C31   N1    A    
C29   H52   S    
O19   S15   D    
C92   H16   S    
C69   O56   A    
O60   S8    D    
C30   H51   S    
C38   C42   A    
C95   C112  A    
C75   H19   S    
O72   S13   D    
C65   C83   A    
C70   C78   A    
C5    C110  A    
Cu3   Cu4   S    
O31   S18   S    
C47   O34   A    
C46   C52   A    
C2    C107  A    
C68   C77   A    
C7    C112  A    
C87   H11   S    
O64   S9    S    
O21   S15   S    
O62   S9    D    
C24   H55   S    
O22   S16   D    
C24   C29   A    
C57   C75   A    
C33   N3    A    
C61   C87   A    
C11   C112  A    
C19   C103  A    
C48   C51   A    
Cu1   O1    S    
O33   S19   D    
O73   S13   D    
O61   S8    S    
H7    O31   S    
O55   S7    D    
C72   C107  A    
O16   S14   D    
C3    C96   A    
C25   C60   S    
H5    O25   S    
C66   S5    S    
C51   C55   A    
Cu3   N4    S    
C1    O76   A    
C17   S15   S    
C93   C110  A    
C84   C93   A    
C36   C59   S    
C7    C15   A    
Cu1   N2    S    
O51   S5    S    
O50   S5    D    
C9    H37   S    
C100  C109  A    
C10   C13   A    
C4    C97   A    
C87   C96   A    
C16   H43   S    
H46   O68   S    
H4    O21   S    
C67   C76   A    
C66   C101  A    
C32   N2    A    
O58   S7    S    
C15   C20   A    
O20   S15   D    
H31   O51   S    
Cu1   O34   S    
C12   H40   S    
C13   C108  A    
C21   S19   S    
C18   S16   S    
O63   S9    D    
C26   C43   A    
C71   S20   S    
C46   C48   A    
C63   C80   S    
C84   H10   S    
C81   H22   S    
C49   H1    S    
C60   C77   A    
C80   O67   A    
Cu2   O12   S    
C7    C100  A    
C14   H41   S    
C34   C39   A    
H6    O28   S    
C62   C79   A    
O14   S12   D    
C15   H42   S    
C40   C53   A    
C8    C111  A    
O46   S4    D    
C36   O3    A    
Cu3   O6    S    
C76   H18   S    
C22   C40   A    
H60   O11   S    
C39   C43   A    
C56   H59   S    
C26   H57   S    
C23   C28   A    
C62   C88   A    
C1    O1    A    
C25   O12   A    
H2    O15   S    
C98   C107  A    
C1    C61   S    
O53   S6    D    
C18   C101  A    
C28   N2    A    
O40   S2    D    
C59   C85   A    
C55   H58   S    
C35   C44   A    
C54   H56   S    
C42   C55   A    
C91   O75   A    
Cu3   O7    S    
C85   C94   A    
C34   S11   S    
C58   C65   S    
Cu1   O2    S    
Cu4   O67   S    
C45   C49   A    
C61   C78   A    
Cu2   N1    S    
C2    S12   S    
C62   C91   S    
Cu4   O56   S    
O48   S4    S    
H33   O58   S    
O36   S20   D    
C57   C84   A    
C32   S9    S    
O39   S2    D    
C32   C37   A    
H44   O64   S    
C31   S10   S    
O15   S12   S    
C58   O45   A    
C64   C82   A    
H28   O41   S    
C65   C92   A    
O52   S6    D    
C28   H49   S    
C5    C12   A    
O44   S3    S    
C97   C106  A    
O47   S4    D    
O68   S10   S    
O28   S17   S    
C36   O23   A    
C4    C111  A    
C63   C81   A    
C94   C103  A    
C26   C30   A    
C74   S4    S    
C22   C27   A    
C31   C35   A    
O59   S8    D    
C71   C106  A    
C50   H12   S    
Cu2   O4    S    
C93   C101  A    
O41   S2    S    
O42   S3    D    
O24   S16   D    
C90   C99   A    
C67   S6    S    
Cu2   O76   S    
C25   O2    A    
C92   C100  A    
C96   C105  A    
C60   C86   A    
Cu1   Cu2   S    
O32   S19   D    
C44   C50   A    
C9    C110  A    
C90   H17   S    
O25   S16   S    
C11   C17   A    
O18   S14   S    
O38   S20   S    
O26   S17   D    
C33   S13   S    
C85   H9    S    
O13   S12   D    
C14   C19   A    
H48   O74   S    
C44   C45   A    
C72   C81   A    
C77   H21   S    
C47   O4    A    
C8    H36   S    
C70   C105  A    
C17   C109  A    
O70   S11   D    
C73   S3    S    
C86   H13   S    
Cu3   O45   S    
C20   C104  A    
C11   H39   S    
C64   C69   S    
Cu4   O5    S    
O74   S13   S    
C33   C38   A    
C23   C41   A    
C102  S1    S    
O9    S1    D    
C89   C98   A    
C83   H25   S    
C6    C99   A    
O69   S11   D    
H47   O71   S    
C35   C40   A    
C4    C14   A    
C88   C97   A    
H35   O61   S    
C3    C10   A    
C13   S14   S    
H27   O38   S    
O43   S3    D    
C53   H45   S    
C19   S17   S    
C23   H54   S    
H30   O48   S    
C27   N1    A    
C49   C53   A    
C66   C75   A    
C69   O6    A    
O30   S18   D    
C80   O7    A    
C73   C82   A    
C102  C106  A    
H32   O54   S    
C63   C89   A    
O11   S1    S    
C37   C41   A    
C20   S18   S    
C41   C54   A    
C38   C46   A    
C22   H53   S    
C86   C95   A    
C89   H14   S    
C27   H50   S    
C6    C16   A    
C58   O5    A    
C43   C56   A    
O54   S6    S    
Cu3   O75   S    
C5    C98   A    
C79   H24   S    
C52   H34   S    
O29   S18   D    
C29   N3    A    
Cu4   N3    S    
C12   C18   A    
C47   C57   S    
C30   N4    A    
Cu2   O23   S    
C39   C48   A    
O49   S5    D    
C68   C104  A    
C88   H15   S    
O17   S14   D    
O66   S10   D    
C2    C9    A    
C8    C102  A    
C59   C76   A    
C68   S7    S    
C21   C105  A    
C52   C56   A    
C73   C108  A    
C78   H20   S    
H8    O35   S    
C51   H23   S    
