data_mof_unit_16752.cif
_audit_creation_date              2012-10-26T21:24:47-0400
_audit_creation_method            fapswitch 2.2
_symmetry_space_group_name_H-M    P1
_symmetry_Int_Tables_number       1
_space_group_crystal_system       triclinic
_cell_length_a                    9.571797
_cell_length_b                    10.816517
_cell_length_c                    15.4611
_cell_angle_alpha                 89.150718
_cell_angle_beta                  74.564975
_cell_angle_gamma                 89.647835
_cell_volume                      1542.83420703

loop_
_atom_site_label
_atom_site_type_symbol
_atom_type_description
_atom_site_fract_x
_atom_site_fract_y
_atom_site_fract_z
_atom_type_partial_charge
C1    C     C_R   0.999612 0.262375 0.501423 0.561404
C2    C     C_R   0.230073 0.562745 0.045422 0.048205
C3    C     C_R   0.327302 0.516224 0.093083 0.035250
C4    C     C_R   0.918304 0.499908 0.672208 0.558534
C5    C     C_R   0.084108 0.584159 0.089967 -0.143536
C6    C     C_R   0.033263 0.560885 0.181717 -0.141483
C7    C     C_R   0.270559 0.485818 0.184432 -0.134360
C8    C     C_R   0.123432 0.062655 0.504821 0.054346
C9    C     C_R   0.996254 0.129035 0.509738 0.013718
C10   C     C_R   0.864192 0.064710 0.526614 -0.157833
C11   C     C_R   0.863917 0.935791 0.526363 -0.159925
C12   C     C_R   0.674319 0.507634 0.908473 0.034310
C13   C     C_R   0.995666 0.870572 0.509409 0.004447
C14   C     C_R   0.123110 0.935460 0.504745 0.034073
C15   C     C_3   0.266639 0.929428 0.436604 -0.275643
C16   C     C_R   0.999154 0.737563 0.501248 0.545772
C17   C     C_3   0.266947 0.069769 0.436645 -0.262689
C18   C     C_R   0.593031 0.588630 0.453270 0.149145
C19   C     C_R   0.553388 0.421431 0.553537 0.007816
C20   C     C_R   0.405052 0.421197 0.554380 0.170493
C21   C     C_R   0.445830 0.588789 0.453307 0.141650
C22   C     C_3   0.482959 0.613407 0.354731 -0.275158
C23   C     C_R   0.775163 0.477786 0.958153 0.049716
C24   C     C_3   0.641267 0.612718 0.354783 -0.280733
C25   C     C_R   0.081570 0.501316 0.327860 0.538776
C26   C     C_R   0.872701 0.497816 0.770864 0.001697
C27   C     C_R   0.126788 0.512739 0.229584 -0.001861
C28   C     C_R   0.922790 0.463252 0.914494 -0.137849
C29   C     C_R   0.971641 0.475292 0.821561 -0.124540
C30   C     C_R   0.725697 0.514166 0.814473 -0.131187
C31   C     C_R   0.525450 0.526568 0.954055 0.034239
C32   C     C_R   0.477453 0.503295 0.048253 0.034984
C33   C     C_R   0.581936 0.472666 0.095001 -0.136623
C34   C     C_R   0.727840 0.461806 0.050768 -0.136653
C35   C     C_R   0.423923 0.571199 0.909024 -0.130284
C36   C     C_R   0.279607 0.589578 0.954176 -0.133493
Cu1   Cu    Cu3+1 0.140670 0.499980 0.500000 0.978221
Cu2   Cu    Cu3+1 0.859330 0.500020 0.500000 0.937742
H1    H     H_    0.804085 0.439326 0.089463 0.110613
H2    H     H_    0.206233 0.625846 0.917270 0.113649
H3    H     H_    0.000343 0.440829 0.952170 0.119453
H4    H     H_    0.085899 0.463553 0.789472 0.160435
H5    H     H_    0.652413 0.527899 0.773195 0.126770
H6    H     H_    0.453150 0.597870 0.839167 0.110689
H7    H     H_    0.761803 0.887972 0.535507 0.140066
H8    H     H_    0.455199 0.535062 0.317157 0.145564
H9    H     H_    0.335675 0.440517 0.222398 0.107221
H10   H     H_    0.444061 0.705403 0.338066 0.123303
H11   H     H_    0.694350 0.704341 0.338203 0.124790
H12   H     H_    0.010113 0.622287 0.054253 0.112014
H13   H     H_    0.922278 0.583780 0.215316 0.116359
H14   H     H_    0.555654 0.460051 0.166640 0.094451
H15   H     H_    0.762140 0.113426 0.535981 0.140759
H16   H     H_    0.351855 0.887689 0.464703 0.143307
H17   H     H_    0.259130 0.890138 0.371922 0.131412
H18   H     H_    0.352523 0.108850 0.464642 0.164232
H19   H     H_    0.259614 0.112174 0.372014 0.132530
H20   H     H_    0.592927 0.356579 0.595519 0.140575
H21   H     H_    0.701785 0.533358 0.317625 0.144430
I1    I     I_    0.277661 0.291088 0.645210 -0.413646
N1    N     N_R   0.648210 0.500930 0.499430 -0.248670
N2    N     N_R   0.352300 0.500890 0.499430 -0.223443
O1    O     O_R   0.118810 0.319640 0.500000 -0.468911
O2    O     O_R   0.881230 0.319680 0.499990 -0.514562
O3    O     O_R   0.055580 0.499970 0.629840 -0.472617
O4    O     O_R   0.818000 0.500010 0.629830 -0.512891
O5    O     O_R   0.118770 0.680320 0.500010 -0.496206
O6    O     O_R   0.881190 0.680360 0.500000 -0.505785
O7    O     O_R   0.182000 0.499990 0.370170 -0.513106
O8    O     O_R   0.944420 0.500030 0.370160 -0.503475

loop_
_geom_bond_atom_site_label_1
_geom_bond_atom_site_label_2
_ccdc_geom_bond_type
C4    C26   S    
C15   H17   S    
Cu2   O8    S    
C18   N1    A    
C26   C30   A    
Cu1   Cu2   S    
C16   O6    A    
Cu1   O7    S    
C6    H13   S    
C25   C27   S    
C18   C21   A    
C7    H9    S    
C9    C10   A    
C28   H3    S    
C22   H10   S    
C8    C17   S    
C12   C23   A    
C6    C27   A    
Cu1   O1    S    
C23   C34   A    
C32   C33   A    
Cu2   N1    S    
C33   C34   A    
C1    C9    S    
C3    C32   A    
C19   H20   S    
C16   O5    A    
C23   C28   A    
C33   H14   S    
C4    O4    A    
C35   H6    S    
C11   C13   A    
C17   H18   S    
C21   N2    A    
C5    C6    A    
C19   N1    A    
C24   H21   S    
C18   C24   S    
Cu1   O5    S    
C22   C24   S    
C21   C22   S    
C28   C29   A    
C22   H8    S    
Cu2   O6    S    
C2    C3    A    
C3    C7    A    
C12   C31   A    
C20   N2    A    
C4    O3    A    
C29   H4    S    
C31   C35   A    
C30   H5    S    
C11   H7    S    
C2    C5    A    
C25   O7    A    
C10   C11   A    
C34   H1    S    
C1    O2    A    
C1    O1    A    
C5    H12   S    
C36   H2    S    
C7    C27   A    
C26   C29   A    
Cu2   O4    S    
C15   H16   S    
C13   C16   S    
C2    C36   A    
C24   H11   S    
C15   C17   S    
C10   H15   S    
Cu1   N2    S    
C14   C15   S    
C8    C14   A    
C25   O8    A    
C12   C30   A    
C20   I1    S    
C13   C14   A    
Cu2   O2    S    
C31   C32   A    
C19   C20   A    
C17   H19   S    
C8    C9    A    
C35   C36   A    
Cu1   O3    S    
