data_mof_unit_17336.cif
_audit_creation_date              2012-12-10T16:47:59-0500
_audit_creation_method            fapswitch 2.2
_symmetry_space_group_name_H-M    P1
_symmetry_Int_Tables_number       1
_space_group_crystal_system       triclinic
_cell_length_a                    7.809827
_cell_length_b                    8.578828
_cell_length_c                    10.616444
_cell_angle_alpha                 91.776376
_cell_angle_beta                  83.925568
_cell_angle_gamma                 93.928288
_cell_volume                      705.435162727

loop_
_atom_site_label
_atom_site_type_symbol
_atom_type_description
_atom_site_fract_x
_atom_site_fract_y
_atom_site_fract_z
_atom_type_partial_charge
C1    C     C_R   0.545617 0.794299 0.491902 0.957739
C2    C     C_2   0.567878 0.958114 0.489136 -0.421430
C3    C     C_3   0.900852 0.687290 0.139040 -0.682354
C4    C     C_3   0.810138 0.804998 0.803676 -0.786855
C5    C     C_3   0.303647 0.946980 0.285960 -0.756243
C6    C     C_3   0.996451 0.290449 0.289364 -0.694302
C7    C     C_2   0.432984 0.042501 0.472847 0.036777
C8    C     C_R   0.501601 0.514059 0.737301 0.949844
C9    C     C_R   0.454356 0.205328 0.496829 0.878016
C10   C     C_R   0.501543 0.501564 0.262378 0.962710
C11   C     C_2   0.620922 0.613011 0.065281 0.200434
C12   C     C_2   0.509642 0.509281 0.129083 -0.430719
C13   C     C_2   0.637962 0.606207 0.926932 0.203865
C14   C     C_2   0.499948 0.551118 0.869382 -0.450613
H1    H     H_    0.430168 0.420332 0.083625 0.110839
H2    H     H_    0.944498 0.835409 0.762532 0.228002
H3    H     H_    0.772872 0.895795 0.876353 0.234827
H4    H     H_    0.723305 0.804460 0.727489 0.238502
H5    H     H_    0.171013 0.035979 0.449157 0.225389
H6    H     H_    0.180919 0.895567 0.254051 0.225939
H7    H     H_    0.404260 0.862405 0.262005 0.249878
H8    H     H_    0.341658 0.057072 0.234687 0.212062
H9    H     H_    0.965307 0.227832 0.476382 0.209181
H10   H     H_    0.059945 0.182600 0.256817 0.200085
H11   H     H_    0.058688 0.388831 0.232125 0.231578
H12   H     H_    0.372729 0.540486 0.922045 0.140666
H13   H     H_    0.857886 0.273369 0.274450 0.242471
H14   H     H_    0.690583 0.009703 0.515513 0.144645
H15   H     H_    0.992539 0.636364 0.577795 0.168692
H16   H     H_    0.715390 0.839189 0.103528 0.210339
H17   H     H_    0.930070 0.703577 0.238800 0.247115
H18   H     H_    0.992004 0.765359 0.078307 0.215597
H19   H     H_    0.921561 0.564200 0.108730 0.233013
H20   H     H_    0.860155 0.567810 0.804963 0.243868
N1    N     N_2   0.950320 0.457950 0.466680 -0.003752
N2    N     N_2   0.049680 0.542050 0.533320 -0.133602
N3    N     N_2   0.724753 0.725812 0.130218 -0.292437
N4    N     N_2   0.800760 0.653169 0.860426 -0.284139
N5    N     N_2   0.280581 0.978358 0.421238 -0.268332
N6    N     N_2   0.016036 0.320416 0.421662 -0.167961
O1    O     O_R   0.389250 0.738570 0.508180 -0.579652
O2    O     O_R   0.678390 0.711630 0.486820 -0.644206
O3    O     O_R   0.355470 0.513470 0.691600 -0.621966
O4    O     O_R   0.644610 0.486520 0.670240 -0.624875
O5    O     O_R   0.321610 0.288370 0.513180 -0.611134
O6    O     O_R   0.610750 0.261430 0.491820 -0.637094
O7    O     O_R   0.355390 0.513480 0.329760 -0.602214
O8    O     O_R   0.644530 0.486530 0.308400 -0.597864
Zn1   Zn    Zn3+2 0.306940 0.517990 0.514260 0.960611
Zn2   Zn    Zn3+2 0.693060 0.482010 0.485740 0.929061

loop_
_geom_bond_atom_site_label_1
_geom_bond_atom_site_label_2
_ccdc_geom_bond_type
C4    H2    S    
C1    O1    A    
C8    C14   S    
C11   C12   D    
C8    O3    A    
C9    O5    A    
O6    Zn2   S    
N1    N2    D    
C12   H1    S    
O5    Zn1   S    
C6    H10   S    
N1    Zn2   S    
O8    Zn2   S    
N1    N6    S    
C4    H4    S    
C9    O6    A    
O7    Zn1   S    
C5    H6    S    
C13   C14   D    
C14   H12   S    
C3    H17   S    
C11   C13   S    
H15   N2    S    
C13   N4    S    
C10   C12   S    
O2    Zn2   S    
C4    H3    S    
H5    N5    S    
O1    Zn1   S    
C4    N4    S    
C5    N5    S    
C10   O8    A    
C3    H18   S    
C6    N6    S    
C6    H11   S    
C3    H19   S    
H9    N6    S    
C8    O4    A    
C1    O2    A    
C5    H7    S    
C3    N3    S    
C7    C9    S    
C1    C2    S    
N2    Zn1   S    
O4    Zn2   S    
C10   O7    A    
C11   N3    S    
C7    N5    S    
O3    Zn1   S    
C2    H14   S    
C2    C7    D    
H20   N4    S    
C5    H8    S    
C6    H13   S    
H16   N3    S    
