data_mof_unit_5673.cif
_audit_creation_date              2013-03-05T15:57:40-0500
_audit_creation_method            fapswitch 2.2
_symmetry_space_group_name_H-M    P1
_symmetry_Int_Tables_number       1
_space_group_crystal_system       triclinic
_cell_length_a                    19.534344
_cell_length_b                    17.5766
_cell_length_c                    12.587878
_cell_angle_alpha                 90.344169
_cell_angle_beta                  99.525897
_cell_angle_gamma                 89.97155
_cell_volume                      4262.3404355

loop_
_atom_site_label
_atom_site_type_symbol
_atom_site_description
_atom_site_fract_x
_atom_site_fract_y
_atom_site_fract_z
_atom_type_partial_charge
O1    O     O_R   0.448200 0.076800 0.373930 -0.610322
O2    O     O_R   0.448200 0.923200 0.373930 -0.579751
O3    O     O_R   0.948200 0.576800 0.373930 -0.610411
O4    O     O_R   0.948200 0.423200 0.373930 -0.579498
O5    O     O_R   0.414750 0.076790 0.542400 -0.607921
O6    O     O_R   0.414750 0.923210 0.542400 -0.625946
O7    O     O_R   0.914750 0.576790 0.542400 -0.607976
O8    O     O_R   0.914750 0.423210 0.542400 -0.625795
C1    C     C_R   0.408385 0.099653 0.441722 0.858820
C2    C     C_R   0.411894 0.896239 0.444191 0.847850
C3    C     C_R   0.908366 0.599632 0.441708 0.858682
C4    C     C_R   0.911816 0.396327 0.444128 0.847324
Zn1   Zn    Zn3+2 0.522330 0.000000 0.387520 0.970186
Zn2   Zn    Zn3+2 0.022330 0.500000 0.387520 0.970234
Zn3   Zn    Zn3+2 0.477660 0.000000 0.612480 0.930025
Zn4   Zn    Zn3+2 0.977660 0.500000 0.612480 0.930129
O9    O     O_R   0.585240 0.923200 0.457600 -0.605695
O10   O     O_R   0.585240 0.076800 0.457600 -0.612340
O11   O     O_R   0.085240 0.423200 0.457600 -0.605610
O12   O     O_R   0.085240 0.576800 0.457600 -0.612545
O13   O     O_R   0.551780 0.923190 0.626070 -0.638523
O14   O     O_R   0.551780 0.076810 0.626070 -0.628192
O15   O     O_R   0.051780 0.423190 0.626070 -0.638337
O16   O     O_R   0.051780 0.576810 0.626070 -0.628254
C5    C     C_R   0.589297 0.897832 0.556491 0.848423
C6    C     C_R   0.590797 0.100619 0.557897 0.860938
C7    C     C_R   0.089288 0.397827 0.556487 0.848536
C8    C     C_R   0.090790 0.600640 0.557887 0.861070
C9    C     C_R   0.751136 0.177889 0.727666 -0.180329
C10   C     C_R   0.643898 0.702201 0.647432 -0.181450
C11   C     C_R   0.250624 0.678776 0.728241 -0.180485
C12   C     C_R   0.143706 0.202088 0.647034 -0.181472
H1    H     H_    0.664525 0.113580 0.763021 0.150631
H2    H     H_    0.570340 0.781625 0.692813 0.157606
H3    H     H_    0.163837 0.614680 0.763443 0.151005
H4    H     H_    0.070079 0.281455 0.692339 0.157479
H5    H     H_    0.378209 0.737577 0.751830 0.164330
H6    H     H_    0.205241 0.069576 0.619885 0.144851
H7    H     H_    0.878794 0.236371 0.750627 0.164066
H8    H     H_    0.705423 0.569659 0.620406 0.144814
H9    H     H_    0.779125 0.173591 0.809254 0.155971
H10   H     H_    0.627715 0.657070 0.696101 0.145832
H11   H     H_    0.278284 0.675012 0.810118 0.155874
H12   H     H_    0.127410 0.156886 0.695464 0.145802
C13   C     C_R   0.649298 0.149752 0.596562 -0.051720
C14   C     C_R   0.632352 0.831520 0.583639 -0.046446
C15   C     C_R   0.149270 0.649833 0.596519 -0.051963
C16   C     C_R   0.132318 0.331498 0.583626 -0.046311
C17   C     C_R   0.331621 0.830678 0.301763 -0.126660
C18   C     C_R   0.370035 0.210711 0.328962 -0.198109
C19   C     C_R   0.830768 0.331877 0.301701 -0.126400
C20   C     C_R   0.869810 0.710504 0.328640 -0.197799
C21   C     C_R   0.275801 0.782466 0.269750 -0.100635
C22   C     C_R   0.328079 0.274355 0.307941 -0.093429
C23   C     C_R   0.774577 0.284183 0.269740 -0.101100
C24   C     C_R   0.827757 0.774064 0.307454 -0.093522
C25   C     C_R   0.247241 0.742592 0.346765 -0.182665
C26   C     C_R   0.275150 0.287427 0.367270 -0.161085
C27   C     C_R   0.746188 0.244030 0.346673 -0.182883
C28   C     C_R   0.774875 0.787177 0.366862 -0.161144
C29   C     C_R   0.276445 0.748244 0.457506 0.083096
C30   C     C_R   0.261327 0.234364 0.445583 0.069918
C31   C     C_R   0.775909 0.248882 0.457246 0.083364
C32   C     C_R   0.761196 0.734228 0.445422 0.069929
C33   C     C_R   0.339697 0.787351 0.486845 0.088163
C34   C     C_R   0.296945 0.164496 0.453971 0.095640
C35   C     C_R   0.839397 0.287573 0.486367 0.088194
C36   C     C_R   0.796882 0.664404 0.453961 0.095612
C37   C     C_R   0.744649 0.216733 0.539890 0.084197
C38   C     C_R   0.713336 0.748157 0.515865 0.085307
C39   C     C_R   0.244887 0.716497 0.540108 0.084038
C40   C     C_R   0.213385 0.248217 0.515915 0.085396
C41   C     C_R   0.781655 0.212376 0.646698 0.163286
C42   C     C_R   0.693296 0.688688 0.580258 0.176416
C43   C     C_R   0.281468 0.712820 0.647262 0.163467
C44   C     C_R   0.193216 0.188660 0.580033 0.176421
C45   C     C_R   0.348539 0.742001 0.671325 -0.239529
C46   C     C_R   0.221772 0.116436 0.574631 -0.241571
C47   C     C_R   0.848830 0.241296 0.670419 -0.239286
C48   C     C_R   0.721874 0.616464 0.574964 -0.241563
C49   C     C_R   0.377467 0.778807 0.592100 -0.184131
C50   C     C_R   0.273127 0.104391 0.512314 -0.193082
C51   C     C_R   0.877511 0.278443 0.591243 -0.184033
C52   C     C_R   0.773154 0.604358 0.512519 -0.193078
C53   C     C_R   0.676740 0.190145 0.519282 -0.245560
C54   C     C_R   0.685744 0.820272 0.525300 -0.239110
C55   C     C_R   0.177040 0.689765 0.519114 -0.245708
C56   C     C_R   0.185808 0.320327 0.525473 -0.239135
C57   C     C_R   0.685409 0.145204 0.702138 -0.195113
C58   C     C_R   0.612407 0.773348 0.647628 -0.183729
C59   C     C_R   0.184982 0.645907 0.702432 -0.195201
C60   C     C_R   0.112237 0.273238 0.647328 -0.183747
C61   C     C_R   0.362758 0.834948 0.410167 -0.145768
C62   C     C_R   0.356130 0.156928 0.404564 -0.105586
C63   C     C_R   0.862374 0.335389 0.409889 -0.145238
C64   C     C_R   0.856037 0.656824 0.404480 -0.105675
H13   H     H_    0.644526 0.197637 0.441731 0.148622
H14   H     H_    0.702903 0.868608 0.484176 0.146178
H15   H     H_    0.145124 0.696884 0.441215 0.149122
H16   H     H_    0.203039 0.368721 0.484559 0.145996
H17   H     H_    0.349065 0.866595 0.242493 0.242583
H18   H     H_    0.414623 0.204801 0.288581 0.164080
H19   H     H_    0.848113 0.368047 0.242627 0.242407
H20   H     H_    0.914360 0.704578 0.288174 0.164157
H21   H     H_    0.702049 0.208478 0.317153 0.145050
H22   H     H_    0.744520 0.838054 0.347721 0.158867
H23   H     H_    0.203397 0.706601 0.317231 0.145359
H24   H     H_    0.244875 0.338371 0.348254 0.158905
H25   H     H_    0.252661 0.778538 0.185550 0.170427
H26   H     H_    0.338421 0.315385 0.248754 0.193370
H27   H     H_    0.751029 0.280888 0.185698 0.170428
H28   H     H_    0.837989 0.815002 0.248068 0.193432
H29   H     H_    0.430050 0.799627 0.613892 0.169095
H30   H     H_    0.293382 0.047305 0.508885 0.157371
H31   H     H_    0.930169 0.299089 0.612752 0.168555
H32   H     H_    0.793420 0.547273 0.509159 0.157313
C65   C     C_R   0.644101 0.983686 0.136664 0.220657
C66   C     C_R   0.144080 0.483590 0.136657 0.220641
H33   H     H_    0.657052 0.989343 0.309552 0.171851
H34   H     H_    0.157038 0.489182 0.309545 0.171753
H35   H     H_    0.669103 0.991788 0.932409 0.198587
H36   H     H_    0.169084 0.491697 0.932414 0.198657
N1    N     N_R   0.552340 1.000000 0.237260 -0.137939
N2    N     N_R   0.052340 0.500000 0.237260 -0.137912
C67   C     C_R   0.378844 0.995649 0.760514 -0.042962
C68   C     C_R   0.878842 0.495684 0.760481 -0.042868
C69   C     C_R   0.352594 0.978827 0.853876 0.035557
C70   C     C_R   0.852561 0.478988 0.853848 0.035728
C71   C     C_R   0.399513 0.969594 0.950819 0.309968
C72   C     C_R   0.899451 0.469820 0.950833 0.310234
C73   C     C_R   0.471710 0.984028 0.952794 -0.118292
C74   C     C_R   0.971676 0.484130 0.952811 -0.118475
C75   C     C_R   0.494906 0.993994 0.853713 0.184043
C76   C     C_R   0.994891 0.494016 0.853725 0.184070
C77   C     C_R   0.522031 0.987615 0.047875 -0.005961
C78   C     C_R   0.022007 0.487691 0.047883 -0.006053
C79   C     C_R   0.594303 0.985166 0.041597 0.056164
C80   C     C_R   0.094279 0.485141 0.041597 0.056119
C81   C     C_R   0.614975 0.989145 0.940995 -0.211520
C82   C     C_R   0.114954 0.489100 0.941000 -0.211600
C83   C     C_R   0.565907 0.995843 0.849157 -0.186504
C84   C     C_R   0.065893 0.495828 0.849168 -0.186576
C85   C     C_R   0.503359 0.999505 0.148939 -0.001875
C86   C     C_R   0.003361 0.499629 0.148948 -0.001698
C87   C     C_R   0.620851 0.991467 0.234600 -0.085583
C88   C     C_R   0.120840 0.491372 0.234596 -0.085755
N3    N     N_R   0.448170 0.000000 0.762060 -0.144741
N4    N     N_R   0.948170 0.500000 0.762060 -0.144716
H37   H     H_    0.450769 0.010496 0.160030 0.178066
H38   H     H_    0.950799 0.510748 0.160064 0.178113
H39   H     H_    0.344427 0.999343 0.684152 0.159684
H40   H     H_    0.844442 0.499343 0.684104 0.159606
H41   H     H_    0.585066 0.002185 0.775204 0.206421
H42   H     H_    0.085057 0.502163 0.775215 0.206507
N5    N     N_R   0.716950 0.972714 0.135723 0.190715
O17   O     O_R   0.737558 0.918656 0.077374 -0.404127
O18   O     O_R   0.762565 0.006697 0.207448 -0.407244
N6    N     N_R   0.216918 0.472540 0.135704 0.190666
O19   O     O_R   0.237476 0.418462 0.077337 -0.403876
O20   O     O_R   0.262566 0.506480 0.207429 -0.407844
N7    N     N_R   0.375781 0.932143 0.038872 0.177661
O21   O     O_R   0.404748 0.868722 0.075370 -0.419899
O22   O     O_R   0.323416 0.958923 0.079162 -0.444954
N8    N     N_R   0.875607 0.432652 0.039005 0.177579
O23   O     O_R   0.904404 0.369218 0.075777 -0.419283
O24   O     O_R   0.823296 0.459721 0.079143 -0.445456
C89   C     C_3   0.275907 0.964671 0.846795 -0.786735
H43   H     H_    0.247788 0.970312 0.763003 0.201652
H44   H     H_    0.266937 0.906134 0.874242 0.265936
H45   H     H_    0.253584 0.006653 0.897694 0.268665
C90   C     C_3   0.775858 0.464911 0.846751 -0.786760
H46   H     H_    0.747774 0.470394 0.762917 0.201544
H47   H     H_    0.766842 0.406447 0.874428 0.266054
H48   H     H_    0.753534 0.507031 0.897446 0.268638

loop_
_geom_bond_atom_site_label_1
_geom_bond_atom_site_label_2
_geom_bond_distance
_ccdc_geom_bond_type
C7    C16   1.446086 S    
C3    C64   1.456409 S    
N6    O20   1.301439 A    
C90   H46   1.110605 S    
C8    C15   1.449536 S    
C26   C30   1.419150 A    
C23   C27   1.389184 A    
N5    O18   1.301429 A    
C13   C53   1.385290 A    
O10   C6    1.315052 A    
C10   C58   1.393520 A    
C83   H41   1.065686 S    
C9    C57   1.394186 A    
N7    O21   1.301300 A    
C14   C54   1.384806 A    
C28   H22   1.078943 S    
C89   H44   1.110473 S    
Zn1   N1    2.070814 S    
H3    C59   1.082573 S    
O7    C3    1.317972 A    
C79   C81   1.393554 A    
C27   H21   1.078753 S    
C11   H11   1.083987 S    
Zn1   O10   1.933680 S    
C32   C36   1.407004 A    
N8    O23   1.301238 A    
C44   C46   1.392175 A    
C73   C77   1.418628 A    
C31   C37   1.411407 A    
C10   C42   1.403563 A    
C9    C41   1.403767 A    
C19   H19   1.077608 S    
H34   C88   1.082217 S    
C22   H26   1.082768 S    
C65   C87   1.388542 A    
O2    Zn1   1.966104 S    
C38   C42   1.420725 A    
C86   H38   1.076582 S    
C67   H39   1.080273 S    
C6    C13   1.449299 S    
C40   C56   1.389269 A    
O6    Zn3   1.933559 S    
C68   H40   1.080230 S    
C76   C84   1.398005 A    
Zn3   O14   1.966081 S    
N1    C87   1.352504 A    
C47   C51   1.387984 A    
C19   C63   1.400136 A    
C65   N5    1.437934 S    
C68   C70   1.391041 A    
C76   N4    1.352118 A    
C16   C56   1.384724 A    
C4    C63   1.457222 S    
C37   C41   1.419700 A    
C75   N3    1.352201 A    
O15   C7    1.307743 A    
O8    C4    1.313903 A    
O4    C4    1.312360 A    
O11   C7    1.314786 A    
C26   H24   1.078894 S    
C53   H13   1.079094 S    
C40   C44   1.420647 A    
C34   C62   1.406408 A    
C23   H27   1.082748 S    
H4    C60   1.083249 S    
C33   C61   1.410125 A    
Zn4   O16   1.966081 S    
C42   C48   1.392183 A    
C35   C63   1.409852 A    
C10   H10   1.083841 S    
N7    O22   1.301333 A    
C52   H32   1.081604 S    
C28   C32   1.419237 A    
C89   H45   1.109775 S    
C55   H15   1.079332 S    
C41   C47   1.392349 A    
C90   H48   1.109769 S    
C31   C35   1.407953 A    
Zn2   N2    2.070814 S    
C30   C34   1.407017 A    
C30   C40   1.411310 A    
C48   C52   1.387442 A    
C36   C52   1.412434 A    
C51   H31   1.081722 S    
C66   C88   1.388484 A    
O1    C1    1.307569 A    
C50   H30   1.081620 S    
C78   C80   1.427666 A    
C67   N3    1.353340 A    
C89   H43   1.110628 S    
C68   N4    1.353297 A    
H1    C57   1.082391 S    
C18   C62   1.403458 A    
O12   C8    1.315066 A    
C2    C61   1.457629 S    
N2    C88   1.352487 A    
C24   C28   1.390278 A    
Zn3   N3    2.058194 S    
H7    C47   1.083924 S    
C72   C74   1.429369 A    
C69   C71   1.409805 A    
O5    C1    1.317936 A    
Zn2   O12   1.933680 S    
C34   C50   1.412384 A    
C90   H47   1.110468 S    
C46   C50   1.387367 A    
C11   C43   1.403966 A    
H2    C58   1.083305 S    
C45   C49   1.388188 A    
C74   C78   1.418640 A    
H8    C48   1.083525 S    
C12   H12   1.083737 S    
C71   N7    1.433841 S    
C36   C64   1.406448 A    
C35   C51   1.414218 A    
C84   H42   1.065723 S    
C43   C45   1.392433 A    
C56   H16   1.079344 S    
O3    Zn2   1.966528 S    
C80   C82   1.393509 A    
C74   C76   1.407635 A    
C39   C55   1.389367 A    
C69   C89   1.506621 S    
O7    Zn4   1.940093 S    
C25   H23   1.078992 S    
C18   H18   1.083346 S    
Zn4   O15   1.966506 S    
C32   C38   1.411329 A    
C16   C60   1.399942 A    
N6    O19   1.301331 A    
C27   C31   1.418742 A    
C66   N6    1.437940 S    
O1    Zn1   1.966528 S    
C49   H29   1.081729 S    
C38   C54   1.389232 A    
C37   C53   1.389501 A    
C22   C26   1.390263 A    
C72   N8    1.433775 S    
C77   C79   1.427605 A    
O13   C5    1.307785 A    
C20   H20   1.083357 S    
C21   C25   1.389211 A    
C13   C57   1.400390 A    
C9    H9    1.083716 S    
C15   C59   1.400755 A    
Zn2   O11   1.940215 S    
C78   C86   1.394730 A    
C65   C79   1.412120 A    
O16   C8    1.309154 A    
C82   C84   1.379710 A    
C73   C75   1.407586 A    
C70   C72   1.409779 A    
C12   C44   1.403484 A    
C25   C29   1.419055 A    
C14   C58   1.400077 A    
H33   C87   1.082219 S    
H6    C46   1.083485 S    
C11   C59   1.394336 A    
Zn1   O9    1.940215 S    
Zn4   N4    2.058194 S    
O9    C5    1.314786 A    
H35   C81   1.081551 S    
N8    O24   1.301305 A    
H36   C82   1.081556 S    
C18   C22   1.387083 A    
C39   C43   1.419909 A    
C81   C83   1.379778 A    
C29   C39   1.411397 A    
C12   C60   1.393481 A    
Zn3   O13   1.966506 S    
H5    C45   1.084165 S    
C17   C21   1.385941 A    
C1    C62   1.456296 S    
C77   C85   1.394799 A    
C20   C64   1.403588 A    
C19   C23   1.385698 A    
O4    Zn2   1.966104 S    
C54   H14   1.079415 S    
O5    Zn3   1.940093 S    
O3    C3    1.307582 A    
O6    C2    1.313886 A    
C29   C33   1.407945 A    
C85   H37   1.076637 S    
C70   C90   1.506656 S    
O8    Zn4   1.933559 S    
O14   C6    1.309034 A    
N1    C85   1.341414 A    
N5    O17   1.301318 A    
C67   C69   1.391147 A    
C33   C49   1.414600 A    
N2    C86   1.341317 A    
C21   H25   1.083074 S    
C75   C83   1.398004 A    
C17   C61   1.400620 A    
C66   C80   1.412110 A    
C5    C14   1.446154 S    
C24   H28   1.082854 S    
C20   C24   1.387140 A    
C17   H17   1.077642 S    
C15   C55   1.385573 A    
C71   C73   1.429221 A    
O2    C2    1.312540 A    
