data_mof_unit_18946.cif
_audit_creation_date              2013-03-05T16:08:54-0500
_audit_creation_method            fapswitch 2.2
_symmetry_space_group_name_H-M    P1
_symmetry_Int_Tables_number       1
_space_group_crystal_system       triclinic
_cell_length_a                    17.194605
_cell_length_b                    6.893187
_cell_length_c                    14.543392
_cell_angle_alpha                 89.999942
_cell_angle_beta                  109.992712
_cell_angle_gamma                 90.000038
_cell_volume                      1619.88391469

loop_
_atom_site_label
_atom_site_type_symbol
_atom_site_description
_atom_site_fract_x
_atom_site_fract_y
_atom_site_fract_z
_atom_type_partial_charge
O1    O     O_R   0.314130 0.635770 0.168990 -0.606612
O2    O     O_R   0.685870 0.364230 0.831010 -0.597825
O3    O     O_R   0.185870 0.135770 0.331010 -0.606613
O4    O     O_R   0.814130 0.864230 0.668990 -0.597817
O5    O     O_R   0.146800 0.302460 0.139760 -0.575546
O6    O     O_R   0.853200 0.697540 0.860240 -0.584141
O7    O     O_R   0.353200 0.802460 0.360240 -0.575545
O8    O     O_R   0.646800 0.197540 0.639760 -0.584147
C1    C     C_R   0.114001 0.476031 0.112753 1.008582
C2    C     C_R   0.886386 0.524192 0.886587 1.042253
C3    C     C_R   0.385999 0.976031 0.387248 1.008581
C4    C     C_R   0.613614 0.024192 0.613413 1.042255
O9    O     O_R   0.311100 0.305780 0.157130 -0.572500
O10   O     O_R   0.688900 0.694220 0.842870 -0.590381
O11   O     O_R   0.188900 0.805780 0.342870 -0.572500
O12   O     O_R   0.811100 0.194220 0.657130 -0.590391
O13   O     O_R   0.351340 0.139640 0.348510 -0.617434
O14   O     O_R   0.648660 0.860360 0.651490 -0.615010
O15   O     O_R   0.148660 0.639640 0.151490 -0.617437
O16   O     O_R   0.851340 0.360360 0.848510 -0.615014
C5    C     C_R   0.330651 0.474562 0.133720 1.050764
C6    C     C_R   0.666270 0.525683 0.862789 1.079581
C7    C     C_R   0.169349 0.974562 0.366280 1.050761
C8    C     C_R   0.833731 0.025683 0.637212 1.079579
C9    C     C_1   0.533165 0.009044 0.533722 -0.297879
C10   C     C_1   0.466205 0.991858 0.467316 -0.308135
C11   C     C_1   0.966834 0.509044 0.966279 -0.297875
C12   C     C_1   0.033794 0.491858 0.032685 -0.308130
O17   O     O_3   0.263010 0.470920 0.312770 -0.277843
O18   O     O_3   0.736990 0.529080 0.687230 -0.284665
O19   O     O_3   0.236990 0.970920 0.187230 -0.277844
O20   O     O_3   0.763010 0.029080 0.812770 -0.284665
V1    V     V_3+5 0.247590 0.194450 0.238360 1.194457
V2    V     V_3+5 0.752410 0.805550 0.761640 1.189151
V3    V     V_3+5 0.252410 0.694450 0.261640 1.194456
V4    V     V_3+5 0.747590 0.305550 0.738360 1.189144
C13   C     C_R   0.119320 0.979521 0.431605 -0.355996
C14   C     C_R   0.883919 0.019000 0.572280 -0.359128
C15   C     C_R   0.380680 0.479521 0.068395 -0.355996
C16   C     C_R   0.616083 0.518999 0.927722 -0.359126
C17   C     C_R   0.898151 0.057146 0.412677 -0.247602
C18   C     C_R   0.105825 0.947735 0.592083 -0.234016
C19   C     C_R   0.601850 0.557137 0.087325 -0.247603
C20   C     C_R   0.394176 0.447739 0.907917 -0.234017
C21   C     C_R   0.848422 0.064151 0.471435 0.357680
C22   C     C_R   0.155720 0.944559 0.533361 0.352133
C23   C     C_R   0.651580 0.564145 0.028568 0.357664
C24   C     C_R   0.344280 0.444562 0.966638 0.352134
C25   C     C_R   0.969670 0.977899 0.612880 -0.068846
C26   C     C_R   0.033276 0.014854 0.391120 -0.064681
C27   C     C_R   0.530331 0.477900 0.887121 -0.068845
C28   C     C_R   0.466724 0.514848 0.108880 -0.064682
C29   C     C_R   0.019820 0.979767 0.552754 0.083380
C30   C     C_R   0.983511 0.016952 0.451584 0.084763
C31   C     C_R   0.480181 0.479766 0.947247 0.083380
C32   C     C_R   0.516490 0.516946 0.048418 0.084762
H1    H     H_    0.868945 0.084770 0.335315 0.202373
H2    H     H_    0.135417 0.922620 0.669600 0.202462
H3    H     H_    0.631055 0.584758 0.164688 0.202381
H4    H     H_    0.364583 0.422627 0.830400 0.202462
C33   C     C_R   0.995479 0.049544 0.284953 0.094194
C34   C     C_R   0.974533 0.238759 0.250631 -0.152853
C35   C     C_R   0.934408 0.271492 0.151226 -0.087742
C36   C     C_R   0.916111 0.116565 0.085196 -0.068173
C37   C     C_R   0.938411 0.927999 0.119002 -0.041779
C38   C     C_R   0.977850 0.893788 0.218860 -0.104671
H5    H     H_    0.988140 0.360010 0.301066 0.130116
H6    H     H_    0.918618 0.417865 0.126072 0.177141
H7    H     H_    0.884913 0.142282 0.008008 0.151297
H8    H     H_    0.924466 0.808631 0.067961 0.155629
H9    H     H_    0.993853 0.746783 0.244753 0.108343
C39   C     C_R   0.007256 0.941864 0.719370 0.082499
C40   C     C_R   0.017075 0.095264 0.785856 -0.125538
C41   C     C_R   0.055641 0.062688 0.885882 -0.016748
C42   C     C_R   0.085879 0.878869 0.919870 -0.077975
C43   C     C_R   0.075566 0.725381 0.854023 -0.094007
C44   C     C_R   0.035579 0.755809 0.754052 -0.134616
H10   H     H_    0.995580 0.239748 0.760146 0.107675
H11   H     H_    0.063186 0.180231 0.937033 0.146740
H12   H     H_    0.117080 0.855792 0.997214 0.150837
H13   H     H_    0.097956 0.582442 0.880470 0.177839
H14   H     H_    0.028064 0.635947 0.703569 0.137778
C45   C     C_R   0.504522 0.549536 0.215048 0.094186
C46   C     C_R   0.525459 0.738754 0.249371 -0.152853
C47   C     C_R   0.565583 0.771488 0.348775 -0.087722
C48   C     C_R   0.583888 0.616559 0.414805 -0.068162
C49   C     C_R   0.561597 0.427988 0.380999 -0.041779
C50   C     C_R   0.522160 0.393776 0.281140 -0.104667
H15   H     H_    0.511846 0.860007 0.198936 0.130107
H16   H     H_    0.581367 0.917865 0.373929 0.177126
H17   H     H_    0.615084 0.642279 0.491994 0.151298
H18   H     H_    0.575549 0.308617 0.432039 0.155634
H19   H     H_    0.506163 0.246769 0.255246 0.108345
C51   C     C_R   0.492745 0.441864 0.780631 0.082500
C52   C     C_R   0.482926 0.595265 0.714145 -0.125538
C53   C     C_R   0.444360 0.562689 0.614119 -0.016749
C54   C     C_R   0.414122 0.378870 0.580131 -0.077968
C55   C     C_R   0.424434 0.225382 0.645978 -0.094009
C56   C     C_R   0.464423 0.255810 0.745949 -0.134617
H20   H     H_    0.504421 0.739749 0.739854 0.107675
H21   H     H_    0.436815 0.680232 0.562968 0.146741
H22   H     H_    0.382920 0.355793 0.502787 0.150836
H23   H     H_    0.402044 0.082443 0.619532 0.177839
H24   H     H_    0.471938 0.135948 0.796432 0.137777
N1    N     N_R   0.242981 0.906835 0.579367 0.218417
O21   O     O_R   0.284068 0.812896 0.533416 -0.462158
O22   O     O_R   0.279336 0.942974 0.672100 -0.406415
N2    N     N_R   0.762599 0.119148 0.426814 0.233642
O23   O     O_R   0.708488 0.078415 0.468048 -0.497142
O24   O     O_R   0.737283 0.207253 0.342542 -0.391661
N3    N     N_R   0.257019 0.406840 0.920632 0.218417
O25   O     O_R   0.215931 0.312903 0.966583 -0.462161
O26   O     O_R   0.220664 0.442980 0.827898 -0.406414
N4    N     N_R   0.737404 0.619138 0.073192 0.233642
O27   O     O_R   0.791511 0.578463 0.031946 -0.497140
O28   O     O_R   0.762724 0.707192 0.157477 -0.391659

loop_
_geom_bond_atom_site_label_1
_geom_bond_atom_site_label_2
_geom_bond_distance
_ccdc_geom_bond_type
C2    C11   1.473544 S    
C23   N4    1.444890 S    
C31   C32   1.411464 A    
O1    C5    1.295491 A    
C16   C23   1.417145 A    
C40   C41   1.395244 A    
O3    C7    1.295487 A    
C52   C53   1.395244 A    
C49   C50   1.396840 A    
C18   H2    1.080535 S    
C54   C55   1.397073 A    
C14   C25   1.416906 A    
C29   C30   1.411467 A    
O7    C3    1.323773 A    
N1    O22   1.302004 A    
C34   C35   1.390997 A    
O10   V2    2.014752 S    
C34   H5    1.083503 S    
O20   V4    2.162664 S    
C48   H17   1.080562 S    
C18   C29   1.408696 A    
C47   C48   1.398243 A    
O4    C8    1.293174 A    
O3    V1    2.020717 S    
C37   H8    1.078817 S    
C22   N1    1.442240 S    
O17   V1    2.162664 S    
N2    O23   1.298332 A    
C18   C22   1.402465 A    
C14   C21   1.417138 A    
C44   H14   1.083292 S    
C50   H19   1.083290 S    
C33   C38   1.403334 A    
C1    O15   1.309529 A    
C45   C46   1.398973 A    
C2    O16   1.310333 A    
C25   C39   1.481046 S    
O5    V1    1.978565 S    
O2    C6    1.293175 A    
C8    C14   1.481833 S    
C40   H10   1.083439 S    
O19   V1    1.693418 S    
C42   H12   1.079700 S    
C54   H22   1.079701 S    
C21   N2    1.444881 S    
C19   H3    1.080726 S    
O11   C7    1.288716 A    
C45   C50   1.403341 A    
O12   C8    1.289219 A    
C53   H21   1.077374 S    
O9    V1    2.014753 S    
C51   C52   1.403558 A    
O13   V1    1.984260 S    
O11   V3    2.014754 S    
N4    O27   1.298311 A    
O4    V2    2.020716 S    
C41   C42   1.394438 A    
O18   V2    2.162666 S    
C43   C44   1.395367 A    
C48   C49   1.396209 A    
C3    C10   1.473674 S    
C9    C10   1.229635 T    
C7    C13   1.484114 S    
O6    V2    1.978564 S    
C15   C28   1.413938 A    
O20   V2    1.693416 S    
C28   C45   1.475606 S    
C42   C43   1.397072 A    
O5    C1    1.323772 A    
C39   C44   1.403012 A    
C38   H9    1.083282 S    
C5    C15   1.484115 S    
O8    C4    1.323163 A    
C6    C16   1.481835 S    
C53   C54   1.394439 A    
O9    C5    1.288716 A    
N3    O26   1.302005 A    
C26   C30   1.421330 A    
C36   H7    1.080556 S    
C46   C47   1.391000 A    
O14   V2    1.984259 S    
C55   C56   1.395368 A    
C41   H11   1.077374 S    
O19   V3    2.162663 S    
C46   H15   1.083510 S    
O1    V3    2.020716 S    
O2    V4    2.020717 S    
C35   H6    1.075947 S    
C3    O13   1.309528 A    
N3    O25   1.299182 A    
C52   H20   1.083439 S    
O7    V3    1.978565 S    
C39   C40   1.403559 A    
C43   H13   1.079685 S    
O6    C2    1.323163 A    
N4    O28   1.302163 A    
C47   H16   1.075952 S    
O8    V4    1.978565 S    
C16   C27   1.416908 A    
N1    O21   1.299183 A    
O17   V3    1.693416 S    
O18   V4    1.693415 S    
C4    C9    1.473544 S    
C36   C37   1.396198 A    
O10   C6    1.289220 A    
C17   H1    1.080728 S    
O15   V3    1.984259 S    
O12   V4    2.014752 S    
C13   C26   1.413940 A    
C20   C31   1.408699 A    
C28   C32   1.421329 A    
C51   C56   1.403013 A    
C20   H4    1.080537 S    
C25   C29   1.422666 A    
N2    O24   1.302165 A    
C56   H24   1.083292 S    
C27   C31   1.422667 A    
C33   C34   1.398969 A    
C17   C30   1.408292 A    
C27   C51   1.481047 S    
C35   C36   1.398234 A    
O16   V4    1.984259 S    
C20   C24   1.402465 A    
C19   C32   1.408291 A    
C24   N3    1.442241 S    
C37   C38   1.396834 A    
C4    O14   1.310334 A    
C11   C12   1.229634 T    
C26   C33   1.475604 S    
C17   C21   1.401193 A    
C13   C22   1.416510 A    
C49   H18   1.078828 S    
C19   C23   1.401198 A    
C55   H23   1.079685 S    
C1    C12   1.473674 S    
C15   C24   1.416512 A    
