data_mof_unit_43051.cif
_audit_creation_date              2012-12-10T18:53:02-0500
_audit_creation_method            fapswitch 2.2
_symmetry_space_group_name_H-M    P1
_symmetry_Int_Tables_number       1
_space_group_crystal_system       triclinic
_cell_length_a                    9.886906
_cell_length_b                    10.710723
_cell_length_c                    16.713502
_cell_angle_alpha                 90.858597
_cell_angle_beta                  83.979224
_cell_angle_gamma                 89.528943
_cell_volume                      1759.84569985

loop_
_atom_site_label
_atom_site_type_symbol
_atom_type_description
_atom_site_fract_x
_atom_site_fract_y
_atom_site_fract_z
_atom_type_partial_charge
C1    C     C_R   0.499670 0.739984 0.500236 0.891199
C2    C     C_R   0.500346 0.260019 0.499679 0.884434
C3    C     C_R   0.616875 0.935580 0.516963 -0.193361
C4    C     C_R   0.383248 0.064451 0.482679 -0.193791
C5    C     C_R   0.617474 0.063457 0.516378 -0.148151
C6    C     C_R   0.382635 0.936566 0.483287 -0.149569
C7    C     C_R   0.500604 0.127501 0.499367 -0.016388
C8    C     C_R   0.499474 0.872519 0.500363 -0.020115
C9    C     C_R   0.941730 0.444808 0.437922 0.062780
C10   C     C_R   0.058259 0.555061 0.562122 0.061820
C11   C     C_R   0.084781 0.446402 0.438150 -0.168069
C12   C     C_R   0.915191 0.553448 0.561914 -0.170922
C13   C     C_R   0.479798 0.499249 0.653476 0.886102
C14   C     C_R   0.520171 0.492830 0.346876 0.873504
C15   C     C_R   0.465473 0.484794 0.740380 -0.087155
C16   C     C_R   0.534534 0.451162 0.263233 -0.065199
C17   C     C_R   0.580480 0.494420 0.781868 -0.194104
C18   C     C_R   0.430834 0.379331 0.235689 -0.192437
C19   C     C_R   0.572244 0.465461 0.862353 -0.124926
C20   C     C_R   0.444143 0.332540 0.157909 -0.140484
C21   C     C_R   0.449127 0.425313 0.902845 0.091850
C22   C     C_R   0.559588 0.359761 0.105500 0.094946
C23   C     C_R   0.330324 0.420509 0.862734 0.010522
C24   C     C_R   0.669757 0.424626 0.133890 0.015130
C25   C     C_R   0.340218 0.450583 0.781078 -0.159686
C26   C     C_R   0.655717 0.469415 0.213654 -0.154669
C27   C     C_2   0.445188 0.400046 0.988641 -0.241293
C28   C     C_2   0.549543 0.344336 0.019427 -0.243006
H1    H     H_    0.677700 0.522570 0.751898 0.159687
H2    H     H_    0.338958 0.359025 0.274289 0.149119
H3    H     H_    0.737386 0.521187 0.236723 0.177592
H4    H     H_    0.251425 0.443007 0.748510 0.184530
H5    H     H_    0.634749 0.305395 0.980481 0.157802
H6    H     H_    0.361463 0.440666 0.028190 0.165619
H7    H     H_    0.360247 0.281435 0.136787 0.148054
H8    H     H_    0.662653 0.475661 0.893207 0.147367
H9    H     H_    0.707632 0.886508 0.530808 0.163646
H10   H     H_    0.292513 0.113541 0.468813 0.162289
H11   H     H_    0.708453 0.111777 0.529860 0.172993
H12   H     H_    0.291652 0.888238 0.469821 0.172400
H13   H     H_    0.149605 0.402478 0.389338 0.127645
H14   H     H_    0.850310 0.597172 0.610820 0.133098
N1    N     N_R   0.142790 0.500030 0.500020 -0.085577
N2    N     N_R   0.857210 0.499970 0.499980 -0.085560
O1    O     O_R   0.385380 0.683250 0.500010 -0.563803
O2    O     O_R   0.614620 0.316750 0.499990 -0.565557
O3    O     O_R   0.614710 0.683220 0.500000 -0.635271
O4    O     O_R   0.385290 0.316780 0.500000 -0.638903
O5    O     O_R   0.371780 0.500040 0.615800 -0.595031
O6    O     O_R   0.628220 0.499960 0.384200 -0.593016
O7    O     O_R   0.601110 0.500010 0.615800 -0.631363
O8    O     O_R   0.398890 0.499990 0.384200 -0.630515
Zn1   Zn    Zn3+2 0.346870 0.500020 0.500000 0.989214
Zn2   Zn    Zn3+2 0.653130 0.499980 0.500000 0.990878
C29   C     C_2   0.197630 0.380089 0.904007 0.394751
H15   H     H_    0.190347 0.345308 0.964866 0.075384
O9    O     O_2   0.094027 0.384635 0.870214 -0.583511
C30   C     C_2   0.795803 0.451887 0.080586 0.382364
H16   H     H_    0.808551 0.419774 0.018483 0.080333
O10   O     O_2   0.888334 0.510688 0.105696 -0.573811
C31   C     C_2   0.889593 0.381205 0.368945 0.414586
H17   H     H_    0.937469 0.397545 0.308601 0.043191
O11   O     O_2   0.801203 0.302739 0.378592 -0.540232
C32   C     C_2   0.110428 0.618437 0.631152 0.417423
H18   H     H_    0.062650 0.601842 0.691484 0.042609
O12   O     O_2   0.198788 0.696944 0.621571 -0.539381

loop_
_geom_bond_atom_site_label_1
_geom_bond_atom_site_label_2
_ccdc_geom_bond_type
C13   O5    A    
C6    C8    A    
C29   H15   S    
C5    C7    A    
C14   O8    A    
C23   C29   S    
C18   H2    S    
C1    C8    S    
C17   H1    S    
C18   C20   A    
C2    C7    S    
C13   C15   S    
C3    C5    A    
O7    Zn2   S    
C32   H18   S    
O2    Zn2   S    
C25   H4    S    
C29   O9    D    
C21   C27   S    
O1    Zn1   S    
C26   H3    S    
C12   N2    A    
C16   C18   A    
C22   C28   S    
C2    O2    A    
C11   N1    A    
C9    C11   A    
C1    O1    A    
C6    H12   S    
O6    Zn2   S    
C10   C12   A    
C4    C7    A    
O5    Zn1   S    
C15   C17   A    
C22   C24   A    
C24   C30   S    
C17   C19   A    
C4    H10   S    
C28   H5    S    
C11   H13   S    
C14   C16   S    
C19   H8    S    
C5    H11   S    
C27   H6    S    
C16   C26   A    
O4    Zn1   S    
C9    C31   S    
C15   C25   A    
C31   H17   S    
C14   O6    A    
C30   O10   D    
N2    Zn2   S    
C23   C25   A    
O8    Zn1   S    
C3    H9    S    
C4    C6    A    
C3    C8    A    
C27   C28   D    
C31   O11   D    
O3    Zn2   S    
C1    O3    A    
C9    N2    A    
C12   H14   S    
C2    O4    A    
C10   N1    A    
C13   O7    A    
C30   H16   S    
N1    Zn1   S    
C21   C23   A    
C20   H7    S    
C10   C32   S    
C24   C26   A    
C20   C22   A    
C19   C21   A    
C32   O12   D    
