data_mof_unit_60558.cif
_audit_creation_date              2012-10-26T18:15:08-0400
_audit_creation_method            fapswitch 2.2
_symmetry_space_group_name_H-M    P1
_symmetry_Int_Tables_number       1
_space_group_crystal_system       triclinic
_cell_length_a                    30.274437
_cell_length_b                    21.416457
_cell_length_c                    21.393562
_cell_angle_alpha                 90.229585
_cell_angle_beta                  134.989257
_cell_angle_gamma                 89.594505
_cell_volume                      9809.83971018

loop_
_atom_site_label
_atom_site_type_symbol
_atom_type_description
_atom_site_fract_x
_atom_site_fract_y
_atom_site_fract_z
_atom_type_partial_charge
C1    C     C_R   0.120394 0.500141 0.120418 0.593260
C2    C     C_3   0.497664 0.811242 0.997037 0.028223
C3    C     C_3   0.499833 0.499551 0.188893 0.048262
C4    C     C_3   0.009961 0.769708 0.952951 0.258663
C5    C     C_3   0.019038 0.228951 0.965148 0.260264
C6    C     C_3   0.485502 0.270367 0.929640 0.261189
C7    C     C_3   0.516597 0.729083 0.961318 0.261704
C8    C     C_3   0.000075 0.811241 0.000426 0.051848
C9    C     C_3   0.998864 0.188743 0.000006 0.052396
C10   C     C_3   0.500569 0.311290 0.001198 0.050470
C11   C     C_3   0.499035 0.688732 0.999626 0.051451
C12   C     C_3   0.044823 0.770093 0.083729 -0.158543
C13   C     C_3   0.230539 0.448889 0.203463 0.253139
C14   C     C_3   0.035631 0.230185 0.082439 -0.160524
C15   C     C_3   0.557814 0.270184 0.073726 -0.157378
C16   C     C_3   0.538245 0.729926 0.082684 -0.161761
C17   C     C_3   0.988452 0.729732 0.047313 -0.153036
C18   C     C_3   0.976476 0.271402 0.031965 -0.148932
C19   C     C_3   0.515461 0.229279 0.073178 -0.150590
C20   C     C_3   0.479746 0.771281 0.036000 -0.148701
C21   C     C_3   0.943595 0.771989 0.964086 -0.175705
C22   C     C_3   0.939523 0.228766 0.949474 -0.178198
C23   C     C_3   0.458251 0.271448 0.000751 -0.180768
C24   C     C_3   0.229931 0.549614 0.199367 0.252369
C25   C     C_3   0.440374 0.728933 0.952907 -0.177261
C26   C     C_3   0.041987 0.747004 0.884570 -0.010661
C27   C     C_3   0.043704 0.771005 0.819530 -0.383478
C28   C     C_3   0.057928 0.247762 0.905106 -0.007213
C29   C     C_3   0.099471 0.218982 0.896465 -0.382363
C30   C     C_3   0.471391 0.249589 0.810573 -0.013420
C31   C     C_3   0.434638 0.270989 0.716882 -0.372084
C32   C     C_3   0.554382 0.749011 0.900163 -0.006885
C33   C     C_3   0.580805 0.718874 0.867735 -0.384025
C34   C     C_3   0.747146 0.565834 0.897641 -0.011156
C35   C     C_3   0.730516 0.953744 0.195284 0.250717
C36   C     C_3   0.719008 0.577382 0.933825 -0.383285
C37   C     C_3   0.756493 0.341286 0.715460 0.002655
C38   C     C_3   0.734249 0.274116 0.696346 -0.379229
C39   C     C_3   0.250120 0.038088 0.909515 -0.010189
C40   C     C_3   0.222021 0.043565 0.946432 -0.383433
C41   C     C_3   0.253292 0.848520 0.688160 0.004010
C42   C     C_3   0.227580 0.783459 0.650999 -0.379094
C43   C     C_3   0.750333 0.393671 0.875705 -0.006984
C44   C     C_3   0.780152 0.345658 0.948561 -0.390766
C45   C     C_3   0.250972 0.873447 0.856762 -0.009015
C46   C     C_3   0.729483 0.053668 0.207638 0.253508
C47   C     C_3   0.281244 0.819155 0.921455 -0.392053
C48   C     C_2   0.901671 0.711095 0.821606 0.208622
C49   C     C_2   0.915777 0.287348 0.818944 0.184893
C50   C     C_2   0.379009 0.210052 0.845862 0.203035
C51   C     C_2   0.412097 0.787951 0.818870 0.186346
C52   C     C_3   0.254444 0.355707 0.178703 -0.005033
C53   C     C_3   0.227454 0.300329 0.116400 -0.381081
C54   C     C_3   0.252985 0.636905 0.164637 -0.003748
C55   C     C_3   0.225442 0.692939 0.103216 -0.380393
C56   C     C_3   0.753817 0.872192 0.151996 -0.004817
C57   C     C_3   0.271238 0.498042 0.211473 -0.114811
C58   C     C_3   0.726821 0.816356 0.090431 -0.379648
C59   C     C_3   0.750228 0.150588 0.187424 -0.002728
C60   C     C_3   0.720955 0.211682 0.136583 -0.376460
C61   C     C_3   0.770851 0.007921 0.211409 -0.118014
C62   C     C_3   0.311310 0.500388 0.311700 -0.036384
C63   C     C_3   0.811228 0.000356 0.311381 -0.036754
C64   C     C_3   0.271268 0.449961 0.303534 -0.137608
C65   C     C_R   0.620383 0.999802 0.120441 0.596339
C66   C     C_3   0.270645 0.553108 0.299332 -0.137065
C67   C     C_3   0.771461 0.945129 0.294741 -0.137433
C68   C     C_3   0.770495 0.047447 0.307532 -0.135922
C69   C     C_3   0.229384 0.502656 0.289197 -0.190777
C70   C     C_3   0.729558 0.992339 0.288943 -0.190788
C71   C     C_3   0.188863 0.500367 0.189115 0.086997
C72   C     C_3   0.688833 0.999759 0.189267 0.088852
C73   C     C_3   0.770039 0.559021 0.780693 -0.150417
C74   C     C_3   0.771542 0.480462 0.714459 -0.157284
C75   C     C_3   0.270359 0.055888 0.790577 -0.140173
C76   C     C_3   0.953841 0.730304 0.916287 0.022763
C77   C     C_3   0.271029 0.989538 0.711492 -0.156097
C78   C     C_3   0.728945 0.538434 0.683242 -0.185859
C79   C     C_3   0.228895 0.045106 0.690387 -0.182140
C80   C     C_R   0.999202 0.620339 0.999338 0.585264
C81   C     C_R   0.998439 0.379654 0.998287 0.586254
C82   C     C_R   0.500232 0.120358 0.000320 0.602272
C83   C     C_R   0.498763 0.879651 0.998608 0.589269
C84   C     C_3   0.688739 0.499225 0.687878 0.039582
C85   C     C_3   0.188713 0.999317 0.688205 0.038929
C86   C     C_3   0.729317 0.519472 0.784094 0.231800
C87   C     C_3   0.960151 0.269213 0.914403 0.021818
C88   C     C_3   0.731056 0.441986 0.719095 0.229099
C89   C     C_3   0.229745 0.009840 0.787198 0.226194
C90   C     C_3   0.230522 0.944382 0.709371 0.227193
C91   C     C_3   0.770452 0.461622 0.814792 0.258061
C92   C     C_3   0.270458 0.954232 0.807846 0.253711
C93   C     C_3   0.811288 0.500400 0.811165 -0.005683
C94   C     C_3   0.311243 0.999675 0.810980 0.002648
C95   C     C_R   0.999990 0.000719 0.879658 0.582089
C96   C     C_R   0.500034 0.500230 0.879687 0.582992
C97   C     C_R   0.000134 0.879638 0.000157 0.584548
C98   C     C_3   0.443317 0.230278 0.928433 0.028458
C99   C     C_R   0.999774 0.120350 0.000504 0.584721
C100  C     C_R   0.500195 0.379656 0.000388 0.585060
C101  C     C_R   0.499798 0.620349 0.000197 0.585055
C102  C     C_R   0.999954 0.999792 0.120470 0.545011
C103  C     C_R   0.499956 0.499796 0.120472 0.545080
C104  C     C_R   0.499863 0.499866 0.379497 0.546918
C105  C     C_R   0.999857 0.999867 0.379491 0.548759
C106  C     C_R   0.379652 0.500147 0.380040 0.549362
C107  C     C_R   0.879625 0.000146 0.379841 0.549417
C108  C     C_R   0.500136 0.500125 0.620632 0.565032
C109  C     C_3   0.458355 0.769501 0.914380 0.027584
C110  C     C_R   0.000186 0.000152 0.620699 0.566870
C111  C     C_R   0.879645 0.500301 0.879638 0.598236
C112  C     C_R   0.379632 0.999826 0.879593 0.620817
C113  C     C_R   0.620334 0.499762 0.619882 0.596725
C114  C     C_R   0.120328 0.999794 0.620116 0.601568
C115  C     C_3   0.053832 0.025473 0.824827 -0.112424
C116  C     C_3   0.994425 0.942261 0.765318 -0.126522
C117  C     C_3   0.541983 0.542185 0.812989 -0.114967
C118  C     C_3   0.515725 0.443248 0.786359 -0.122791
C119  C     C_3   0.557466 0.484910 0.786814 -0.122012
C120  C     C_3   0.998495 0.688706 0.998872 0.025108
C121  C     C_3   0.048484 0.966328 0.778137 -0.115292
C122  C     C_3   0.500225 0.500431 0.689284 0.048649
C123  C     C_3   0.000248 0.000650 0.689357 0.050391
C124  C     C_3   0.484788 0.557732 0.714418 -0.120307
C125  C     C_3   0.458437 0.458722 0.687645 -0.124616
C126  C     C_3   0.005620 0.059828 0.735077 -0.115081
C127  C     C_3   0.946263 0.976587 0.675536 -0.129666
C128  C     C_3   0.951680 0.035712 0.722347 -0.119348
C129  C     C_3   0.442932 0.515984 0.713642 -0.118937
C130  C     C_3   0.999885 0.001309 0.811022 0.052076
C131  C     C_3   0.997095 0.311226 0.996541 0.026631
C132  C     C_3   0.500138 0.500481 0.811242 0.054830
C133  C     C_3   0.043655 0.959472 0.272910 -0.117503
C134  C     C_3   0.012304 0.057332 0.241921 -0.114944
C135  C     C_3   0.545349 0.461403 0.274611 -0.118279
C136  C     C_3   0.509800 0.557841 0.239418 -0.114153
C137  C     C_3   0.555323 0.519740 0.326260 -0.112006
C138  C     C_3   0.056145 0.017314 0.327078 -0.111014
C139  C     C_3   0.499757 0.499525 0.310858 0.048355
C140  C     C_3   0.999741 0.999526 0.310845 0.048521
C141  C     C_3   0.055289 0.728015 0.035848 -0.137503
C142  C     C_3   0.500071 0.188769 0.000201 0.028718
C143  C     C_3   0.056619 0.270912 0.047574 -0.131040
C144  C     C_3   0.542774 0.228719 0.001063 -0.138298
C145  C     C_3   0.556568 0.770808 0.044271 -0.134147
C146  C     C_3   0.489797 0.441201 0.260276 -0.126567
C147  C     C_3   0.454194 0.537616 0.225110 -0.121449
C148  C     C_3   0.987268 0.941699 0.257758 -0.126535
C149  C     C_3   0.955855 0.039535 0.226774 -0.122626
C150  C     C_3   0.943379 0.981764 0.172683 -0.128375
C151  C     C_3   0.444231 0.479343 0.173520 -0.127873
C152  C     C_3   0.999820 0.999543 0.188881 0.048540
Cu1   Cu    Cu3+1 0.000000 0.500000 0.062770 0.939638
Cu2   Cu    Cu3+1 0.499990 0.437240 0.500060 0.935147
Cu3   Cu    Cu3+1 0.999990 0.062760 0.500060 0.918974
Cu4   Cu    Cu3+1 0.999990 0.937240 0.500060 0.937699
Cu5   Cu    Cu3+1 0.500000 0.000000 0.062770 0.941605
Cu6   Cu    Cu3+1 0.000000 0.500000 0.937230 1.044706
Cu7   Cu    Cu3+1 0.500000 0.000000 0.937230 1.025664
Cu8   Cu    Cu3+1 0.937240 0.000000 0.937300 0.916132
Cu9   Cu    Cu3+1 0.437240 0.500000 0.937300 0.926855
Cu10  Cu    Cu3+1 0.062760 0.000000 0.062860 0.944958
Cu11  Cu    Cu3+1 0.562760 0.500000 0.062860 0.935243
Cu12  Cu    Cu3+1 0.499990 0.562760 0.500060 0.923263
H1    H     H_    0.211309 0.504541 0.319722 0.131260
H2    H     H_    0.088169 0.937930 0.799776 0.118742
H3    H     H_    0.216768 0.853861 0.788749 0.173011
H4    H     H_    0.225816 0.902963 0.866350 0.163661
H5    H     H_    0.314997 0.836950 0.990364 0.158521
H6    H     H_    0.244884 0.791559 0.909366 0.091319
H7    H     H_    0.306288 0.788352 0.912807 0.154352
H8    H     H_    0.876619 0.746373 0.770153 0.112949
H9    H     H_    0.894698 0.251271 0.769236 0.101572
H10   H     H_    0.342361 0.244726 0.803509 0.113680
H11   H     H_    0.388113 0.751986 0.768540 0.101930
H12   H     H_    0.281317 0.337643 0.246280 0.132713
H13   H     H_    0.097429 0.045828 0.887471 0.122067
H14   H     H_    0.286622 0.380513 0.178658 0.130104
H15   H     H_    0.199748 0.316963 0.048078 0.155097
H16   H     H_    0.265893 0.269792 0.137604 0.093429
H17   H     H_    0.197036 0.272663 0.117258 0.154999
H18   H     H_    0.280086 0.608870 0.157109 0.127309
H19   H     H_    0.285017 0.654416 0.233728 0.132956
H20   H     H_    0.200132 0.723579 0.111454 0.147633
H21   H     H_    0.263440 0.720202 0.119192 0.094981
H22   H     H_    0.192722 0.677046 0.033498 0.151452
H23   H     H_    0.789008 0.854505 0.221250 0.131826
H24   H     H_    0.989106 0.894564 0.779073 0.146595
H25   H     H_    0.777208 0.902680 0.140620 0.129306
H26   H     H_    0.691638 0.832265 0.020532 0.154164
H27   H     H_    0.764686 0.790782 0.103428 0.093077
H28   H     H_    0.704366 0.784192 0.101670 0.151612
H29   H     H_    0.777411 0.130449 0.174951 0.128610
H30   H     H_    0.782348 0.161155 0.259090 0.132483
H31   H     H_    0.694215 0.233522 0.148749 0.153620
H32   H     H_    0.758079 0.244312 0.158618 0.093606
H33   H     H_    0.689014 0.202974 0.064667 0.151306
H34   H     H_    0.576456 0.575974 0.866067 0.128628
H35   H     H_    0.528948 0.396672 0.818079 0.130588
H36   H     H_    0.472013 0.604691 0.683769 0.119770
H37   H     H_    0.424174 0.424555 0.634989 0.111359
H38   H     H_    0.009981 0.108006 0.721090 0.120979
H39   H     H_    0.902221 0.956500 0.613066 0.110922
H40   H     H_    0.912085 0.064211 0.700805 0.119698
H41   H     H_    0.711647 0.985931 0.319253 0.130586
H42   H     H_    0.395926 0.528803 0.684611 0.122660
H43   H     H_    0.600820 0.536245 0.390211 0.110006
H44   H     H_    0.102329 0.031828 0.391709 0.110354
H45   H     H_    0.100773 0.708348 0.065860 0.126101
H46   H     H_    0.104245 0.289538 0.087711 0.127775
H47   H     H_    0.576879 0.210026 0.000736 0.119019
H48   H     H_    0.603980 0.789075 0.081945 0.121790
H49   H     H_    0.079615 0.926647 0.290536 0.114999
H50   H     H_    0.022532 0.104681 0.234021 0.103749
H51   H     H_    0.582684 0.430152 0.293625 0.117503
H52   H     H_    0.710205 0.569712 0.627646 0.138812
H53   H     H_    0.517975 0.605595 0.229460 0.103937
H54   H     H_    0.481525 0.393331 0.269773 0.120029
H55   H     H_    0.416819 0.568783 0.206136 0.104887
H56   H     H_    0.976925 0.894248 0.265199 0.118756
H57   H     H_    0.919849 0.072288 0.209148 0.107003
H58   H     H_    0.897104 0.967113 0.108313 0.117964
H59   H     H_    0.398660 0.462703 0.109813 0.117842
H60   H     H_    0.081901 0.787775 0.152422 0.122491
H61   H     H_    0.066208 0.212748 0.151137 0.118642
H62   H     H_    0.604713 0.287748 0.133759 0.126614
H63   H     H_    0.210234 0.082224 0.640693 0.142875
H64   H     H_    0.570629 0.712271 0.151568 0.120844
H65   H     H_    0.979498 0.712218 0.086271 0.130425
H66   H     H_    0.958653 0.289968 0.059300 0.136805
H67   H     H_    0.528040 0.211277 0.132720 0.133273
H68   H     H_    0.464331 0.789708 0.066674 0.137328
H69   H     H_    0.898047 0.790752 0.935118 0.120270
H70   H     H_    0.891716 0.210712 0.909833 0.117868
H71   H     H_    0.423932 0.289903 0.000840 0.110954
H72   H     H_    0.392970 0.711039 0.916008 0.116415
H73   H     H_    0.289495 0.495995 0.181203 0.084342
H74   H     H_    0.787956 0.606813 0.807236 0.132717
H75   H     H_    0.788925 0.014368 0.181329 0.082884
H76   H     H_    0.289588 0.408828 0.347577 0.117115
H77   H     H_    0.288396 0.596182 0.339808 0.120587
H78   H     H_    0.789889 0.900230 0.331495 0.122885
H79   H     H_    0.788296 0.086205 0.354840 0.117940
H80   H     H_    0.011483 0.705060 0.855121 0.156557
H81   H     H_    0.090318 0.733415 0.946256 0.133044
H82   H     H_    0.074049 0.812782 0.846987 0.152709
H83   H     H_    0.062771 0.734195 0.807142 0.099397
H84   H     H_    0.995786 0.783376 0.755888 0.151383
H85   H     H_    0.790254 0.464889 0.687268 0.148408
H86   H     H_    0.083985 0.287030 0.953047 0.140211
H87   H     H_    0.015133 0.266454 0.839542 0.149939
H88   H     H_    0.074641 0.180339 0.847728 0.154206
H89   H     H_    0.111981 0.254920 0.873946 0.097517
H90   H     H_    0.142962 0.200307 0.961372 0.152665
H91   H     H_    0.451275 0.204357 0.806054 0.161845
H92   H     H_    0.520894 0.242056 0.846084 0.126314
H93   H     H_    0.454481 0.314850 0.718085 0.149527
H94   H     H_    0.436876 0.234570 0.682083 0.097533
H95   H     H_    0.385016 0.279153 0.680196 0.162352
H96   H     H_    0.288033 0.101575 0.825010 0.151816
H97   H     H_    0.591437 0.778722 0.957965 0.135888
H98   H     H_    0.514090 0.778945 0.846258 0.157158
H99   H     H_    0.544448 0.690194 0.808179 0.153581
H100  H     H_    0.596379 0.755598 0.850406 0.098421
H101  H     H_    0.621430 0.688727 0.920364 0.149648
H102  H     H_    0.762043 0.611505 0.893152 0.131251
H103  H     H_    0.788710 0.534786 0.944774 0.162002
H104  H     H_    0.705238 0.532362 0.941457 0.143792
H105  H     H_    0.753835 0.600447 0.999353 0.094911
H106  H     H_    0.677144 0.608014 0.888037 0.159936
H107  H     H_    0.289334 0.981579 0.681875 0.141317
H108  H     H_    0.797863 0.345628 0.788160 0.178437
H109  H     H_    0.770729 0.351304 0.680786 0.164812
H110  H     H_    0.693704 0.267413 0.624133 0.162007
H111  H     H_    0.772572 0.242051 0.720104 0.094825
H112  H     H_    0.720221 0.262677 0.730905 0.148803
H113  H     H_    0.269334 0.084457 0.915940 0.130023
H114  H     H_    0.288723 0.003051 0.949744 0.165247
H115  H     H_    0.201706 0.998161 0.940266 0.148951
H116  H     H_    0.258755 0.056871 0.017282 0.095639
H117  H     H_    0.184881 0.079992 0.909548 0.155829
H118  H     H_    0.604278 0.472083 0.815150 0.123849
H119  H     H_    0.292574 0.844299 0.761335 0.187885
H120  H     H_    0.271089 0.866949 0.660859 0.164801
H121  H     H_    0.188775 0.785513 0.577778 0.161959
H122  H     H_    0.265044 0.752511 0.669850 0.096011
H123  H     H_    0.209994 0.763643 0.677916 0.148191
H124  H     H_    0.715972 0.369068 0.811189 0.173639
H125  H     H_    0.725422 0.428708 0.880172 0.162727
H126  H     H_    0.813991 0.368744 0.014210 0.159232
H127  H     H_    0.743536 0.322746 0.940390 0.091605
H128  H     H_    0.805011 0.309520 0.945354 0.154577
O1    O     O_R   0.091580 0.500000 0.144580 -0.536304
O2    O     O_R   0.552980 0.500000 0.144650 -0.519011
O3    O     O_R   0.499990 0.552970 0.408480 -0.519688
O4    O     O_R   0.499990 0.447030 0.408480 -0.515864
O5    O     O_R   0.999990 0.052970 0.408480 -0.519438
O6    O     O_R   0.999990 0.947030 0.408480 -0.514272
O7    O     O_R   0.408420 0.552990 0.408490 -0.520734
O8    O     O_R   0.408420 0.447010 0.408490 -0.522165
O9    O     O_R   0.908420 0.052990 0.408490 -0.520454
O10   O     O_R   0.908420 0.947010 0.408490 -0.521344
O11   O     O_R   0.500000 0.553030 0.591640 -0.508397
O12   O     O_R   0.591580 0.000000 0.144580 -0.537001
O13   O     O_R   0.500000 0.446970 0.591640 -0.517841
O14   O     O_R   0.000000 0.053030 0.591640 -0.510827
O15   O     O_R   0.000000 0.946970 0.591640 -0.516352
O16   O     O_R   0.591570 0.553010 0.591640 -0.502670
O17   O     O_R   0.591570 0.446990 0.591640 -0.472268
O18   O     O_R   0.091570 0.053010 0.591640 -0.510271
O19   O     O_R   0.091570 0.946990 0.591640 -0.471812
O20   O     O_R   0.091570 0.500000 0.038570 -0.484408
O21   O     O_R   0.591570 0.000000 0.038570 -0.483400
O22   O     O_R   0.999990 0.591570 0.052990 -0.531472
O23   O     O_R   0.053010 0.908430 0.053110 -0.506412
O24   O     O_R   0.999990 0.408430 0.052990 -0.519794
O25   O     O_R   0.499990 0.091570 0.052990 -0.523593
O26   O     O_R   0.499990 0.908430 0.052990 -0.521423
O27   O     O_R   0.999990 0.591570 0.946990 -0.483372
O28   O     O_R   0.999990 0.408430 0.946990 -0.472892
O29   O     O_R   0.499990 0.091570 0.946990 -0.502692
O30   O     O_R   0.499990 0.908430 0.946990 -0.473004
O31   O     O_R   0.908430 0.500000 0.961430 -0.498255
O32   O     O_R   0.408430 0.000000 0.961430 -0.502375
O33   O     O_R   0.908420 0.500000 0.855420 -0.476138
O34   O     O_R   0.053010 0.091570 0.053110 -0.495779
O35   O     O_R   0.408420 0.000000 0.855420 -0.482312
O36   O     O_R   0.947020 0.000000 0.855520 -0.512338
O37   O     O_R   0.447020 0.500000 0.855520 -0.507459
O38   O     O_R   0.053020 0.000000 0.961550 -0.503006
O39   O     O_R   0.553020 0.500000 0.961550 -0.508067
O40   O     O_R   0.947010 0.908420 0.947070 -0.519245
O41   O     O_R   0.947010 0.091580 0.947070 -0.525213
O42   O     O_R   0.447010 0.408420 0.947070 -0.503912
O43   O     O_R   0.447010 0.591580 0.947070 -0.524416
O44   O     O_3   0.019538 0.794545 0.902249 -0.572172
O45   O     O_R   0.553010 0.408430 0.053110 -0.521168
O46   O     O_3   0.041837 0.201181 0.932468 -0.563300
O47   O     O_3   0.467959 0.296084 0.853976 -0.564701
O48   O     O_3   0.535442 0.701887 0.922901 -0.564848
O49   O     O_3   0.701641 0.538476 0.813282 -0.570548
O50   O     O_3   0.707274 0.381638 0.684216 -0.557956
O51   O     O_3   0.203108 0.020010 0.820060 -0.570550
O52   O     O_3   0.205094 0.887352 0.663054 -0.561153
O53   O     O_3   0.797555 0.422330 0.887389 -0.565442
O54   O     O_3   0.297908 0.907947 0.873425 -0.570225
O55   O     O_2   0.886834 0.656401 0.801806 -0.510370
O56   O     O_R   0.553010 0.591570 0.053110 -0.497868
O57   O     O_2   0.902751 0.341992 0.796402 -0.524515
O58   O     O_2   0.367670 0.155049 0.825343 -0.536697
O59   O     O_2   0.401161 0.842775 0.797052 -0.528760
O60   O     O_3   0.205316 0.395136 0.149676 -0.560372
O61   O     O_3   0.204235 0.601371 0.141895 -0.558453
O62   O     O_3   0.705100 0.904848 0.133723 -0.556338
O63   O     O_3   0.702530 0.109561 0.158357 -0.557099
O64   O     O_R   0.946970 0.000000 0.038620 -0.520183
O65   O     O_R   0.446970 0.500000 0.038620 -0.521875
O66   O     O_R   0.052980 0.000000 0.144650 -0.520966

loop_
_geom_bond_atom_site_label_1
_geom_bond_atom_site_label_2
_ccdc_geom_bond_type
C49   C87   S    
C73   C93   S    
C49   H9    S    
C126  H38   S    
C121  H2    S    
C21   C76   S    
Cu2   O4    S    
C105  O5    A    
C110  O15   A    
C85   C114  S    
C84   C86   S    
C117  C119  S    
C5    C143  S    
C61   C63   S    
C117  C132  S    
C80   O22   A    
C62   C64   S    
C22   H70   S    
C37   H108  S    
C29   H89   S    
C46   C72   S    
Cu1   O31   S    
C145  H48   S    
C59   C60   S    
C51   C109  S    
C36   H104  S    
C74   C93   S    
Cu4   O10   S    
C2    C83   S    
Cu10  O66   S    
Cu9   Cu11  S    
C77   C79   S    
C65   O12   A    
Cu9   O42   S    
C116  C121  S    
C61   H75   S    
C29   H88   S    
C24   O61   S    
C14   H61   S    
C18   H66   S    
C38   H110  S    
C123  C126  S    
C136  H53   S    
C17   C21   S    
C70   H41   S    
C19   C23   S    
C43   C44   S    
C103  O65   A    
C37   C38   S    
Cu1   O24   S    
C27   H83   S    
C110  C123  S    
C59   O63   S    
C90   C92   S    
Cu12  O16   S    
C16   C20   S    
C135  C146  S    
C92   C94   S    
C86   O49   S    
C11   C101  S    
C22   C87   S    
C111  O33   A    
C42   H122  S    
C138  C140  S    
C58   H28   S    
Cu5   O25   S    
C141  H45   S    
C79   C85   S    
Cu11  O2    S    
C131  C143  S    
C103  O2    A    
C3    C103  S    
C30   O47   S    
C135  C137  S    
C33   H99   S    
C16   H64   S    
C84   C88   S    
C47   H7    S    
C85   C90   S    
C54   O61   S    
C62   C106  S    
Cu1   O1    S    
C28   H87   S    
C95   O38   A    
C92   O54   S    
C129  H42   S    
Cu9   O37   S    
C32   O48   S    
C64   H76   S    
C146  H54   S    
C125  C129  S    
C116  C130  S    
Cu3   Cu4   S    
Cu7   O29   S    
C36   H106  S    
C54   H19   S    
C149  C150  S    
C75   C79   S    
Cu12  O3    S    
C57   H73   S    
C105  C140  S    
C2    C109  S    
C115  C121  S    
C48   C76   S    
Cu7   O21   S    
C59   H29   S    
C104  O3    A    
C5    C9    S    
C33   H100  S    
C76   C120  S    
Cu2   Cu12  S    
C148  C150  S    
C65   O21   A    
C81   C131  S    
C13   C57   S    
C11   C25   S    
C77   C94   S    
C12   C141  S    
C3    C136  S    
C87   C131  S    
Cu1   Cu6   S    
C41   O52   S    
C107  O9    A    
C17   C120  S    
C40   H115  S    
C24   C57   S    
C58   H26   S    
C95   C130  S    
C55   H20   S    
C56   H23   S    
Cu6   O28   S    
C25   C109  S    
C23   H71   S    
Cu2   O8    S    
C98   C142  S    
C53   H15   S    
C47   H5    S    
C67   H78   S    
C52   O60   S    
Cu4   O15   S    
C50   C98   S    
C121  C123  S    
C62   C66   S    
C34   H103  S    
C39   C40   S    
C138  H44   S    
C112  O32   A    
C134  C149  S    
C16   C145  S    
Cu8   Cu10  S    
C147  C151  S    
C46   C68   S    
C81   O24   A    
C123  C127  S    
C88   C91   S    
C56   O62   S    
C8    C12   S    
Cu11  O56   S    
Cu3   O9    S    
C83   O30   A    
Cu7   O35   S    
C35   C61   S    
C113  O17   A    
C64   C69   S    
C43   O53   S    
C1    O20   A    
C30   H92   S    
C105  O6    A    
C6    C144  S    
C74   H85   S    
C52   C53   S    
C43   H124  S    
C102  O66   A    
C100  O42   A    
C54   C55   S    
C126  C128  S    
C59   H30   S    
C114  O18   A    
C120  C141  S    
Cu8   O64   S    
C136  C137  S    
C66   H77   S    
C65   C72   S    
C1    O1    A    
C67   C70   S    
C122  C125  S    
C90   O52   S    
C7    O48   S    
C73   H74   S    
C39   H114  S    
C43   H125  S    
C94   C112  S    
C56   C58   S    
C31   H94   S    
C34   C36   S    
C144  H47   S    
C32   H97   S    
C80   O27   A    
C69   H1    S    
C118  C132  S    
C35   C67   S    
C75   C89   S    
C146  C151  S    
C5    C87   S    
C96   O37   A    
C23   C98   S    
Cu8   O36   S    
C122  C124  S    
C140  C149  S    
C26   O44   S    
C117  H34   S    
C60   H31   S    
C102  C152  S    
C7    C145  S    
C115  C130  S    
Cu8   O40   S    
C139  C146  S    
C44   H127  S    
C41   C42   S    
C82   C142  S    
C41   H120  S    
C2    C145  S    
C15   C19   S    
C45   O54   S    
C137  C139  S    
C125  H37   S    
C26   C27   S    
C115  C126  S    
C6    C98   S    
C28   C29   S    
C117  C124  S    
C86   C91   S    
C30   C31   S    
C38   H111  S    
C20   C25   S    
C68   H79   S    
C113  O16   A    
C128  H40   S    
C55   H22   S    
C12   H60   S    
Cu12  O7    S    
C63   C68   S    
C21   H69   S    
C25   H72   S    
C116  C127  S    
C12   C17   S    
C91   O53   S    
C77   H107  S    
C118  C125  S    
C106  O7    A    
C52   H12   S    
C42   H123  S    
C24   C66   S    
C129  C132  S    
C102  O64   A    
Cu11  O45   S    
Cu3   O18   S    
C133  C138  S    
Cu5   Cu7   S    
C18   C22   S    
C150  H58   S    
Cu11  O39   S    
C18   C131  S    
C133  C152  S    
C88   O50   S    
Cu9   O65   S    
C143  H46   S    
C77   C90   S    
C110  O14   A    
C46   C61   S    
C2    C20   S    
C4    C141  S    
C85   C89   S    
C13   C71   S    
Cu8   O41   S    
C33   H101  S    
C9    C14   S    
C134  C138  S    
C91   C93   S    
C11   C16   S    
Cu10  O34   S    
C112  O35   A    
C101  O56   A    
C39   O51   S    
C89   O51   S    
C134  C152  S    
C29   H90   S    
C99   O41   A    
C10   C100  S    
C148  H56   S    
C60   H33   S    
C93   C111  S    
Cu4   O19   S    
C35   C72   S    
C19   C142  S    
Cu5   O12   S    
C127  C128  S    
Cu5   O32   S    
Cu2   O13   S    
C14   C143  S    
Cu9   O43   S    
C17   H65   S    
C111  O31   A    
C48   O55   D    
C128  C130  S    
C6    C10   S    
C81   O28   A    
C104  O4    A    
C101  O43   A    
Cu3   O5    S    
C83   O26   A    
C134  H50   S    
C104  C139  S    
C32   C33   S    
C27   H84   S    
C13   C64   S    
Cu10  O38   S    
C124  C129  S    
C3    C135  S    
Cu10  O23   S    
C52   H14   S    
C42   H121  S    
C28   O46   S    
C108  O11   A    
C40   H116  S    
C96   O39   A    
C74   C78   S    
C51   O59   D    
C58   H27   S    
Cu5   O26   S    
C50   O58   D    
C82   O29   A    
C31   H95   S    
C74   C88   S    
C127  H39   S    
C75   C94   S    
C95   O36   A    
C34   O49   S    
C80   C120  S    
C84   C113  S    
C20   H68   S    
C14   C18   S    
C4    C8    S    
C140  C148  S    
C57   C62   S    
C7    C11   S    
C116  H24   S    
C139  C147  S    
C124  H36   S    
C1    C71   S    
C44   H126  S    
Cu4   O6    S    
C10   C15   S    
C26   H80   S    
C9    C22   S    
C66   C69   S    
C45   C47   S    
C69   C71   S    
C118  C119  S    
C6    O47   S    
C37   H109  S    
C48   H8    S    
C135  H51   S    
C151  H59   S    
Cu7   O30   S    
C73   C78   S    
C54   H18   S    
C46   O63   S    
C26   H81   S    
C96   C132  S    
C9    C99   S    
C5    O46   S    
C149  H57   S    
C118  H35   S    
C79   H63   S    
C45   H4    S    
C119  H118  S    
C28   H86   S    
C82   O25   A    
C63   C67   S    
C40   H117  S    
C15   H62   S    
C114  O19   A    
C100  O45   A    
Cu12  O11   S    
C27   H82   S    
C78   H52   S    
C97   O40   A    
C49   O57   D    
C7    C109  S    
C51   H11   S    
C8    C97   S    
C107  O10   A    
C53   H17   S    
C39   H113  S    
Cu3   O14   S    
C36   H105  S    
C8    C21   S    
C31   H93   S    
C133  C148  S    
C115  H13   S    
Cu6   O27   S    
C89   C92   S    
C32   H98   S    
C45   H3    S    
C99   O34   A    
C4    O44   S    
C150  C152  S    
C63   C107  S    
C53   H16   S    
C47   H6    S    
C60   H32   S    
C137  H43   S    
C119  C122  S    
C56   H25   S    
C44   H128  S    
Cu6   O20   S    
C34   H102  S    
C108  C122  S    
C41   H119  S    
C108  O13   A    
C10   C23   S    
C35   O62   S    
C3    C151  S    
C50   H10   S    
C133  H49   S    
C38   H112  S    
C106  O8    A    
C142  C144  S    
C55   H21   S    
C73   C86   S    
C4    C76   S    
C136  C147  S    
C147  H55   S    
Cu1   O22   S    
C13   O60   S    
C15   C144  S    
Cu2   O17   S    
C78   C84   S    
C37   O50   S    
Cu6   O33   S    
C75   H96   S    
C68   C70   S    
C97   O23   A    
C30   H91   S    
C70   C72   S    
C19   H67   S    
C24   C71   S    
