data_mof_unit_51975.cif
_audit_creation_date              2012-12-10T19:00:47-0500
_audit_creation_method            fapswitch 2.2
_symmetry_space_group_name_H-M    P1
_symmetry_Int_Tables_number       1
_space_group_crystal_system       triclinic
_cell_length_a                    15.018978
_cell_length_b                    10.862549
_cell_length_c                    9.575947
_cell_angle_alpha                 90.089388
_cell_angle_beta                  91.314993
_cell_angle_gamma                 90.360228
_cell_volume                      1561.81740051

loop_
_atom_site_label
_atom_site_type_symbol
_atom_type_description
_atom_site_fract_x
_atom_site_fract_y
_atom_site_fract_z
_atom_type_partial_charge
C1    C     C_R   0.497344 0.262382 0.499286 0.908571
C2    C     C_R   0.906403 0.597684 0.478479 0.136988
C3    C     C_R   0.956130 0.266263 0.553510 0.480366
C4    C     C_R   0.048609 0.267854 0.537083 -0.286650
C5    C     C_R   0.095160 0.377407 0.512430 -0.026813
C6    C     C_R   0.047013 0.487896 0.495775 0.072737
C7    C     C_R   0.092612 0.600092 0.472758 0.144764
C8    C     C_R   0.044997 0.708852 0.450637 -0.198980
C9    C     C_R   0.952466 0.707386 0.452122 -0.181264
C10   C     C_R   0.189072 0.380049 0.509711 -0.036034
C11   C     C_R   0.232926 0.493981 0.494645 -0.113783
C12   C     C_R   0.329194 0.501045 0.498447 0.828881
C13   C     C_R   0.185287 0.602237 0.473292 -0.253546
C14   C     C_R   0.459091 0.063418 0.611709 0.069833
C15   C     C_R   0.485509 0.129409 0.494166 -0.281619
C16   C     C_R   0.495451 0.063859 0.367080 0.348354
C17   C     C_R   0.486242 0.934909 0.365740 0.294603
C18   C     C_R   0.485124 0.870430 0.493936 -0.248213
C19   C     C_R   0.465244 0.937323 0.612855 0.053455
C20   C     C_3   0.496232 0.931554 0.761199 -0.506574
C21   C     C_3   0.484438 0.070999 0.763863 -0.186155
C22   C     C_R   0.575550 0.528606 0.076320 0.238618
C23   C     C_R   0.496737 0.737549 0.499233 0.857635
C24   C     C_R   0.428923 0.455135 0.069406 0.052108
C25   C     C_R   0.428604 0.459033 0.921504 -0.043775
C26   C     C_R   0.575778 0.527986 0.929329 0.203860
C27   C     C_3   0.628352 0.645226 0.927145 -0.264338
C28   C     C_3   0.629446 0.643866 0.086350 -0.543617
C29   C     C_R   0.670851 0.494646 0.501472 0.841676
C30   C     C_R   0.814022 0.597815 0.480894 -0.258964
C31   C     C_R   0.767348 0.489301 0.505425 -0.143985
C32   C     C_R   0.812083 0.377352 0.530627 0.387003
C33   C     C_R   0.906589 0.375327 0.528825 -0.080165
C34   C     C_R   0.953249 0.486717 0.501376 -0.062288
Cu1   Cu    Cu3+1 0.500000 0.499980 0.640670 0.967086
Cu2   Cu    Cu3+1 0.500000 0.500020 0.359330 1.001055
H1    H     H_    0.777770 0.682601 0.462259 0.156545
H2    H     H_    0.449575 0.878512 0.826641 0.214316
H3    H     H_    0.567336 0.904801 0.770850 0.197575
H4    H     H_    0.546666 0.123541 0.785772 0.133103
H5    H     H_    0.371125 0.425342 0.862667 0.195177
H6    H     H_    0.589490 0.722638 0.882347 0.151728
H7    H     H_    0.695994 0.627525 0.136024 0.215050
H8    H     H_    0.592342 0.721372 0.132120 0.249593
H9    H     H_    0.083826 0.181961 0.549334 0.188186
H10   H     H_    0.220797 0.688394 0.458332 0.133927
H11   H     H_    0.079376 0.795026 0.431638 0.148641
H12   H     H_    0.916785 0.792324 0.432977 0.151981
N1    N     N_R   0.500570 0.500930 0.147930 -0.236294
N2    N     N_R   0.500570 0.500890 0.852020 -0.227883
O1    O     O_R   0.500000 0.319640 0.618810 -0.592503
O2    O     O_R   0.500010 0.319680 0.381230 -0.502604
O3    O     O_R   0.370250 0.499950 0.618800 -0.568858
O4    O     O_R   0.370260 0.499990 0.381220 -0.595549
O5    O     O_R   0.499990 0.680320 0.618770 -0.588627
O6    O     O_R   0.500000 0.680360 0.381190 -0.541889
O7    O     O_R   0.629740 0.500010 0.618780 -0.597752
O8    O     O_R   0.629750 0.500050 0.381200 -0.588020
O9    O     O_3   0.485289 0.872499 0.239801 -0.586094
C35   C     C_3   0.401699 0.888766 0.171322 0.116550
H13   H     H_    0.406555 0.966677 0.097199 0.205656
H14   H     H_    0.346064 0.907485 0.243889 0.128543
C36   C     C_3   0.377300 0.772570 0.089959 -0.774562
H15   H     H_    0.363741 0.696371 0.163744 0.264213
H16   H     H_    0.316631 0.788663 0.024240 0.218920
H17   H     H_    0.432630 0.745602 0.021726 0.235825
C37   C     C_2   0.408170 0.109711 0.852608 0.941927
O10   O     O_2   0.421567 0.183072 0.947410 -0.606672
O11   O     O_R   0.323092 0.059406 0.829579 -0.743797
H18   H     H_    0.278102 0.092207 0.897407 0.332519
C38   C     C_2   0.350700 0.397043 0.132024 0.925517
O12   O     O_2   0.359377 0.305233 0.204406 -0.505854
O13   O     O_R   0.265841 0.443357 0.101624 -0.795370
H19   H     H_    0.217187 0.395451 0.149718 0.339411
C39   C     C_2   0.718855 0.630070 0.865237 0.918599
O14   O     O_2   0.746581 0.708150 0.785085 -0.621888
O15   O     O_R   0.770625 0.527054 0.898264 -0.785126
H20   H     H_    0.829253 0.526801 0.847825 0.321856
O16   O     O_3   0.763444 0.268532 0.533233 -0.568871
C40   C     C_3   0.738530 0.241669 0.671368 0.107213
H21   H     H_    0.679225 0.295571 0.699707 0.165449
H22   H     H_    0.792748 0.261889 0.749628 0.144735
C41   C     C_3   0.714149 0.105514 0.680083 -0.783284
H23   H     H_    0.699570 0.080583 0.789626 0.191790
H24   H     H_    0.655335 0.085629 0.611659 0.223873
H25   H     H_    0.769120 0.046835 0.644130 0.291290
O17   O     O_3   0.913964 0.156260 0.585830 -0.548250
C42   C     C_3   0.949303 0.104400 0.711639 0.023569
H26   H     H_    0.896453 0.102400 0.790621 0.164374
H27   H     H_    0.006027 0.156200 0.761481 0.133634
C43   C     C_3   0.977748 0.972447 0.684973 -0.758414
H28   H     H_    0.029222 0.970150 0.603686 0.241004
H29   H     H_    0.005727 0.931775 0.782689 0.217681
H30   H     H_    0.919274 0.916644 0.649678 0.255122
C44   C     C_2   0.241912 0.265405 0.523130 0.825945
O18   O     O_2   0.295143 0.253703 0.620447 -0.590970
O19   O     O_R   0.230869 0.171579 0.424038 -0.751571
H31   H     H_    0.271000 0.098661 0.443972 0.330761
O20   O     O_3   0.516476 0.124409 0.244799 -0.508428
C45   C     C_3   0.607715 0.106314 0.217713 0.104481
H32   H     H_    0.617286 0.014691 0.168516 0.165340
H33   H     H_    0.650505 0.113046 0.314444 0.145061
C46   C     C_3   0.639316 0.204772 0.117208 -0.719377
H34   H     H_    0.635795 0.296553 0.167640 0.261720
H35   H     H_    0.709411 0.187084 0.089092 0.189249
H36   H     H_    0.597240 0.204384 0.020479 0.250025

loop_
_geom_bond_atom_site_label_1
_geom_bond_atom_site_label_2
_ccdc_geom_bond_type
C8    C9    A    
O17   C42   S    
C36   H16   S    
Cu1   O3    S    
O13   H19   S    
C44   O18   D    
O19   H31   S    
C7    C8    A    
O15   H20   S    
C26   C27   S    
C35   C36   S    
C14   C21   S    
Cu2   O8    S    
C26   N2    A    
C5    C6    A    
C3    C33   A    
C15   C16   A    
C35   H14   S    
C18   C19   A    
C25   N2    A    
C31   C32   A    
C16   C17   A    
C1    C15   S    
C12   O3    A    
Cu2   O2    S    
C2    C34   A    
C36   H17   S    
O9    C35   S    
C22   C28   S    
C21   C37   S    
C40   C41   S    
C27   C39   S    
C33   C34   A    
C4    H9    S    
C3    O17   S    
C37   O10   D    
C23   O6    A    
C24   C25   A    
C40   H22   S    
C25   H5    S    
C43   H28   S    
C38   O13   S    
C20   H3    S    
C40   H21   S    
Cu1   O5    S    
C28   H8    S    
C45   C46   S    
C6    C34   A    
C30   H1    S    
C35   H13   S    
C37   O11   S    
Cu1   Cu2   S    
C39   O14   D    
Cu2   O6    S    
C43   H29   S    
C20   H2    S    
O20   C45   S    
C42   C43   S    
C7    C13   A    
Cu1   N2    S    
C45   H33   S    
C17   C18   A    
C46   H35   S    
C20   C21   S    
C39   O15   S    
C17   O9    S    
C22   N1    A    
C41   H24   S    
C29   O7    A    
Cu1   O1    S    
O16   C40   S    
C41   H23   S    
C3    C4    A    
C46   H34   S    
C29   O8    A    
C24   N1    A    
C14   C15   A    
C14   C19   A    
C42   H27   S    
C4    C5    A    
C11   C12   S    
C44   O19   S    
C16   O20   S    
C23   O5    A    
C6    C7    A    
C28   H7    S    
C1    O1    A    
Cu1   O7    S    
C2    C30   A    
C32   C33   A    
C19   C20   S    
C8    H11   S    
C5    C10   A    
C29   C31   S    
C32   O16   S    
C11   C13   A    
C27   H6    S    
C30   C31   A    
C21   H4    S    
C10   C44   S    
C18   C23   S    
C45   H32   S    
C46   H36   S    
O11   H18   S    
C1    O2    A    
Cu2   O4    S    
C10   C11   A    
C36   H15   S    
C38   O12   D    
C41   H25   S    
C42   H26   S    
C9    H12   S    
C22   C26   A    
C27   C28   S    
C13   H10   S    
C2    C9    A    
C12   O4    A    
Cu2   N1    S    
C24   C38   S    
C43   H30   S    
