data_mof_unit_50010.cif
_audit_creation_date              2012-12-10T18:54:28-0500
_audit_creation_method            fapswitch 2.2
_symmetry_space_group_name_H-M    P1
_symmetry_Int_Tables_number       1
_space_group_crystal_system       triclinic
_cell_length_a                    10.772124
_cell_length_b                    9.907376
_cell_length_c                    23.19312
_cell_angle_alpha                 91.463151
_cell_angle_beta                  89.901674
_cell_angle_gamma                 89.883754
_cell_volume                      2474.43453419

loop_
_atom_site_label
_atom_site_type_symbol
_atom_type_description
_atom_site_fract_x
_atom_site_fract_y
_atom_site_fract_z
_atom_type_partial_charge
C1    C     C_R   0.259745 0.500007 0.500660 1.022248
C2    C     C_R   0.553186 0.443627 0.710639 0.338090
C3    C     C_R   0.349741 0.556574 0.247348 0.428852
C4    C     C_R   0.526045 0.447779 0.769783 0.425038
C5    C     C_R   0.444226 0.515013 0.209272 -0.041299
C6    C     C_R   0.422298 0.520673 0.790069 -0.026935
C7    C     C_R   0.063027 0.375152 0.503564 0.386290
C8    C     C_R   0.935348 0.621074 0.521332 0.351076
C9    C     C_R   0.935851 0.374760 0.510580 0.355845
C10   C     C_R   0.062442 0.622881 0.513062 0.407958
C11   C     C_R   0.871494 0.498642 0.512748 -0.409080
C12   C     C_R   0.739444 0.499892 0.504341 0.943276
C13   C     C_R   0.126690 0.499530 0.505230 -0.419735
C14   C     C_R   0.447728 0.076352 0.544828 0.360957
C15   C     C_R   0.546217 0.925515 0.453866 0.356908
C16   C     C_R   0.549876 0.069347 0.454756 0.360655
C17   C     C_R   0.459842 0.932412 0.547271 0.396684
C18   C     C_R   0.499856 0.498781 0.389439 1.011261
C19   C     C_R   0.495602 0.501742 0.610543 0.993282
C20   C     C_R   0.467673 0.636323 0.879312 0.620926
C21   C     C_R   0.349470 0.439486 0.120362 0.677000
C22   C     C_R   0.329779 0.447918 0.878398 0.679141
C23   C     C_R   0.557881 0.466147 0.230085 0.374991
C24   C     C_R   0.486277 0.628817 0.121250 0.622339
C25   C     C_R   0.324629 0.450009 0.938987 -0.190300
C26   C     C_R   0.479321 0.637284 0.061043 -0.174865
C27   C     C_R   0.397404 0.546513 0.969753 -0.139154
C28   C     C_R   0.402634 0.544423 0.030455 -0.139453
C29   C     C_R   0.466855 0.643524 0.939768 -0.180881
C30   C     C_R   0.333063 0.447737 0.060507 -0.194856
C31   C     C_R   0.251790 0.356927 0.969470 0.420066
C32   C     C_R   0.548303 0.733876 0.030752 0.419209
C33   C     C_R   0.251196 0.360797 0.029958 0.411893
C34   C     C_R   0.341896 0.584416 0.752109 0.343707
C35   C     C_R   0.536599 0.741668 0.970813 0.410436
C36   C     C_3   0.235321 0.140146 0.936493 -0.160553
C37   C     C_3   0.747435 0.774407 0.057682 -0.126642
C38   C     C_3   0.058153 0.337661 0.067208 -0.124408
C39   C     C_3   0.527589 0.957330 0.941211 -0.162655
C40   C     C_3   0.191419 0.470898 0.350407 -0.268162
C41   C     C_3   0.750533 0.464150 0.676330 -0.344088
C42   C     C_3   0.240660 0.745690 0.227517 -0.197892
C43   C     C_3   0.709001 0.437414 0.820077 -0.181130
C44   C     C_3   0.099497 0.189353 0.444063 -0.192991
C45   C     C_R   0.577767 0.461009 0.289555 0.263558
C46   C     C_3   0.888853 0.777067 0.591836 -0.204323
C47   C     C_3   0.867647 0.203583 0.565784 -0.223587
C48   C     C_3   0.115085 0.807693 0.462310 -0.187235
C49   C     C_3   0.394173 0.150719 0.637478 -0.105927
C50   C     C_3   0.708949 0.820817 0.406576 -0.151346
C51   C     C_3   0.719373 0.145675 0.405612 -0.065127
C52   C     C_3   0.546918 0.867178 0.630422 -0.248893
C53   C     C_R   0.364836 0.575423 0.692950 0.257263
C54   C     C_R   0.481356 0.498069 0.327584 -0.340120
C55   C     C_R   0.471988 0.507553 0.672260 -0.411128
C56   C     C_R   0.366259 0.542429 0.306626 0.352169
Cl1   Cl    Cl    0.675304 0.413105 0.181262 -0.524270
Cl2   Cl    Cl    0.212244 0.674936 0.779422 -0.522856
Cl3   Cl    Cl    0.725538 0.417197 0.316014 -0.606903
Cl4   Cl    Cl    0.255025 0.643898 0.645110 -0.491856
H1    H     H_    0.324959 0.147983 0.912915 0.145762
H2    H     H_    0.507494 0.998311 0.985384 0.159376
H3    H     H_    0.439502 0.937019 0.917558 0.147043
H4    H     H_    0.578603 0.036121 0.917726 0.201536
H5    H     H_    0.240082 0.384081 0.369918 0.151068
H6    H     H_    0.149039 0.439357 0.308467 0.226337
H7    H     H_    0.114565 0.502152 0.379699 0.161779
H8    H     H_    0.755242 0.554557 0.705901 0.156218
H9    H     H_    0.738568 0.496308 0.631279 0.145525
H10   H     H_    0.841489 0.412004 0.678911 0.202472
H11   H     H_    0.317357 0.784860 0.200490 0.176534
H12   H     H_    0.175525 0.068805 0.911595 0.204897
H13   H     H_    0.248279 0.786932 0.272445 0.191897
H14   H     H_    0.152149 0.783135 0.209444 0.187987
H15   H     H_    0.735034 0.417232 0.865307 0.178644
H16   H     H_    0.782573 0.393110 0.791897 0.208504
H17   H     H_    0.706791 0.549193 0.815744 0.165111
H18   H     H_    0.186284 0.142875 0.426971 0.161304
H19   H     H_    0.031098 0.107266 0.449989 0.181971
H20   H     H_    0.063914 0.258750 0.410770 0.112535
H21   H     H_    0.849479 0.699095 0.620062 0.128336
H22   H     H_    0.838176 0.872615 0.601048 0.140563
H23   H     H_    0.250826 0.096848 0.979676 0.159939
H24   H     H_    0.987807 0.795397 0.602966 0.245618
H25   H     H_    0.827164 0.100820 0.563623 0.161155
H26   H     H_    0.804486 0.267645 0.592575 0.181517
H27   H     H_    0.960664 0.196082 0.586338 0.197087
H28   H     H_    0.149123 0.740282 0.426542 0.174442
H29   H     H_    0.175065 0.898522 0.463306 0.179400
H30   H     H_    0.018432 0.840895 0.453570 0.148895
H31   H     H_    0.343018 0.235655 0.658726 0.174448
H32   H     H_    0.494553 0.171375 0.644194 0.156329
H33   H     H_    0.363714 0.058202 0.659293 0.207067
H34   H     H_    0.753829 0.673456 0.077551 0.166006
H35   H     H_    0.719607 0.711152 0.397141 0.204419
H36   H     H_    0.759430 0.873051 0.371989 0.144456
H37   H     H_    0.755317 0.844626 0.448512 0.150862
H38   H     H_    0.753793 0.113809 0.362270 0.175928
H39   H     H_    0.768791 0.084849 0.438222 0.101950
H40   H     H_    0.745921 0.252571 0.412321 0.233993
H41   H     H_    0.622083 0.812013 0.606860 0.167719
H42   H     H_    0.581788 0.969549 0.641614 0.101379
H43   H     H_    0.529496 0.815066 0.671408 0.207187
H44   H     H_    0.807868 0.844343 0.082974 0.193716
H45   H     H_    0.784048 0.769044 0.012809 0.160534
H46   H     H_    0.012278 0.358836 0.025428 0.155378
H47   H     H_    0.067690 0.432540 0.093614 0.161153
H48   H     H_    0.996649 0.268987 0.091164 0.208643
N1    N     N_R   0.403967 0.536690 0.850728 -0.302657
N2    N     N_R   0.425951 0.528101 0.148741 -0.313779
N3    N     N_R   0.500000 0.857200 0.500000 -0.206997
N4    N     N_R   0.500000 0.142800 0.500000 -0.202054
O1    O     O_R   0.316770 0.614620 0.500000 -0.537472
O2    O     O_2   0.292188 0.342284 0.150176 -0.481886
O3    O     O_2   0.263295 0.357440 0.846942 -0.492830
O4    O     O_2   0.553128 0.719312 0.152586 -0.491335
O5    O     O_3   0.174647 0.266339 0.940700 -0.553878
O6    O     O_3   0.624907 0.825147 0.059446 -0.548680
O7    O     O_3   0.173940 0.273432 0.058612 -0.566543
O8    O     O_3   0.602208 0.840437 0.942782 -0.553333
O9    O     O_3   0.272506 0.581049 0.344395 -0.605616
O10   O     O_3   0.656157 0.372245 0.691054 -0.583578
O11   O     O_3   0.238229 0.603382 0.226103 -0.580981
O12   O     O_R   0.683230 0.385380 0.500000 -0.589860
O13   O     O_3   0.594571 0.373280 0.808242 -0.587049
O14   O     O_3   0.125719 0.252844 0.498010 -0.526362
O15   O     O_3   0.873242 0.741287 0.533020 -0.609059
O16   O     O_3   0.875151 0.251826 0.509306 -0.611222
O17   O     O_3   0.123828 0.745602 0.516228 -0.520698
O18   O     O_3   0.361266 0.146217 0.578704 -0.529765
O19   O     O_3   0.581642 0.855626 0.404191 -0.541414
O20   O     O_3   0.588620 0.135057 0.406177 -0.543668
O21   O     O_3   0.435246 0.869195 0.598121 -0.505578
O22   O     O_R   0.683230 0.614620 0.500000 -0.606580
O23   O     O_R   0.316770 0.385380 0.500000 -0.551114
O24   O     O_R   0.499970 0.614690 0.416160 -0.561654
O25   O     O_R   0.500030 0.385310 0.583840 -0.596064
O26   O     O_R   0.500030 0.614690 0.583840 -0.574055
O27   O     O_R   0.499970 0.385310 0.416160 -0.576330
O28   O     O_2   0.533638 0.725617 0.848785 -0.527795
Zn1   Zn    Zn3+2 0.500000 0.653120 0.500000 1.052003
Zn2   Zn    Zn3+2 0.500000 0.346880 0.500000 1.040798

loop_
_geom_bond_atom_site_label_1
_geom_bond_atom_site_label_2
_ccdc_geom_bond_type
C25   C31   A    
O25   Zn2   S    
C52   H43   S    
C26   C32   A    
C23   C45   A    
C27   C29   A    
C43   O13   S    
C21   N2    A    
C47   O16   S    
C14   N4    A    
C39   H4    S    
C52   H42   S    
C4    O13   S    
C47   H25   S    
C24   C26   A    
C49   O18   S    
C2    C55   A    
C8    C11   A    
O27   Zn2   S    
C50   H35   S    
C5    N2    S    
C36   H23   S    
C39   O8    S    
C51   H40   S    
C23   Cl1   S    
N4    Zn2   S    
C38   H47   S    
C31   O5    S    
C46   H22   S    
O23   Zn2   S    
C37   O6    S    
C42   H13   S    
C40   H7    S    
C12   O12   A    
C48   H28   S    
C18   O24   A    
C51   H38   S    
C53   C55   A    
C48   H30   S    
C43   H15   S    
C52   O21   S    
C14   C17   A    
O12   Zn2   S    
C35   O8    S    
C1    O1    A    
C49   H31   S    
C17   N3    A    
C53   Cl4   S    
C3    O11   S    
C42   O11   S    
C41   H8    S    
C20   C29   A    
C2    O10   S    
C51   H39   S    
C54   C56   A    
C52   H41   S    
C42   H14   S    
C9    O16   S    
C47   H26   S    
C15   N3    A    
C46   O15   S    
C44   H20   S    
C24   N2    A    
C4    C6    A    
N3    Zn1   S    
C22   C25   A    
C6    C34   A    
C47   H27   S    
C41   O10   S    
C38   H46   S    
C2    C4    A    
C32   C35   A    
C37   H45   S    
O24   Zn1   S    
C40   O9    S    
C46   H21   S    
C3    C56   A    
C8    O15   S    
C5    C23   A    
C19   O25   A    
C22   N1    A    
C44   O14   S    
C31   C33   A    
C36   O5    S    
C9    C11   A    
C46   H24   S    
C38   O7    S    
C22   O3    S    
C45   C54   A    
C24   O4    S    
C48   H29   S    
C17   O21   S    
C25   C27   A    
C6    N1    S    
C48   O17   S    
C1    C13   S    
C49   H32   S    
C36   H1    S    
O26   Zn1   S    
C16   N4    A    
C41   H9    S    
C14   O18   S    
C19   C55   S    
C43   H16   S    
C7    C9    A    
C39   H2    S    
C45   Cl3   S    
C50   H37   S    
C30   C33   A    
C44   H19   S    
C32   O6    S    
C21   O2    S    
C3    C5    A    
C10   C13   A    
C37   H44   S    
C51   O20   S    
C33   O7    S    
C43   H17   S    
C39   H3    S    
C21   C30   A    
C29   C35   A    
C26   C28   A    
C40   H5    S    
C56   O9    S    
C20   O28   S    
C44   H18   S    
C10   O17   S    
O22   Zn1   S    
C50   H36   S    
C19   O26   A    
C28   C30   A    
C42   H11   S    
C40   H6    S    
O1    Zn1   S    
C37   H34   S    
C7    O14   S    
C38   H48   S    
C18   O27   A    
C16   O20   S    
C50   O19   S    
C18   C54   S    
C20   N1    A    
C36   H12   S    
C7    C13   A    
C15   O19   S    
C34   C53   A    
C8    C10   A    
C27   C28   A    
C34   Cl2   S    
C12   O22   A    
C49   H33   S    
C1    O23   A    
C15   C16   A    
C11   C12   S    
C41   H10   S    
