data_mof_unit_56505.cif
_audit_creation_date              2012-12-11T15:20:23-0500
_audit_creation_method            fapswitch 2.2
_symmetry_space_group_name_H-M    P1
_symmetry_Int_Tables_number       1
_space_group_crystal_system       triclinic
_cell_length_a                    12.951406
_cell_length_b                    13.03253
_cell_length_c                    15.282448
_cell_angle_alpha                 116.957758
_cell_angle_beta                  63.294825
_cell_angle_gamma                 97.328988
_cell_volume                      2044.5560083

loop_
_atom_site_label
_atom_site_type_symbol
_atom_type_description
_atom_site_fract_x
_atom_site_fract_y
_atom_site_fract_z
_atom_type_partial_charge
C1    C     C_R   0.024944 0.834744 0.029225 -0.159821
C2    C     C_R   0.321842 0.521335 0.780298 -0.119373
C3    C     C_R   0.243251 0.480584 0.108008 -0.159664
C4    C     C_R   0.701184 0.403309 0.208860 -0.137646
C5    C     C_R   0.982376 0.300765 0.697639 -0.146813
C6    C     C_R   0.335518 0.542692 0.077439 0.160976
C7    C     C_R   0.921026 0.206027 0.698394 0.104183
C8    C     C_R   0.331391 0.445356 0.676715 0.040256
C9    C     C_R   0.085052 0.144405 0.968237 0.041189
C10   C     C_R   0.932972 0.044838 0.423348 -0.157153
C11   C     C_R   0.923535 0.139764 0.518424 -0.247392
C12   C     C_R   0.706085 0.427617 0.304779 0.052469
C13   C     C_R   0.882924 0.128657 0.615452 -0.058250
C14   C     C_R   0.825839 0.030973 0.621494 0.743566
C15   C     C_R   0.836443 0.935717 0.525836 -0.321420
C16   C     C_R   0.738795 0.579646 0.950181 -0.150415
C17   C     C_R   0.902293 0.938743 0.425257 0.058819
C18   C     C_R   0.639766 0.428436 0.484738 -0.167198
C19   C     C_R   0.545985 0.431192 0.578018 -0.158776
C20   C     C_R   0.439531 0.398535 0.575544 0.140932
C21   C     C_R   0.435648 0.339866 0.474394 -0.165995
C22   C     C_R   0.529401 0.336992 0.381069 -0.163298
C23   C     C_R   0.636147 0.564255 0.026186 0.149560
C24   C     C_R   0.627573 0.391923 0.388577 0.140356
C25   C     C_2   0.428812 0.564692 0.108791 -0.197864
C26   C     C_2   0.522158 0.608495 0.057391 -0.194077
C27   C     C_2   0.884806 0.968958 0.039953 0.238561
C28   C     C_R   0.940667 0.720678 0.316254 -0.132084
C29   C     C_2   0.886106 0.062535 0.126768 -0.140873
C30   C     C_R   0.660648 0.484207 0.051296 -0.100830
C31   C     C_R   0.029640 0.821504 0.222036 -0.127062
C32   C     C_R   0.802116 0.487939 0.304140 -0.134377
C33   C     C_R   0.925140 0.749530 0.933152 -0.120486
C34   C     C_R   0.952477 0.831428 0.324915 0.092766
C35   C     C_R   0.947234 0.856478 0.998449 0.084119
C36   C     C_3   0.807206 0.975647 0.992860 -0.956410
C37   C     C_R   0.322489 0.580219 0.012030 -0.128582
C38   C     C_R   0.901881 0.201085 0.792940 -0.123106
C39   C     C_R   0.219695 0.435879 0.684477 -0.124645
C40   C     C_R   0.097623 0.250735 0.043633 -0.120634
C41   C     C_R   0.999462 0.166835 0.945924 -0.090884
F1    F     F_    0.768693 0.022088 0.716544 -0.737417
H1    H     H_    0.071992 0.898400 0.067689 0.089178
H2    H     H_    0.959841 0.216682 0.511776 0.137468
H3    H     H_    0.648017 0.343765 0.174868 0.088392
H4    H     H_    0.801747 0.857531 0.530740 0.152807
H5    H     H_    0.716843 0.465181 0.491962 0.108247
H6    H     H_    0.554540 0.469719 0.653399 0.110255
H7    H     H_    0.357206 0.306519 0.468099 0.108881
H8    H     H_    0.519395 0.301651 0.306573 0.108914
H9    H     H_    0.430749 0.520929 0.153825 0.126350
H10   H     H_    0.519046 0.656184 0.016002 0.125408
H11   H     H_    0.935770 0.062625 0.168084 0.089931
H12   H     H_    0.845463 0.148072 0.828433 0.179431
H13   H     H_    0.746308 0.626756 0.905588 0.092902
H14   H     H_    0.890434 0.694753 0.380099 0.099098
H15   H     H_    0.601750 0.447480 0.103859 0.090635
H16   H     H_    0.068369 0.890523 0.202124 0.084234
H17   H     H_    0.841682 0.506652 0.358042 0.085000
H18   H     H_    0.879986 0.734830 0.884787 0.104563
H19   H     H_    0.368510 0.644182 0.986198 0.086447
H20   H     H_    0.735595 0.919816 0.008449 0.244679
H21   H     H_    0.768404 0.065524 0.030081 0.253387
H22   H     H_    0.857876 0.944907 0.903130 0.243493
H23   H     H_    0.193820 0.384962 0.620318 0.093928
H24   H     H_    0.158361 0.266120 0.077792 0.101096
H25   H     H_    0.970314 0.104293 0.887816 0.111554
H26   H     H_    0.390815 0.549800 0.804558 0.094030
H27   H     H_    0.219581 0.451382 0.169926 0.092069
H28   H     H_    0.999049 0.340792 0.644859 0.089041
H29   H     H_    0.974802 0.052803 0.347855 0.116179
N1    N     N_R   0.037310 0.720000 0.995790 -0.036040
N2    N     N_R   0.824890 0.517960 0.936420 -0.041086
N3    N     N_R   0.003210 0.648190 0.211380 -0.041831
N4    N     N_R   0.774330 0.457010 0.995840 -0.045900
N5    N     N_R   0.053760 0.709140 0.151960 -0.039655
N6    N     N_R   0.853860 0.498840 0.211410 -0.038074
N7    N     N_R   0.974240 0.667310 0.936390 -0.041745
N8    N     N_R   0.225670 0.542990 0.004160 -0.044056
N9    N     N_R   0.946240 0.290860 0.848040 -0.054502
N10   N     N_R   0.146140 0.501160 0.788590 -0.041206
N11   N     N_R   0.025760 0.332690 0.063610 -0.041454
N12   N     N_R   0.962690 0.280000 0.004210 -0.045428
N13   N     N_R   0.209210 0.553840 0.847990 -0.041130
N14   N     N_R   0.175110 0.482040 0.063580 -0.040762
N15   N     N_R   0.996790 0.351810 0.788620 -0.040439
N16   N     N_R   0.790790 0.446160 0.152010 -0.039050
Ni1   Ni    Ni4+2 0.130310 0.630310 0.999970 0.217411
Ni2   Ni    Ni4+2 0.869690 0.369690 0.000030 0.217476
Ni3   Ni    Ni4+2 0.985640 0.509470 0.863740 0.213480
Ni4   Ni    Ni4+2 0.014360 0.490530 0.136260 0.211189

loop_
_geom_bond_atom_site_label_1
_geom_bond_atom_site_label_2
_ccdc_geom_bond_type
C3    N14   A    
C39   H23   S    
C2    N13   A    
C19   C20   A    
C3    C6    A    
C28   N3    A    
C18   H5    S    
C21   H7    S    
C28   H14   S    
C41   H25   S    
C4    N16   A    
N7    Ni3   S    
C37   N8    A    
C8    C20   S    
N3    N5    A    
C18   C24   A    
C31   H16   S    
C3    H27   S    
N2    Ni3   S    
C2    H26   S    
C33   N7    A    
C6    C25   S    
C27   C29   D    
C10   C17   A    
C41   N12   A    
C30   H15   S    
C18   C19   A    
C23   C26   S    
N9    Ni2   S    
N1    N7    A    
C32   N6    A    
C1    H1    S    
C38   N9    A    
N9    N15   A    
C8    C39   A    
C4    C12   A    
C36   H21   S    
N5    Ni1   S    
C14   F1    S    
C10   H29   S    
C28   C34   A    
C40   H24   S    
C21   C22   A    
C12   C32   A    
N2    N4    A    
C36   H20   S    
N8    Ni1   S    
N1    Ni1   S    
C4    H3    S    
N14   Ni4   S    
N12   Ni2   S    
C31   C34   A    
C1    N1    A    
C16   N2    A    
C23   C30   A    
C40   N11   A    
C39   N10   A    
N15   Ni3   S    
C5    C7    A    
C19   H6    S    
C27   C35   S    
C25   C26   D    
C9    C40   A    
N11   Ni4   S    
N3    Ni4   S    
C25   H9    S    
C5    H28   S    
C26   H10   S    
C38   H12   S    
C6    C37   A    
C11   H2    S    
C5    N15   A    
C16   C23   A    
N16   Ni2   S    
C22   C24   A    
C17   C34   S    
N10   Ni3   S    
N8    N14   A    
N10   N13   A    
C1    C35   A    
C15   C17   A    
N6    Ni4   S    
C2    C8    A    
N13   Ni1   S    
C37   H19   S    
C27   C36   S    
C33   H18   S    
C12   C24   S    
C9    C41   A    
C15   H4    S    
C22   H8    S    
C16   H13   S    
C36   H22   S    
C30   N4    A    
C11   C13   A    
C31   N5    A    
C29   H11   S    
C33   C35   A    
C7    C38   A    
C10   C11   A    
N4    Ni2   S    
C7    C13   S    
C20   C21   A    
N6    N16   A    
N11   N12   A    
C14   C15   A    
C32   H17   S    
C13   C14   A    
