data_mof_unit_52536.cif
_audit_creation_date              2013-03-05T16:48:15-0500
_audit_creation_method            fapswitch 2.2
_symmetry_space_group_name_H-M    P1
_symmetry_Int_Tables_number       1
_space_group_crystal_system       triclinic
_cell_length_a                    23.521644
_cell_length_b                    8.943722
_cell_length_c                    8.098826
_cell_angle_alpha                 89.752983
_cell_angle_beta                  89.998807
_cell_angle_gamma                 90.008001
_cell_volume                      1703.74263741

loop_
_atom_site_label
_atom_site_type_symbol
_atom_site_description
_atom_site_fract_x
_atom_site_fract_y
_atom_site_fract_z
_atom_type_partial_charge
O1    O     O_R   0.500000 0.285350 0.636850 -0.606785
O2    O     O_R   0.500000 0.714650 0.363150 -0.607046
O3    O     O_R   0.500000 0.714650 0.636850 -0.606466
O4    O     O_R   0.500000 0.285350 0.363150 -0.606758
H1    H     H_    0.948012 0.125203 0.555161 0.191250
H2    H     H_    0.051829 0.876085 0.465870 0.189292
H3    H     H_    0.948480 0.875687 0.448662 0.190878
H4    H     H_    0.051361 0.124001 0.538071 0.188832
C1    C     C_R   0.499997 0.217946 0.500226 0.962085
C2    C     C_R   0.499994 0.782053 0.499774 0.962233
O5    O     O_R   0.416160 0.500000 0.636910 -0.590342
O6    O     O_R   0.583840 0.500000 0.363090 -0.590465
O7    O     O_R   0.583840 0.500000 0.636910 -0.590581
O8    O     O_R   0.416160 0.500000 0.363090 -0.590185
C3    C     C_R   0.207912 0.499451 0.500920 -0.011603
C4    C     C_R   0.791841 0.500870 0.500773 -0.010344
C5    C     C_R   0.389073 0.499906 0.500011 1.001221
C6    C     C_R   0.610902 0.500111 0.500003 1.003013
Zn1   Zn    Zn3+2 0.500000 0.500000 0.682780 1.128447
Zn2   Zn    Zn3+2 0.500000 0.500000 0.317220 1.128348
C7    C     C_R   0.296939 0.575643 0.373894 0.179298
C8    C     C_R   0.702996 0.421118 0.377053 0.180096
C9    C     C_R   0.297140 0.423246 0.626602 0.179336
C10   C     C_R   0.702777 0.580373 0.623265 0.180168
C11   C     C_R   0.326831 0.499572 0.500121 -0.349782
C12   C     C_R   0.673094 0.500545 0.500078 -0.349206
C13   C     C_R   0.880944 0.632411 0.475007 0.637055
C14   C     C_R   0.118414 0.366113 0.498439 0.635979
C15   C     C_R   0.880775 0.368922 0.528115 0.636867
C16   C     C_R   0.118587 0.633422 0.504940 0.635896
N1    N     N_R   0.852600 0.500747 0.501352 -0.324850
N2    N     N_R   0.146967 0.499656 0.501492 -0.323023
C17   C     C_R   0.940052 0.365145 0.522748 -0.028283
C18   C     C_R   0.059373 0.636189 0.494520 -0.027681
C19   C     C_R   0.940220 0.635792 0.480949 -0.028330
C20   C     C_R   0.059205 0.363832 0.509314 -0.027730
C21   C     C_R   0.969863 0.500360 0.501924 -0.006258
C22   C     C_R   0.029532 0.500130 0.501958 -0.007184
C23   C     C_R   0.970080 0.230224 0.537712 -0.115876
C24   C     C_R   0.029503 0.770915 0.476367 -0.115061
C25   C     C_R   0.970414 0.770498 0.466173 -0.116289
C26   C     C_R   0.029170 0.229349 0.527586 -0.115394
C27   C     C_1   0.499997 0.065160 0.500323 -0.072997
C28   C     C_1   0.499996 0.934840 0.499677 -0.072918
C29   C     C_R   0.237440 0.569310 0.370068 0.252135
C30   C     C_R   0.762511 0.425308 0.374646 0.253258
C31   C     C_R   0.237654 0.429491 0.631255 0.252218
C32   C     C_R   0.762284 0.576460 0.626391 0.253285
N3    N     N_1   0.500000 0.500000 0.073640 0.023433
N4    N     N_1   0.500000 0.500000 0.926360 0.023460
O9    O     O_2   0.851698 0.759249 0.443649 -0.466349
O10   O     O_2   0.147320 0.236329 0.485340 -0.468179
O11   O     O_2   0.851357 0.242278 0.559177 -0.466227
O12   O     O_2   0.147674 0.762967 0.517824 -0.467911
N5    N     N_R   0.206690 0.636690 0.235463 0.260001
O13   O     O_R   0.165706 0.564157 0.163589 -0.307756
O14   O     O_R   0.216938 0.774205 0.191513 -0.229498
N6    N     N_R   0.793489 0.349722 0.246672 0.257088
O15   O     O_R   0.834371 0.417755 0.168442 -0.309693
O16   O     O_R   0.782658 0.210479 0.212905 -0.230431
N7    N     N_R   0.207137 0.362057 0.766284 0.260003
O17   O     O_R   0.166379 0.434699 0.839068 -0.307160
O18   O     O_R   0.217394 0.224457 0.809858 -0.229395
N8    N     N_R   0.793022 0.652344 0.754619 0.257096
O19   O     O_R   0.833627 0.584332 0.834059 -0.308974
O20   O     O_R   0.782289 0.791840 0.787344 -0.230338
N9    N     N_R   0.326850 0.661744 0.251421 0.261192
O21   O     O_R   0.359218 0.772448 0.296041 -0.344071
O22   O     O_R   0.319750 0.634607 0.095122 -0.263183
N10   N     N_R   0.673113 0.334542 0.255800 0.260617
O23   O     O_R   0.639938 0.225674 0.301973 -0.344222
O24   O     O_R   0.681276 0.359029 0.099117 -0.263847
N11   N     N_R   0.327249 0.337028 0.748545 0.261138
O25   O     O_R   0.320404 0.363963 0.904981 -0.263450
O26   O     O_R   0.359635 0.226591 0.703303 -0.344634
N12   N     N_R   0.672678 0.667156 0.743891 0.260513
O27   O     O_R   0.680792 0.643550 0.900759 -0.263793
O28   O     O_R   0.639339 0.775380 0.696929 -0.345183

loop_
_geom_bond_atom_site_label_1
_geom_bond_atom_site_label_2
_geom_bond_distance
_ccdc_geom_bond_type
N5    O13   1.300793 A    
N11   O25   1.300672 A    
C20   C26   1.402106 A    
C6    C12   1.462858 S    
C3    C31   1.410523 A    
C4    C32   1.407640 A    
C3    N2    1.433528 S    
C4    N1    1.429172 S    
C16   O12   1.349897 S    
O5    Zn1   2.006750 S    
C17   C23   1.403085 A    
O7    C6    1.278502 A    
C18   C24   1.402088 A    
N12   O28   1.301356 A    
C19   C21   1.407355 A    
C21   C22   1.403524 A    
H4    C26   1.080222 S    
C32   N8    1.437991 S    
N6    O16   1.301325 A    
C15   C17   1.395387 A    
N7    O18   1.301386 A    
O2    Zn2   1.957049 S    
O3    Zn1   1.953900 S    
N10   O23   1.301323 A    
C9    C11   1.413077 A    
C7    N9    1.437032 S    
N11   O26   1.301325 A    
O8    C5    1.278888 A    
C9    N11   1.437064 S    
C13   O9    1.349942 S    
C23   C26   1.392337 A    
C7    C29   1.400996 A    
C1    C27   1.366479 S    
C9    C31   1.400857 A    
C16   C18   1.395569 A    
C2    C28   1.366478 S    
N9    O21   1.301323 A    
C10   C32   1.400376 A    
O8    Zn2   2.006735 S    
C14   N2    1.370487 A    
O1    C1    1.262338 A    
N12   O27   1.301057 A    
C4    C30   1.407812 A    
O7    Zn1   2.006733 S    
C10   N12   1.436910 S    
C13   C19   1.395428 A    
N6    O15   1.301080 A    
O1    Zn1   1.957050 S    
C13   N1    1.369034 A    
C17   C21   1.407337 A    
N9    O22   1.300690 A    
N8    O20   1.301330 A    
C27   C28   1.165578 T    
Zn2   N3    1.972712 S    
O6    Zn2   2.006748 S    
C29   N5    1.438480 S    
C24   C25   1.392347 A    
C8    C30   1.400520 A    
H1    C23   1.081833 S    
H2    C24   1.080246 S    
C3    C29   1.410669 A    
O2    C2    1.262337 A    
C7    C11   1.412971 A    
O5    C5    1.278761 A    
C18   C22   1.405784 A    
C10   C12   1.413709 A    
C31   N7    1.438415 S    
C5    C11   1.464046 S    
N8    O19   1.301133 A    
N5    O14   1.301383 A    
C15   N1    1.369026 A    
O3    C2    1.260986 A    
C16   N2    1.370481 A    
C14   O10   1.349881 S    
Zn1   N4    1.972712 S    
C15   O11   1.349951 S    
C20   C22   1.405804 A    
H3    C25   1.081820 S    
N7    O17   1.300803 A    
C19   C25   1.403105 A    
O4    Zn2   1.953901 S    
C14   C20   1.395612 A    
N3    N4    1.192794 T    
C8    C12   1.413599 A    
O6    C6    1.278574 A    
N10   O24   1.301017 A    
O4    C1    1.260985 A    
C8    N10   1.436805 S    
C30   N6    1.438158 S    
