data_mof_unit_45757.cif
_audit_creation_date              2012-12-11T14:08:20-0500
_audit_creation_method            fapswitch 2.2
_symmetry_space_group_name_H-M    P1
_symmetry_Int_Tables_number       1
_space_group_crystal_system       triclinic
_cell_length_a                    11.015529
_cell_length_b                    10.99513
_cell_length_c                    18.757148
_cell_angle_alpha                 90.270014
_cell_angle_beta                  89.824055
_cell_angle_gamma                 60.098919
_cell_volume                      1969.34535359

loop_
_atom_site_label
_atom_site_type_symbol
_atom_type_description
_atom_site_fract_x
_atom_site_fract_y
_atom_site_fract_z
_atom_type_partial_charge
C1    C     C_R   0.235104 0.646567 0.608163 0.591630
C2    C     C_3   0.727339 0.527728 0.797590 -0.217556
C3    C     C_3   0.697355 0.677477 0.813057 -0.002487
C4    C     C_3   0.666862 0.650741 0.677315 0.082960
C5    C     C_3   0.790146 0.678737 0.688222 -0.008107
C6    C     C_3   0.696084 0.516347 0.719601 0.002995
C7    C     C_2   0.691825 0.133662 0.662403 -0.056436
C8    C     C_2   0.688612 0.152421 0.824438 0.178180
C9    C     C_2   0.799689 0.112716 0.780451 -0.153081
C10   C     C_2   0.785437 0.145377 0.703494 -0.124750
C11   C     C_2   0.178204 0.665243 0.680281 -0.086886
C12   C     C_R   0.652669 0.622457 0.601712 0.611839
C13   C     C_2   0.187434 0.663454 0.837645 -0.042998
C14   C     C_2   0.189968 0.558779 0.798180 0.108362
C15   C     C_2   0.218608 0.551434 0.721173 -0.043583
C16   C     C_2   0.653962 0.647247 0.318343 -0.096739
C17   C     C_2   0.636099 0.667123 0.160474 -0.106776
C18   C     C_2   0.709378 0.548170 0.196530 -0.159879
C19   C     C_2   0.689245 0.539514 0.272659 -0.150031
C20   C     C_2   0.633103 0.197818 0.318747 -0.100859
C21   C     C_2   0.637206 0.200388 0.164253 -0.102002
C22   C     C_2   0.524097 0.227251 0.201828 -0.164327
C23   C     C_R   0.632009 0.221566 0.599142 0.603149
C24   C     C_2   0.517930 0.255938 0.277385 -0.153356
C25   C     C_2   0.200359 0.657043 0.323277 -0.047543
C26   C     C_2   0.188625 0.643129 0.170101 -0.120097
C27   C     C_2   0.236828 0.717916 0.202445 -0.150969
C28   C     C_2   0.248248 0.721866 0.279119 0.073018
C29   C     C_R   0.705174 0.096530 0.896186 0.563696
C30   C     C_R   0.723077 0.688528 0.888728 0.535274
C31   C     C_R   0.117695 0.706354 0.907073 0.549930
C32   C     C_R   0.673287 0.113267 0.101463 0.561350
C33   C     C_R   0.693019 0.689004 0.094957 0.558043
C34   C     C_R   0.232830 0.645309 0.398104 0.565664
C35   C     C_R   0.101963 0.704143 0.108964 0.562685
C36   C     C_R   0.642129 0.621625 0.393144 0.555283
C37   C     C_R   0.613589 0.234786 0.393328 0.541074
C38   C     C_3   0.544416 0.784772 0.790872 -0.214259
C39   C     C_3   0.528988 0.777497 0.709442 0.006297
C40   C     C_3   0.796845 0.710091 0.767893 -0.210159
Cr1   Cr    Cr6+3 0.393010 0.398050 0.501480 1.095453
Cr2   Cr    Cr6+3 0.398820 0.707980 0.501630 1.095040
Cr3   Cr    Cr6+3 0.708140 0.393940 0.496850 1.065148
Cr4   Cr    Cr6+3 0.937950 0.938450 0.008940 1.021456
Cr5   Cr    Cr6+3 0.626180 0.937030 0.994750 1.044428
Cr6   Cr    Cr6+3 0.937790 0.625760 0.001410 1.033391
H1    H     H_    0.516610 0.893319 0.806579 0.204172
H2    H     H_    0.787515 0.420828 0.697389 0.193116
H3    H     H_    0.905433 0.650778 0.786734 0.152265
H4    H     H_    0.904964 0.058729 0.802029 0.120801
H5    H     H_    0.845036 0.191345 0.682369 0.161277
H6    H     H_    0.642036 0.077177 0.682149 0.188221
H7    H     H_    0.275065 0.447416 0.697295 0.234068
H8    H     H_    0.217122 0.734537 0.813441 0.082823
H9    H     H_    0.469958 0.760345 0.818903 0.126885
H10   H     H_    0.119647 0.770537 0.702503 0.085709
H11   H     H_    0.794908 0.455961 0.171242 0.153382
H12   H     H_    0.716106 0.436301 0.292434 0.154579
H13   H     H_    0.545688 0.756689 0.184378 0.092249
H14   H     H_    0.626481 0.751655 0.300555 0.093279
H15   H     H_    0.441138 0.212933 0.179471 0.156307
H16   H     H_    0.413711 0.319676 0.300067 0.157532
H17   H     H_    0.715933 0.222044 0.186044 0.100690
H18   H     H_    0.738262 0.133979 0.297420 0.095856
H19   H     H_    0.245177 0.799229 0.173683 0.150332
H20   H     H_    0.437222 0.763633 0.699747 0.200266
H21   H     H_    0.191391 0.552072 0.193810 0.095203
H22   H     H_    0.154505 0.596130 0.304002 0.056776
H23   H     H_    0.765237 0.822814 0.774530 0.121845
H24   H     H_    0.773348 0.770688 0.656240 0.164860
H25   H     H_    0.839582 0.450980 0.807959 0.145025
H26   H     H_    0.664199 0.500423 0.833672 0.170162
O1    O     O_R   0.507110 0.256280 0.580300 -0.452453
O2    O     O_R   0.524640 0.695370 0.425100 -0.478575
O3    O     O_R   0.735890 0.504390 0.415980 -0.509677
O4    O     O_R   0.690560 0.277820 0.422350 -0.511465
O5    O     O_3   0.499990 0.499990 0.499980 -0.276148
O6    O     O_R   0.089190 0.825870 0.932320 -0.527864
O7    O     O_R   0.819070 0.053960 0.931440 -0.524458
O8    O     O_R   0.607070 0.076440 0.916460 -0.468364
O9    O     O_R   0.647110 0.806550 0.917690 -0.509333
O10   O     O_R   0.837080 0.593860 0.915300 -0.535731
O11   O     O_R   0.064770 0.636080 0.932550 -0.485098
O12   O     O_R   0.280830 0.527190 0.577940 -0.461270
O13   O     O_R   0.068250 0.829200 0.092940 -0.515728
O14   O     O_R   0.799650 0.057040 0.080330 -0.499297
O15   O     O_R   0.586130 0.079760 0.077080 -0.510674
O16   O     O_R   0.627700 0.809630 0.066580 -0.498825
O17   O     O_R   0.816140 0.597180 0.075920 -0.510235
O18   O     O_R   0.045360 0.639170 0.081440 -0.495050
O19   O     O_3   0.833980 0.833750 0.001700 -0.264305
O20   O     O_R   0.261360 0.738990 0.584270 -0.502486
O21   O     O_R   0.532590 0.694780 0.574370 -0.470887
O22   O     O_R   0.744470 0.503750 0.577000 -0.472149
O23   O     O_R   0.698520 0.277230 0.571620 -0.494684
O24   O     O_R   0.498530 0.256920 0.419280 -0.512907
O25   O     O_R   0.272880 0.527780 0.428680 -0.515625
O26   O     O_R   0.252780 0.739630 0.423250 -0.467840
Br1   Br    Br    0.968788 0.521428 0.655450 -0.582031
Br2   Br    Br    0.497319 0.245577 0.793199 -0.471828
N1    N     N_3   0.177245 0.446408 0.830459 -0.533407
H27   H     H_    0.201969 0.366572 0.793044 0.275715
H28   H     H_    0.072910 0.481379 0.842990 0.248318
N2    N     N_3   0.299484 0.810589 0.305837 -0.559981
H29   H     H_    0.226695 0.914165 0.292759 0.224257
H30   H     H_    0.391871 0.785093 0.278765 0.216871
Br3   Br    Br    0.474785 0.957077 0.664475 -0.537382
Br4   Br    Br    0.538328 0.485846 0.712620 -0.560548

loop_
_geom_bond_atom_site_label_1
_geom_bond_atom_site_label_2
_ccdc_geom_bond_type
C7    C10   D    
C30   O10   A    
N1    H27   S    
Cr2   O21   S    
C35   O13   A    
C1    C11   S    
Cr3   O22   S    
N2    H30   S    
Cr6   O17   S    
C25   C28   D    
C39   Br3   S    
C26   C27   D    
C6    H2    S    
C8    C29   S    
C15   H7    S    
Cr5   O15   S    
C33   O16   A    
C7    H6    S    
Cr2   O26   S    
Cr1   O5    S    
C38   C39   S    
C2    H26   S    
Cr1   O24   S    
C40   H3    S    
C34   O25   A    
C31   O11   A    
C18   C19   S    
C16   H14   S    
Cr6   O10   S    
C11   C15   D    
C38   H9    S    
C5    Br1   S    
C3    C38   S    
C8    C9    D    
Cr3   O23   S    
C4    C12   S    
C9    C10   S    
Cr2   O20   S    
C25   C34   S    
N1    H28   S    
C21   C22   D    
C12   O22   A    
C2    C6    S    
C25   H22   S    
C17   C33   S    
C23   O1    A    
Cr4   O14   S    
C10   H5    S    
N2    H29   S    
C19   H12   S    
Cr3   O3    S    
C21   C32   S    
Cr2   O2    S    
C40   H23   S    
C20   C24   D    
Cr5   O16   S    
C4    C6    S    
C14   N1    S    
Cr6   O19   S    
C32   O15   A    
C37   O24   A    
C1    O12   A    
C20   H18   S    
C3    C30   S    
C5    H24   S    
C27   H19   S    
C36   O3    A    
C33   O17   A    
C28   N2    S    
C18   H11   S    
C29   O7    A    
C4    C39   S    
C32   O14   A    
C17   C18   D    
C38   H1    S    
Cr4   O19   S    
C36   O2    A    
C17   H13   S    
C37   O4    A    
C3    C40   S    
C1    O20   A    
C39   H20   S    
C22   C24   S    
C12   O21   A    
C26   H21   S    
C2    H25   S    
C31   O6    A    
C13   H8    S    
Cr3   O4    S    
C24   H16   S    
C13   C31   S    
Cr4   O7    S    
Cr5   O9    S    
C9    H4    S    
C4    C5    S    
Cr6   O18   S    
Cr3   O5    S    
C30   O9    A    
Cr4   O6    S    
C2    C3    S    
C8    Br2   S    
C16   C36   S    
C22   H15   S    
C20   C37   S    
Cr1   O12   S    
C29   O8    A    
C16   C19   D    
C7    C23   S    
C34   O26   A    
C23   O23   A    
Cr5   O8    S    
Cr1   O25   S    
Cr5   O19   S    
C21   H17   S    
Cr1   O1    S    
Cr6   O11   S    
C35   O18   A    
C26   C35   S    
Cr2   O5    S    
C5    C40   S    
C27   C28   S    
C6    Br4   S    
C14   C15   S    
C13   C14   D    
C11   H10   S    
Cr4   O13   S    
