data_mof_unit_59243.cif
_audit_creation_date              2012-12-10T18:03:58-0500
_audit_creation_method            fapswitch 2.2
_symmetry_space_group_name_H-M    P1
_symmetry_Int_Tables_number       1
_space_group_crystal_system       triclinic
_cell_length_a                    10.886781
_cell_length_b                    9.626706
_cell_length_c                    10.837242
_cell_angle_alpha                 89.505113
_cell_angle_beta                  93.079233
_cell_angle_gamma                 88.819201
_cell_volume                      1133.84988393

loop_
_atom_site_label
_atom_site_type_symbol
_atom_type_description
_atom_site_fract_x
_atom_site_fract_y
_atom_site_fract_z
_atom_type_partial_charge
C1    C     C_R   0.262892 0.500690 0.506334 0.833197
C2    C     C_R   0.737725 0.498327 0.497198 0.800976
C3    C     C_R   0.439813 0.077280 0.406079 0.359581
C4    C     C_R   0.557752 0.071955 0.594899 0.385887
C5    C     C_R   0.435358 0.927611 0.409473 0.425486
C6    C     C_R   0.559209 0.923556 0.594279 0.376068
C7    C     C_R   0.501819 0.500462 0.262692 0.886703
C8    C     C_R   0.501934 0.499594 0.737097 0.893589
C9    C     C_R   0.417511 0.576471 0.057429 -0.130895
C10   C     C_R   0.412696 0.571041 0.929813 -0.041113
C11   C     C_R   0.505519 0.499832 0.129147 -0.210787
C12   C     C_R   0.502817 0.497427 0.870206 -0.265570
C13   C     C_R   0.589881 0.412510 0.070437 0.353310
C14   C     C_R   0.595375 0.423129 0.940106 0.407923
C15   C     C_3   0.375754 0.720865 0.913057 0.226781
C16   C     C_3   0.385876 0.729005 0.054402 0.346032
C17   C     C_R   0.069403 0.374251 0.533195 0.421082
C18   C     C_R   0.941685 0.369278 0.511152 0.399464
C19   C     C_R   0.872274 0.494841 0.495169 -0.172680
C20   C     C_R   0.129143 0.499903 0.512638 -0.154913
C21   C     C_R   0.933273 0.620418 0.484477 -0.280412
C22   C     C_R   0.060169 0.622382 0.491913 -0.264851
Cu1   Cu    Cu3+1 0.500000 0.640660 0.500000 1.011420
Cu2   Cu    Cu3+1 0.500000 0.359340 0.500000 1.047745
N1    N     N_R   0.500000 0.852070 0.500000 -0.279848
N2    N     N_R   0.500000 0.147940 0.500000 -0.271226
O1    O     O_R   0.319640 0.618740 0.499990 -0.573873
O2    O     O_R   0.680360 0.618740 0.500010 -0.604406
O3    O     O_R   0.319620 0.381170 0.499990 -0.532182
O4    O     O_R   0.680380 0.381170 0.500010 -0.547316
O5    O     O_R   0.499990 0.618810 0.319660 -0.512254
O6    O     O_R   0.500010 0.618810 0.680340 -0.556244
O7    O     O_R   0.499960 0.381240 0.319650 -0.530986
O8    O     O_R   0.500040 0.381240 0.680350 -0.510970
O9    O     O_3   0.675331 0.334428 0.143473 -0.601474
C23   C     C_3   0.698174 0.201367 0.093701 -0.295942
H1    H     H_    0.784395 0.201502 0.043648 0.199480
H2    H     H_    0.621089 0.162741 0.032316 0.169838
H3    H     H_    0.712890 0.125558 0.170836 0.138828
O10   O     O_3   0.695758 0.371535 0.881401 -0.588663
C24   C     C_3   0.795527 0.461225 0.903128 -0.379923
H4    H     H_    0.836470 0.447649 0.998696 0.206972
H5    H     H_    0.768715 0.572219 0.886744 0.139455
H6    H     H_    0.867783 0.434409 0.838434 0.190971
H7    H     H_    0.442724 0.779483 0.860232 0.157443
H8    H     H_    0.295568 0.749564 0.094558 0.134476
O11   O     O_3   0.252759 0.732384 0.864904 -0.573247
C25   C     C_3   0.226803 0.871151 0.828066 -0.307843
H9    H     H_    0.280929 0.900243 0.747851 0.171603
H10   H     H_    0.244545 0.944210 0.905807 0.152695
H11   H     H_    0.127907 0.881168 0.798229 0.184899
O12   O     O_3   0.478810 0.814080 0.110572 -0.551008
C26   C     C_3   0.589669 0.820835 0.048655 -0.363658
H12   H     H_    0.581173 0.901052 0.974325 0.183646
H13   H     H_    0.620104 0.719564 0.011758 0.161665
H14   H     H_    0.663371 0.854261 0.115865 0.176870
O13   O     O_3   0.132207 0.268259 0.599254 -0.563424
C27   C     C_3   0.147207 0.149983 0.525707 -0.229554
H15   H     H_    0.231510 0.093293 0.561560 0.157709
H16   H     H_    0.159583 0.175751 0.426847 0.165812
H17   H     H_    0.069480 0.078636 0.535137 0.172979
O14   O     O_3   0.885951 0.242210 0.513842 -0.607045
C28   C     C_3   0.865417 0.196207 0.391309 -0.356268
H18   H     H_    0.806903 0.271220 0.335305 0.236393
H19   H     H_    0.816622 0.096245 0.393303 0.165496
H20   H     H_    0.953043 0.178083 0.345448 0.136662
H21   H     H_    0.883257 0.717798 0.469082 0.172329
H22   H     H_    0.103641 0.720586 0.484478 0.170982
O15   O     O_3   0.373005 0.153768 0.315554 -0.569246
C29   C     C_3   0.409752 0.118909 0.196303 -0.172422
H23   H     H_    0.343435 0.047468 0.150667 0.181090
H24   H     H_    0.504029 0.072492 0.196072 0.167336
H25   H     H_    0.407601 0.214529 0.138567 0.159492
O16   O     O_3   0.599149 0.138804 0.700821 -0.535911
C30   C     C_3   0.728740 0.143269 0.708240 -0.066498
H26   H     H_    0.775645 0.078633 0.639832 0.122326
H27   H     H_    0.762835 0.109394 0.802221 0.139606
H28   H     H_    0.756892 0.251778 0.695599 0.237488
O17   O     O_3   0.365124 0.856649 0.322002 -0.500830
C31   C     C_3   0.239067 0.881352 0.338944 -0.312392
H29   H     H_    0.204519 0.975880 0.288276 0.163081
H30   H     H_    0.218891 0.890618 0.437937 0.118798
H31   H     H_    0.186997 0.792967 0.299377 0.170495
O18   O     O_3   0.602162 0.853613 0.700442 -0.560277
C32   C     C_3   0.727757 0.815827 0.694682 -0.245376
H32   H     H_    0.780755 0.863772 0.772824 0.130323
H33   H     H_    0.769905 0.844569 0.606855 0.121716
H34   H     H_    0.738649 0.702254 0.708463 0.187328

loop_
_geom_bond_atom_site_label_1
_geom_bond_atom_site_label_2
_ccdc_geom_bond_type
C28   H19   S    
C7    O7    A    
C24   H4    S    
O9    C23   S    
C15   O11   S    
C26   H12   S    
C7    C11   S    
C23   H1    S    
C3    O15   S    
C9    C16   S    
Cu2   N2    S    
C13   O9    S    
C10   C15   S    
C32   H34   S    
C6    N1    A    
C27   H16   S    
C15   C16   S    
C17   C20   A    
C18   C19   A    
Cu2   O3    S    
C25   H11   S    
Cu1   Cu2   S    
C29   H23   S    
Cu1   O1    S    
C5    O17   S    
C9    C10   A    
C4    O16   S    
C27   H17   S    
C26   H13   S    
C28   H20   S    
C21   C22   A    
C21   H21   S    
C24   H5    S    
C31   H31   S    
C32   H33   S    
C7    O5    A    
O16   C30   S    
C8    O6    A    
C6    O18   S    
O18   C32   S    
C31   H30   S    
C16   H8    S    
C18   O14   S    
C27   H15   S    
C32   H32   S    
C23   H3    S    
Cu2   O8    S    
O17   C31   S    
Cu1   O5    S    
C30   H26   S    
O14   C28   S    
C30   H27   S    
O11   C25   S    
C8    C12   S    
C29   H25   S    
C1    O3    A    
C17   C18   A    
C8    O8    A    
Cu1   O2    S    
C9    C11   A    
C22   H22   S    
C10   C12   A    
C5    N1    A    
C4    C6    A    
C25   H9    S    
C20   C22   A    
C24   H6    S    
C15   H7    S    
O12   C26   S    
C26   H14   S    
O10   C24   S    
C1    C20   S    
C19   C21   A    
C2    C19   S    
C3    N2    A    
C16   O12   S    
C12   C14   A    
C31   H29   S    
C3    C5    A    
C4    N2    A    
Cu2   O7    S    
C2    O4    A    
Cu1   O6    S    
C23   H2    S    
C11   C13   A    
O13   C27   S    
C25   H10   S    
Cu1   N1    S    
O15   C29   S    
C30   H28   S    
Cu2   O4    S    
C2    O2    A    
C14   O10   S    
C28   H18   S    
C1    O1    A    
C29   H24   S    
C13   C14   A    
C17   O13   S    
