data_mof_unit_38619.cif
_audit_creation_date              2012-12-10T18:49:22-0500
_audit_creation_method            fapswitch 2.2
_symmetry_space_group_name_H-M    P1
_symmetry_Int_Tables_number       1
_space_group_crystal_system       triclinic
_cell_length_a                    9.915869
_cell_length_b                    10.614116
_cell_length_c                    13.606433
_cell_angle_alpha                 90.594038
_cell_angle_beta                  81.881338
_cell_angle_gamma                 90.535736
_cell_volume                      1417.57874012

loop_
_atom_site_label
_atom_site_type_symbol
_atom_type_description
_atom_site_fract_x
_atom_site_fract_y
_atom_site_fract_z
_atom_type_partial_charge
C1    C     C_R   0.500782 0.739301 0.501614 0.959209
C2    C     C_R   0.912203 0.545764 0.579286 -0.122848
C3    C     C_1   0.546512 0.498626 0.210257 -0.147274
C4    C     C_1   0.453488 0.501369 0.789743 -0.147286
C5    C     C_2   0.560529 0.497125 0.017440 0.151070
C6    C     C_2   0.439471 0.502864 0.982560 0.151071
C7    C     C_1   0.441577 0.502255 0.877762 -0.025124
C8    C     C_1   0.558423 0.497737 0.122238 -0.025124
C9    C     C_R   0.485827 0.936304 0.592094 0.156210
C10   C     C_R   0.514174 0.063696 0.407908 0.156203
C11   C     C_R   0.477458 0.067037 0.591597 -0.109985
C12   C     C_R   0.499218 0.260699 0.498387 0.959214
C13   C     C_R   0.522539 0.932963 0.408405 -0.109983
C14   C     C_2   0.894335 0.399931 0.332158 0.940121
C15   C     C_2   0.105665 0.600069 0.667842 0.940121
C16   C     C_3   0.186915 0.510428 0.004631 -0.666119
C17   C     C_3   0.813086 0.489563 0.995369 -0.666117
C18   C     C_3   0.590243 0.830696 0.719576 -0.721401
C19   C     C_3   0.409766 0.169300 0.280420 -0.721412
C20   C     C_2   0.449351 0.139827 0.686283 0.874866
C21   C     C_2   0.550641 0.860173 0.313719 0.874863
C22   C     C_R   0.495004 0.128050 0.499401 -0.149405
C23   C     C_R   0.504996 0.871949 0.500600 -0.149415
C24   C     C_R   0.474463 0.500443 0.685717 0.940304
C25   C     C_R   0.525537 0.499556 0.314283 0.940289
C26   C     C_R   0.944810 0.453352 0.420265 0.051914
C27   C     C_R   0.055190 0.546648 0.579735 0.051914
C28   C     C_R   0.087797 0.454236 0.420714 -0.122841
H1    H     H_    0.154660 0.416431 0.357766 0.148114
H2    H     H_    0.900813 0.476334 0.935875 0.260707
H3    H     H_    0.812692 0.410803 0.048564 0.257507
H4    H     H_    0.826041 0.580855 0.033770 0.250115
H5    H     H_    0.395819 0.906185 0.737968 0.245335
H6    H     H_    0.650097 0.914646 0.737276 0.287070
H7    H     H_    0.654522 0.772086 0.664051 0.245542
H8    H     H_    0.564114 0.774319 0.788016 0.221369
H9    H     H_    0.604188 0.093806 0.262034 0.245328
H10   H     H_    0.349881 0.085349 0.262765 0.287069
H11   H     H_    0.435901 0.225623 0.211950 0.221382
H12   H     H_    0.845340 0.583569 0.642234 0.148117
H13   H     H_    0.345518 0.227966 0.335923 0.245537
H14   H     H_    0.503446 0.181109 0.820399 0.348422
H15   H     H_    0.496527 0.818878 0.179610 0.348421
H16   H     H_    0.783545 0.265483 0.274654 0.330396
H17   H     H_    0.216455 0.734517 0.725345 0.330394
H18   H     H_    0.305931 0.460106 0.112719 0.233024
H19   H     H_    0.099188 0.523656 0.064126 0.260709
H20   H     H_    0.173958 0.419137 0.966229 0.250113
H21   H     H_    0.187309 0.589189 0.951437 0.257509
H22   H     H_    0.694070 0.539881 0.887279 0.233023
N1    N     N_R   0.142790 0.500030 0.500020 -0.117945
N2    N     N_R   0.857210 0.499970 0.499980 -0.117946
N3    N     N_2   0.312284 0.510660 0.047883 -0.306900
N4    N     N_2   0.687716 0.489329 0.952116 -0.306899
N5    N     N_2   0.466316 0.867922 0.683078 -0.307349
N6    N     N_2   0.533690 0.132075 0.316922 -0.307349
O1    O     O_R   0.385380 0.683250 0.500010 -0.571628
O2    O     O_R   0.808653 0.294440 0.340992 -0.769665
O3    O     O_2   0.066684 0.555537 0.749563 -0.660244
O4    O     O_R   0.191347 0.705560 0.659008 -0.769667
O5    O     O_2   0.352745 0.211741 0.699553 -0.613163
O6    O     O_R   0.532917 0.126156 0.759915 -0.801825
O7    O     O_2   0.647260 0.788275 0.300440 -0.613160
O8    O     O_R   0.467055 0.873827 0.240096 -0.801811
O9    O     O_R   0.614620 0.316750 0.499990 -0.571632
O10   O     O_R   0.614710 0.683220 0.500000 -0.610973
O11   O     O_R   0.385290 0.316780 0.500000 -0.610967
O12   O     O_R   0.368830 0.499990 0.640350 -0.573947
O13   O     O_R   0.631170 0.500010 0.359650 -0.573951
O14   O     O_R   0.598160 0.499960 0.640350 -0.642113
O15   O     O_R   0.401840 0.500040 0.359650 -0.642118
O16   O     O_2   0.933315 0.444464 0.250437 -0.660244
Zn1   Zn    Zn3+2 0.346870 0.500020 0.500000 1.016629
Zn2   Zn    Zn3+2 0.653130 0.499980 0.500000 1.016626

loop_
_geom_bond_atom_site_label_1
_geom_bond_atom_site_label_2
_ccdc_geom_bond_type
C19   N6    S    
O14   Zn2   S    
C5    C8    S    
H17   O4    S    
H5    N5    S    
C6    C7    S    
C25   O15   A    
C19   H10   S    
C1    O1    A    
C18   H6    S    
C15   O4    S    
H14   O6    S    
C11   C22   A    
C15   C27   S    
C2    H12   S    
C4    C24   S    
C2    C27   A    
C14   O16   D    
C12   O9    A    
C16   H20   S    
H18   N3    S    
C1    O10   A    
C13   C21   S    
O13   Zn2   S    
C26   C28   A    
C14   C26   S    
C17   H2    S    
C9    C11   A    
H22   N4    S    
C2    N2    A    
C18   N5    S    
C4    C7    T    
O11   Zn1   S    
C19   H11   S    
C16   H19   S    
C28   H1    S    
C28   N1    A    
C27   N1    A    
H15   O8    S    
C1    C23   S    
N2    Zn2   S    
C20   O6    S    
C5    C6    D    
C17   H3    S    
C12   O11   A    
C11   C20   S    
C21   O7    D    
C25   O13   A    
C9    N5    S    
C24   O12   A    
C6    N3    S    
C24   O14   A    
O10   Zn2   S    
C12   C22   S    
C5    N4    S    
C3    C25   S    
C10   N6    S    
C16   H21   S    
C13   C23   A    
C3    C8    T    
C18   H7    S    
O1    Zn1   S    
C20   O5    D    
O15   Zn1   S    
C17   H4    S    
C16   N3    S    
C9    C23   A    
C21   O8    S    
C15   O3    D    
N1    Zn1   S    
O12   Zn1   S    
H9    N6    S    
C18   H8    S    
C17   N4    S    
C26   N2    A    
C10   C22   A    
O9    Zn2   S    
C19   H13   S    
C14   O2    S    
H16   O2    S    
C10   C13   A    
