data_mof_unit_22250.cif
_audit_creation_date              2012-12-10T20:27:12-0500
_audit_creation_method            fapswitch 2.2
_symmetry_space_group_name_H-M    P1
_symmetry_Int_Tables_number       1
_space_group_crystal_system       triclinic
_cell_length_a                    10.635516
_cell_length_b                    10.717431
_cell_length_c                    9.918776
_cell_angle_alpha                 89.389202
_cell_angle_beta                  102.015079
_cell_angle_gamma                 90.944155
_cell_volume                      1105.64725246

loop_
_atom_site_label
_atom_site_type_symbol
_atom_type_description
_atom_site_fract_x
_atom_site_fract_y
_atom_site_fract_z
_atom_type_partial_charge
C1    C     C_R   0.504635 0.260077 0.501381 0.882467
C2    C     C_R   0.598272 0.553881 0.090764 0.228883
C3    C     C_R   0.599600 0.549443 0.948041 -0.168406
C4    C     C_R   0.258399 0.504525 0.443934 0.898358
C5    C     C_R   0.392020 0.464834 0.905750 0.192609
C6    C     C_3   0.324315 0.340608 0.889277 -0.054852
C7    C     C_3   0.327405 0.339443 0.043419 -0.493472
C8    C     C_R   0.503641 0.739932 0.500248 0.868579
C9    C     C_R   0.741368 0.503710 0.556472 0.931098
C10   C     C_2   0.120917 0.526711 0.415594 0.036147
C11   C     C_2   0.072271 0.577625 0.516765 -0.178994
C12   C     C_R   0.526029 0.128806 0.505905 -0.103988
C13   C     C_2   0.879400 0.517434 0.587932 -0.360454
C14   C     C_2   0.935683 0.587635 0.505843 -0.167091
C15   C     C_R   0.531554 0.062444 0.628189 0.084175
C16   C     C_3   0.709289 0.616905 0.181831 -0.878173
C17   C     C_3   0.188164 0.345473 0.801273 -0.879203
C18   C     C_3   0.038840 0.492480 0.277312 -0.917327
C19   C     C_3   0.503923 0.868433 0.866973 -0.856392
C20   C     C_R   0.544084 0.066341 0.387733 -0.219643
C21   C     C_R   0.542835 0.937114 0.386942 -0.228187
C22   C     C_R   0.523432 0.871603 0.504273 -0.136644
C23   C     C_R   0.529693 0.934730 0.627619 0.142399
C24   C     C_3   0.442213 0.927274 0.728322 -0.018462
C25   C     C_3   0.447068 0.068598 0.730312 -0.502784
C26   C     C_R   0.393365 0.462853 0.048263 0.140694
H1    H     H_    0.680540 0.587329 0.909739 0.167728
H2    H     H_    0.500825 0.107944 0.829257 0.205680
H3    H     H_    0.676440 0.677470 0.256801 0.265855
H4    H     H_    0.774302 0.543486 0.232341 0.256713
H5    H     H_    0.764259 0.677466 0.122333 0.199132
H6    H     H_    0.137058 0.428855 0.826529 0.238597
H7    H     H_    0.191711 0.347852 0.690475 0.260044
H8    H     H_    0.133456 0.260321 0.820486 0.241413
H9    H     H_    0.096103 0.448370 0.209756 0.241738
H10   H     H_    0.962786 0.424480 0.291699 0.252314
H11   H     H_    0.995090 0.577803 0.224328 0.246343
H12   H     H_    0.383811 0.267979 0.857835 0.175942
H13   H     H_    0.345200 0.888195 0.682908 0.163175
H14   H     H_    0.606340 0.897784 0.900412 0.241216
H15   H     H_    0.450493 0.896063 0.946671 0.235934
H16   H     H_    0.497821 0.765865 0.858074 0.263406
H17   H     H_    0.352490 0.111267 0.686820 0.184411
H18   H     H_    0.231719 0.345861 0.071104 0.207237
H19   H     H_    0.390389 0.266093 0.100399 0.187897
H20   H     H_    0.132677 0.599668 0.616511 0.164097
H21   H     H_    0.935007 0.467103 0.675265 0.153883
H22   H     H_    0.549885 0.116088 0.293525 0.167253
H23   H     H_    0.548098 0.889633 0.292434 0.171250
H24   H     H_    0.880720 0.641522 0.421752 0.181739
N1    N     N_R   0.499160 0.499140 0.142600 -0.107716
N2    N     N_R   0.499160 0.499180 0.856960 -0.141193
O1    O     O_R   0.500020 0.316790 0.614700 -0.611841
O2    O     O_R   0.500000 0.316760 0.385350 -0.621125
O3    O     O_R   0.317820 0.500020 0.571850 -0.631218
O4    O     O_R   0.317800 0.499980 0.342510 -0.598850
O5    O     O_R   0.500000 0.683240 0.614650 -0.617062
O6    O     O_R   0.499980 0.683210 0.385300 -0.627457
O7    O     O_R   0.682200 0.500020 0.657490 -0.616326
O8    O     O_R   0.682180 0.499980 0.428150 -0.609155
Zn1   Zn    Zn3+2 0.500010 0.500020 0.653140 0.930420
Zn2   Zn    Zn3+2 0.499990 0.499980 0.346860 0.937187

loop_
_geom_bond_atom_site_label_1
_geom_bond_atom_site_label_2
_ccdc_geom_bond_type
O6    Zn2   S    
C8    C22   S    
C3    N2    A    
C19   H16   S    
C5    N2    A    
O5    Zn1   S    
C6    C7    S    
C8    O5    A    
C2    C16   S    
C18   H9    S    
C9    O7    A    
C12   C15   A    
C1    O2    A    
C9    O8    A    
C10   C11   D    
C21   C22   A    
C12   C20   A    
C3    H1    S    
C2    C3    A    
C20   H22   S    
C13   C14   D    
C20   C21   A    
C16   H5    S    
C1    C12   S    
C25   H17   S    
C17   H8    S    
C14   H24   S    
C7    C26   S    
C17   H7    S    
C10   C18   S    
N1    Zn2   S    
C21   H23   S    
C7    H19   S    
C15   C23   A    
C13   H21   S    
C18   H11   S    
C19   C24   S    
N2    Zn1   S    
C4    O3    A    
C5    C6    S    
C11   C14   S    
O4    Zn2   S    
C15   C25   S    
O7    Zn1   S    
C2    N1    A    
C23   C24   S    
C16   H4    S    
C5    C26   A    
O3    Zn1   S    
C24   H13   S    
C24   C25   S    
O1    Zn1   S    
O8    Zn2   S    
C19   H14   S    
C6    H12   S    
C6    C17   S    
C17   H6    S    
C9    C13   S    
C22   C23   A    
C11   H20   S    
C1    O1    A    
O2    Zn2   S    
C8    O6    A    
C16   H3    S    
C26   N1    A    
C18   H10   S    
C7    H18   S    
C4    O4    A    
C19   H15   S    
C4    C10   S    
C25   H2    S    
