data_mof_unit_34558.cif
_audit_creation_date              2012-10-26T21:00:42-0400
_audit_creation_method            fapswitch 2.2
_symmetry_space_group_name_H-M    P1
_symmetry_Int_Tables_number       1
_space_group_crystal_system       triclinic
_cell_length_a                    10.827414
_cell_length_b                    9.563379
_cell_length_c                    10.867633
_cell_angle_alpha                 91.00563
_cell_angle_beta                  90.266066
_cell_angle_gamma                 89.986761
_cell_volume                      1125.12167033

loop_
_atom_site_label
_atom_site_type_symbol
_atom_type_description
_atom_site_fract_x
_atom_site_fract_y
_atom_site_fract_z
_atom_type_partial_charge
C1    C     C_R   0.262214 0.499985 0.500320 0.528558
C2    C     C_R   0.480110 0.500095 0.735588 0.544403
C3    C     C_R   0.511640 0.756206 0.109981 -0.087843
C4    C     C_R   0.387799 0.744602 0.886328 -0.088253
C5    C     C_R   0.458230 0.876238 0.063265 -0.132180
C6    C     C_R   0.386843 0.867309 0.956520 -0.135645
C7    C     C_R   0.440961 0.623146 0.934975 0.011436
C8    C     C_R   0.480901 0.624059 0.057919 0.004129
C9    C     C_R   0.475700 0.496844 0.124690 -0.019459
C10   C     C_R   0.446277 0.498213 0.867738 -0.030737
C11   C     C_R   0.427808 0.374160 0.061976 0.010716
C12   C     C_R   0.737803 0.499943 0.500018 0.557991
C13   C     C_R   0.422118 0.372696 0.930802 0.001530
C14   C     C_R   0.063969 0.372875 0.495838 -0.147959
C15   C     C_R   0.936198 0.372853 0.495815 -0.141722
C16   C     C_R   0.871756 0.499923 0.499904 0.020468
C17   C     C_R   0.128332 0.499962 0.500078 0.016578
C18   C     C_3   0.369357 0.253746 0.132871 -0.253799
C19   C     C_3   0.246740 0.299126 0.190188 -0.414831
C20   C     C_3   0.385760 0.240964 0.858546 -0.242987
C21   C     C_3   0.497807 0.144002 0.845964 -0.404966
C22   C     C_R   0.936157 0.627003 0.503876 -0.140961
C23   C     C_R   0.063921 0.627019 0.503972 -0.141599
C24   C     C_R   0.405893 0.073064 0.446348 -0.007982
C25   C     C_R   0.594493 0.075200 0.553118 -0.000773
C26   C     C_R   0.406276 0.924707 0.445537 0.000090
C27   C     C_R   0.593977 0.926826 0.554059 0.002479
C28   C     C_R   0.495254 0.498913 0.260860 0.541496
Cu1   Cu    Cu3+1 0.500000 0.640660 0.500000 0.919648
Cu2   Cu    Cu3+1 0.500000 0.359340 0.500000 0.906917
H1    H     H_    0.573361 0.770189 0.187257 0.150499
H2    H     H_    0.670177 0.131303 0.596446 0.104188
H3    H     H_    0.331164 0.868536 0.401224 0.111769
H4    H     H_    0.669068 0.872375 0.598374 0.110181
H5    H     H_    0.259635 0.387842 0.255746 0.175182
H6    H     H_    0.181598 0.331819 0.116839 0.143967
H7    H     H_    0.204667 0.210525 0.239535 0.115898
H8    H     H_    0.348418 0.160739 0.076616 0.119761
H9    H     H_    0.432946 0.207129 0.200120 0.169859
H10   H     H_    0.578357 0.198268 0.806400 0.174822
H11   H     H_    0.527724 0.107855 0.937494 0.139664
H12   H     H_    0.339324 0.742263 0.798922 0.130294
H13   H     H_    0.474638 0.053239 0.785305 0.142994
H14   H     H_    0.304686 0.188150 0.897409 0.103295
H15   H     H_    0.345755 0.263929 0.767246 0.175090
H16   H     H_    0.471176 0.974423 0.111833 0.093865
H17   H     H_    0.334905 0.955826 0.925172 0.107159
H18   H     H_    0.112037 0.273532 0.492414 0.118345
H19   H     H_    0.888189 0.273483 0.492495 0.121527
H20   H     H_    0.888125 0.726367 0.507124 0.120182
H21   H     H_    0.111946 0.726384 0.507284 0.120182
H22   H     H_    0.329997 0.127390 0.403795 0.103941
N1    N     N_R   0.500000 0.852070 0.500000 -0.227787
N2    N     N_R   0.500000 0.147940 0.500000 -0.224912
O1    O     O_R   0.319640 0.618740 0.499990 -0.517637
O2    O     O_R   0.680360 0.618740 0.500010 -0.509040
O3    O     O_R   0.319620 0.381170 0.499990 -0.524852
O4    O     O_R   0.680380 0.381170 0.500010 -0.507071
O5    O     O_R   0.500000 0.618810 0.319650 -0.509167
O6    O     O_R   0.500000 0.618810 0.680350 -0.497680
O7    O     O_R   0.499970 0.381240 0.319640 -0.501024
O8    O     O_R   0.500030 0.381240 0.680360 -0.508235

loop_
_geom_bond_atom_site_label_1
_geom_bond_atom_site_label_2
_ccdc_geom_bond_type
C24   H22   S    
C7    C10   A    
C14   H18   S    
C18   H9    S    
C27   N1    A    
C11   C18   S    
Cu1   Cu2   S    
Cu1   O2    S    
C1    O3    A    
C25   C27   A    
C9    C11   A    
C5    H16   S    
C26   H3    S    
C23   H21   S    
C20   H15   S    
Cu1   O6    S    
C22   H20   S    
C12   O4    A    
C28   O7    A    
Cu2   N2    S    
C25   H2    S    
C15   H19   S    
C18   H8    S    
C7    C8    A    
C12   O2    A    
C25   N2    A    
C3    H1    S    
C11   C13   A    
C14   C17   A    
C17   C23   A    
C21   H10   S    
C4    H12   S    
C4    C7    A    
C21   H11   S    
Cu2   O4    S    
C20   H14   S    
C24   C26   A    
C3    C8    A    
C19   H6    S    
Cu2   O8    S    
C27   H4    S    
C1    O1    A    
C5    C6    A    
C2    O6    A    
Cu2   O7    S    
C6    H17   S    
C24   N2    A    
C15   C16   A    
C2    C10   S    
C26   N1    A    
C2    O8    A    
C20   C21   S    
C4    C6    A    
C18   C19   S    
C28   O5    A    
C19   H5    S    
Cu1   O5    S    
C14   C15   A    
C8    C9    A    
C16   C22   A    
C19   H7    S    
C13   C20   S    
C3    C5    A    
C21   H13   S    
Cu1   O1    S    
C1    C17   S    
C22   C23   A    
C12   C16   S    
C9    C28   S    
Cu2   O3    S    
Cu1   N1    S    
C10   C13   A    
