data_mof_unit_64623.cif
_audit_creation_date              2012-10-26T19:10:26-0400
_audit_creation_method            fapswitch 2.2
_symmetry_space_group_name_H-M    P1
_symmetry_Int_Tables_number       1
_space_group_crystal_system       triclinic
_cell_length_a                    10.965888
_cell_length_b                    9.620358
_cell_length_c                    19.331263
_cell_angle_alpha                 90.776374
_cell_angle_beta                  88.97415
_cell_angle_gamma                 90.106779
_cell_volume                      2038.84970098

loop_
_atom_site_label
_atom_site_type_symbol
_atom_type_description
_atom_site_fract_x
_atom_site_fract_y
_atom_site_fract_z
_atom_type_partial_charge
Br1   Br    Br    0.890059 0.750276 0.409518 -0.249542
Br2   Br    Br    0.611905 0.217721 0.712394 -0.263856
Br3   Br    Br    0.907865 0.540509 0.654841 -0.263076
Br4   Br    Br    0.871002 0.242614 0.591239 -0.268881
Br5   Br    Br    0.830481 0.474929 0.348351 -0.251700
Br6   Br    Br    0.315986 0.173168 0.391899 -0.267406
Br7   Br    Br    0.248010 0.892447 0.460364 -0.223690
Br8   Br    Br    0.274805 0.145799 0.584578 -0.302442
Br9   Br    Br    0.320441 0.826510 0.618578 -0.286563
Br10  Br    Br    0.431287 0.802284 0.143006 -0.238522
Br11  Br    Br    0.511716 0.202869 0.131900 -0.232177
Br12  Br    Br    0.626612 0.780606 0.710505 -0.230490
C1    C     C_R   0.260714 0.499316 0.495068 0.602544
C2    C     C_3   0.071922 0.356840 0.518538 -0.185400
C3    C     C_3   0.936020 0.598276 0.559234 0.283461
C4    C     C_3   0.932245 0.346413 0.511378 0.292204
C5    C     C_3   0.068663 0.523393 0.417593 0.417649
C6    C     C_3   0.122251 0.497925 0.492370 -0.136137
C7    C     C_3   0.878265 0.500030 0.500174 -0.029385
C8    C     C_R   0.497466 0.499383 0.367853 0.597419
C9    C     C_3   0.925900 0.552938 0.425492 0.277072
C10   C     C_3   0.625395 0.082775 0.501061 -0.186433
C11   C     C_3   0.624131 0.917748 0.490859 -0.189821
C12   C     C_R   0.473664 0.506530 0.071168 0.379293
C13   C     C_3   0.439885 0.083138 0.564706 0.178080
C14   C     C_3   0.456081 0.919969 0.569159 0.192099
C15   C     C_3   0.447799 0.077845 0.437126 0.183421
C16   C     C_3   0.423312 0.917546 0.445732 0.185152
C17   C     C_R   0.739611 0.500143 0.502635 0.621583
C18   C     C_R   0.510761 0.500699 0.632499 0.593804
C19   C     C_R   0.469720 0.624510 0.257376 -0.056521
C20   C     C_R   0.498797 0.375043 0.253304 -0.050944
C21   C     C_R   0.461569 0.626747 0.185595 0.160739
C22   C     C_R   0.490740 0.375907 0.181254 0.161813
C23   C     C_R   0.507156 0.634069 0.818705 0.229935
C24   C     C_R   0.472883 0.502364 0.146883 0.039439
C25   C     C_R   0.489266 0.499256 0.291864 -0.006491
C26   C     C_R   0.479262 0.513609 0.931291 0.401382
C27   C     C_R   0.503875 0.381828 0.820195 0.230853
C28   C     C_R   0.533194 0.629209 0.747415 0.175875
C29   C     C_R   0.528337 0.378777 0.748565 0.163380
C30   C     C_R   0.524079 0.502644 0.709918 -0.041818
C31   C     C_R   0.489267 0.510000 0.855232 -0.027246
C32   C     C_3   0.074609 0.609947 0.544788 -0.217541
Cl1   Cl    Cl    0.498767 0.797373 0.861908 -0.309027
Cl2   Cl    Cl    0.503691 0.224443 0.866835 -0.309699
Cl3   Cl    Cl    0.880133 0.771510 0.568636 -0.427063
Cl4   Cl    Cl    0.899979 0.224113 0.443135 -0.419600
Cl5   Cl    Cl    0.149086 0.652933 0.369618 -0.381005
Cl6   Cl    Cl    0.099769 0.378977 0.360558 -0.331046
Cu1   Cu    Cu3+1 0.499860 0.642410 0.500030 1.081100
Cu2   Cu    Cu3+1 0.499860 0.357590 0.500030 1.084199
H1    H     H_    0.460147 0.721444 0.286040 0.173708
H2    H     H_    0.445146 0.865365 0.395566 0.134435
H3    H     H_    0.095759 0.713139 0.523508 0.259813
H4    H     H_    0.116147 0.268384 0.490687 0.273765
H5    H     H_    0.124868 0.603383 0.594135 0.196215
H6    H     H_    0.096129 0.347998 0.573878 0.196973
H7    H     H_    0.514260 0.277337 0.278878 0.184015
H8    H     H_    0.670603 0.108740 0.550186 0.209904
H9    H     H_    0.685424 0.874007 0.528697 0.242860
H10   H     H_    0.680150 0.128397 0.458611 0.223878
H11   H     H_    0.660030 0.889306 0.438452 0.182503
H12   H     H_    0.485212 0.126543 0.609911 0.174076
H13   H     H_    0.528617 0.905724 0.606909 0.159786
H14   H     H_    0.515861 0.086686 0.393703 0.098559
N1    N     N_R   0.388696 0.436643 0.034103 -0.117108
N2    N     N_R   0.561004 0.580202 0.037290 -0.126934
N3    N     N_R   0.391521 0.440043 0.965227 -0.111427
N4    N     N_R   0.564047 0.583156 0.968576 -0.106462
N5    N     N_3   0.500250 0.143650 0.501520 -0.301788
N6    N     N_3   0.500250 0.856350 0.501520 -0.314208
O1    O     O_R   0.317570 0.620260 0.500040 -0.439757
O2    O     O_R   0.317570 0.379740 0.500040 -0.447434
O3    O     O_R   0.499870 0.620300 0.400170 -0.517369
O4    O     O_R   0.499870 0.379700 0.400170 -0.481735
O5    O     O_R   0.682190 0.620260 0.500020 -0.473338
O6    O     O_R   0.682190 0.379740 0.500020 -0.475569
O7    O     O_R   0.499890 0.620220 0.599880 -0.461472
O8    O     O_R   0.499890 0.379780 0.599880 -0.484866

loop_
_geom_bond_atom_site_label_1
_geom_bond_atom_site_label_2
_ccdc_geom_bond_type
C2    H4    S    
C26   N4    A    
Br1   C9    S    
C14   N6    S    
C29   C30   A    
C2    C6    S    
C3    Cl3   S    
C4    Cl4   S    
Br3   C3    S    
C27   C29   A    
C3    C7    S    
C12   C24   S    
C1    C6    S    
C7    C9    S    
Cu1   O3    S    
C3    C32   S    
Cu2   O2    S    
C10   H8    S    
Br2   C29   S    
C21   C24   A    
C8    O4    A    
C12   N1    A    
C17   O6    A    
C19   C21   A    
C13   N5    S    
C23   C31   A    
C18   O8    A    
C28   C30   A    
C26   N3    A    
Br8   C13   S    
C16   N6    S    
Cu2   O6    S    
Br4   C4    S    
Br9   C14   S    
C2    H6    S    
Cu1   Cu2   S    
C5    Cl5   S    
C16   H2    S    
C27   C31   A    
C13   C14   S    
C5    C9    S    
Br7   C16   S    
C19   C25   A    
C8    O3    A    
N1    N3    A    
C13   H12   S    
C20   C22   A    
Br12  C28   S    
Cu1   O5    S    
C6    C32   S    
C10   H10   S    
Br6   C15   S    
C32   H5    S    
C5    C6    S    
C17   O5    A    
C20   C25   A    
C19   H1    S    
C27   Cl2   S    
C18   O7    A    
C1    O1    A    
C2    C4    S    
Cu1   N6    S    
C7    C17   S    
C10   N5    S    
C15   N5    S    
C14   H13   S    
C11   N6    S    
Br11  C22   S    
Cu1   O1    S    
Cu2   O4    S    
C5    Cl6   S    
C23   C28   A    
C26   C31   S    
Cu2   N5    S    
C8    C25   S    
C32   H3    S    
C4    C7    S    
C11   H11   S    
Br10  C21   S    
C22   C24   A    
Cu1   O7    S    
C12   N2    A    
C11   H9    S    
Br5   C9    S    
C1    O2    A    
N2    N4    A    
C15   C16   S    
C15   H14   S    
C10   C11   S    
C18   C30   S    
C20   H7    S    
Cu2   O8    S    
C23   Cl1   S    
