data_mof_unit_58454.cif
_audit_creation_date              2012-12-10T17:05:18-0500
_audit_creation_method            fapswitch 2.2
_symmetry_space_group_name_H-M    P1
_symmetry_Int_Tables_number       1
_space_group_crystal_system       triclinic
_cell_length_a                    10.032611
_cell_length_b                    10.75108
_cell_length_c                    15.348875
_cell_angle_alpha                 90.09349
_cell_angle_beta                  68.283473
_cell_angle_gamma                 89.99288
_cell_volume                      1538.04738866

loop_
_atom_site_label
_atom_site_type_symbol
_atom_type_description
_atom_site_fract_x
_atom_site_fract_y
_atom_site_fract_z
_atom_type_partial_charge
C1    C     C_R   0.498901 0.737302 0.502185 0.938319
C2    C     C_R   0.742464 0.453433 0.027443 0.126618
C3    C     C_R   0.598160 0.424138 0.082766 0.090672
C4    C     C_R   0.410614 0.497155 0.676344 0.867737
C5    C     C_R   0.837646 0.491308 0.070165 -0.201685
C6    C     C_R   0.789490 0.504923 0.167173 -0.196259
C7    C     C_R   0.551700 0.440636 0.179841 -0.245855
C8    C     C_2   0.609860 0.066997 0.504266 -0.157175
C9    C     C_2   0.506059 0.131148 0.489752 -0.334703
C10   C     C_2   0.613232 0.933118 0.498727 -0.159081
C11   C     C_2   0.493765 0.868808 0.511295 -0.335312
C12   C     C_R   0.435821 0.413023 0.903518 0.098324
C13   C     C_2   0.107587 0.433851 0.442308 -0.121402
C14   C     C_2   0.959433 0.439168 0.439065 -0.137521
C15   C     C_R   0.501153 0.262695 0.498116 0.933283
C16   C     C_R   0.589538 0.497710 0.323710 0.865642
C17   C     C_R   0.358884 0.468487 0.776426 -0.061345
C18   C     C_R   0.645400 0.482058 0.221967 -0.061085
C19   C     C_R   0.193044 0.364197 0.913313 -0.225807
C20   C     C_R   0.225476 0.412125 0.823182 -0.202408
C21   C     C_R   0.458069 0.475844 0.820100 -0.259116
C22   C     C_3   0.759926 0.385235 0.782817 -0.914915
C23   C     C_R   0.296901 0.366443 0.954551 0.180076
C24   C     C_R   0.544961 0.405926 0.941089 0.042094
C25   C     C_R   0.501691 0.389578 0.039030 0.029625
C26   C     C_R   0.362544 0.342097 0.089585 -0.214715
C27   C     C_R   0.263597 0.326089 0.046414 -0.239880
C28   C     C_R   0.694472 0.417120 0.886003 0.173857
C29   C     C_R   0.790218 0.444050 0.930221 -0.255317
H1    H     H_    0.158281 0.288986 0.086648 0.147505
H2    H     H_    0.866856 0.541860 0.554564 0.161567
H3    H     H_    0.440780 0.426381 0.223787 0.151529
H4    H     H_    0.863786 0.535772 0.198997 0.157330
H5    H     H_    0.902742 0.458011 0.888273 0.152988
H6    H     H_    0.088301 0.323734 0.950008 0.142940
H7    H     H_    0.148408 0.402780 0.789462 0.154360
H8    H     H_    0.555107 0.529039 0.787029 0.176497
H9    H     H_    0.328971 0.313628 0.161945 0.139951
H10   H     H_    0.798300 0.471038 0.740834 0.231114
H11   H     H_    0.684162 0.334363 0.758284 0.257073
H12   H     H_    0.948342 0.513179 0.028462 0.147607
H13   H     H_    0.853295 0.322321 0.769603 0.240982
H14   H     H_    0.695509 0.112829 0.519321 0.174580
H15   H     H_    0.424420 0.088368 0.469095 0.149628
H16   H     H_    0.715697 0.887472 0.484956 0.173428
H17   H     H_    0.388805 0.911471 0.530883 0.151174
H18   H     H_    0.185290 0.372998 0.392536 0.151227
H19   H     H_    0.077684 0.560911 0.543152 0.158195
H20   H     H_    0.941374 0.388094 0.383419 0.155217
N1    N     N_2   0.148330 0.498670 0.499030 -0.188444
N2    N     N_2   0.852680 0.498640 0.499000 -0.189746
O1    O     O_R   0.386950 0.680940 0.500010 -0.612227
O2    O     O_R   0.613110 0.680900 0.499990 -0.609753
O3    O     O_R   0.322330 0.500030 0.632270 -0.612184
O4    O     O_R   0.548480 0.499990 0.632240 -0.613542
O5    O     O_R   0.386890 0.319100 0.500010 -0.614487
O6    O     O_R   0.613050 0.319060 0.499990 -0.606783
O7    O     O_R   0.451520 0.500010 0.367760 -0.610802
O8    O     O_R   0.677670 0.499970 0.367730 -0.611860
Zn1   Zn    Zn3+2 0.349000 0.500030 0.500020 0.937437
Zn2   Zn    Zn3+2 0.651000 0.499970 0.499980 0.934835

loop_
_geom_bond_atom_site_label_1
_geom_bond_atom_site_label_2
_ccdc_geom_bond_type
C19   C20   A    
C19   C23   A    
C8    H14   S    
O6    Zn2   S    
O3    Zn1   S    
C12   C21   A    
C23   C27   A    
C12   C24   A    
C20   H7    S    
C14   N2    D    
C1    C11   S    
C6    H4    S    
C7    C18   A    
C22   H11   S    
C15   O5    A    
C10   H16   S    
H19   N1    S    
C2    C3    A    
C9    C15   S    
N1    Zn1   S    
C16   O7    A    
C13   C14   S    
C27   H1    S    
C15   O6    A    
C12   C23   A    
C26   C27   A    
C22   H13   S    
O2    Zn2   S    
C2    C29   A    
C4    C17   S    
O4    Zn2   S    
C8    C10   S    
C28   C29   A    
C3    C7    A    
C4    O4    A    
C5    C6    A    
C6    C18   A    
C1    O1    A    
O8    Zn2   S    
C14   H20   S    
C10   C11   D    
C22   H10   S    
O7    Zn1   S    
C13   N1    D    
C2    C5    A    
C24   C28   A    
C3    C25   A    
C17   C20   A    
C21   H8    S    
C24   C25   A    
C16   C18   S    
C19   H6    S    
C1    O2    A    
C26   H9    S    
C11   H17   S    
C22   C28   S    
C7    H3    S    
O1    Zn1   S    
C4    O3    A    
C25   C26   A    
C13   H18   S    
C29   H5    S    
C17   C21   A    
C9    H15   S    
O5    Zn1   S    
H2    N2    S    
C8    C9    D    
C5    H12   S    
C16   O8    A    
N2    Zn2   S    
