data_mof_unit_22367.cif
_audit_creation_date              2012-12-11T14:52:40-0500
_audit_creation_method            fapswitch 2.2
_symmetry_space_group_name_H-M    P1
_symmetry_Int_Tables_number       1
_space_group_crystal_system       triclinic
_cell_length_a                    20.631576
_cell_length_b                    7.250617
_cell_length_c                    20.423093
_cell_angle_alpha                 90.004674
_cell_angle_beta                  101.306646
_cell_angle_gamma                 90.004823
_cell_volume                      2995.83018363

loop_
_atom_site_label
_atom_site_type_symbol
_atom_type_description
_atom_site_fract_x
_atom_site_fract_y
_atom_site_fract_z
_atom_type_partial_charge
O1    O     O_R   0.673670 0.377510 0.185950 -0.528881
O2    O     O_R   0.326330 0.622490 0.814050 -0.516269
O3    O     O_R   0.826330 0.877510 0.314050 -0.528867
O4    O     O_R   0.173670 0.122490 0.685950 -0.516290
O5    O     O_R   0.806260 0.705340 0.185590 -0.533118
O6    O     O_R   0.193740 0.294660 0.814410 -0.536233
O7    O     O_R   0.693740 0.205340 0.314410 -0.533061
O8    O     O_R   0.306260 0.794660 0.685590 -0.536235
C1    C     C_R   0.825554 0.538863 0.170840 0.726134
C2    C     C_R   0.174383 0.461120 0.829094 0.733449
C3    C     C_R   0.674446 0.038862 0.329161 0.725944
C4    C     C_R   0.325617 0.961121 0.670905 0.733532
O9    O     O_R   0.672940 0.707120 0.178050 -0.547047
O10   O     O_R   0.327060 0.292880 0.821950 -0.543746
O11   O     O_R   0.827060 0.207120 0.321950 -0.547062
O12   O     O_R   0.172940 0.792880 0.678050 -0.543751
O13   O     O_R   0.692060 0.879040 0.306460 -0.526079
O14   O     O_R   0.307940 0.120960 0.693540 -0.527357
O15   O     O_R   0.807940 0.379040 0.193540 -0.526049
O16   O     O_R   0.192060 0.620960 0.806460 -0.527352
C5    C     C_R   0.649969 0.539125 0.159667 0.738784
C6    C     C_R   0.349824 0.461043 0.840030 0.745045
C7    C     C_R   0.850030 0.039148 0.340342 0.738480
C8    C     C_R   0.150179 0.961017 0.659966 0.745290
O17   O     O_3   0.756430 0.544390 0.292140 -0.369004
O18   O     O_3   0.243570 0.455610 0.707860 -0.367610
O19   O     O_3   0.743570 0.044390 0.207860 -0.369118
O20   O     O_3   0.256430 0.955610 0.792140 -0.367594
V1    V     V_3+5 0.748810 0.818610 0.242180 1.543695
V2    V     V_3+5 0.251190 0.181390 0.757820 1.580090
V3    V     V_3+5 0.751190 0.318610 0.257820 1.543797
V4    V     V_3+5 0.248810 0.681390 0.742180 1.580134
C9    C     C_R   0.089745 0.965564 0.606707 -0.071401
C10   C     C_R   0.909111 0.039524 0.396269 -0.091926
C11   C     C_R   0.410270 0.465708 0.893274 -0.071219
C12   C     C_R   0.590861 0.539410 0.103782 -0.091848
C13   C     C_R   0.008814 0.206751 0.448825 -0.026197
C14   C     C_R   0.977739 0.847488 0.568887 -0.010793
C15   C     C_R   0.490940 0.706008 0.051494 -0.026447
C16   C     C_R   0.522420 0.348591 0.930923 -0.011448
C17   C     C_R   0.954059 0.184765 0.397262 -0.236149
C18   C     C_R   0.036014 0.860140 0.616954 -0.200202
C19   C     C_R   0.545745 0.684088 0.103006 -0.236252
C20   C     C_R   0.464111 0.361013 0.882892 -0.200996
C21   C     C_R   0.918051 0.915545 0.451278 -0.068171
C22   C     C_R   0.084787 0.065970 0.546337 -0.044370
C23   C     C_R   0.582046 0.415956 0.048617 -0.068045
C24   C     C_R   0.415137 0.565597 0.953749 -0.044321
C25   C     C_R   0.972089 0.942792 0.506790 0.053263
C26   C     C_R   0.022534 0.073141 0.500663 0.041279
C27   C     C_R   0.527967 0.443221 0.993149 0.053520
C28   C     C_R   0.477373 0.572898 0.999456 0.041462
C29   C     C_3   0.553743 0.092129 0.531006 -0.112066
C30   C     C_3   0.446358 0.907874 0.469160 -0.076375
C31   C     C_3   0.946257 0.592091 0.968992 -0.112076
C32   C     C_3   0.053641 0.407914 0.030840 -0.076371
C33   C     C_3   0.528743 0.907845 0.555044 -0.101751
C34   C     C_3   0.471395 0.092173 0.445086 -0.072376
C35   C     C_3   0.971257 0.407805 0.944957 -0.101760
C36   C     C_3   0.028605 0.592215 0.054912 -0.072396
C37   C     C_1   0.371115 0.968066 0.625216 -0.088311
C38   C     C_1   0.628999 0.031916 0.374909 -0.083735
C39   C     C_1   0.128885 0.468060 0.874783 -0.088292
C40   C     C_1   0.871001 0.531923 0.125090 -0.083604
C41   C     C_3   0.482046 0.167158 0.517439 -0.118490
C42   C     C_3   0.518053 0.832851 0.482688 -0.116422
C43   C     C_3   0.017954 0.667159 0.982559 -0.118518
C44   C     C_3   0.981945 0.332851 0.017313 -0.116404
C45   C     C_3   0.457068 0.983028 0.541482 0.096148
C46   C     C_3   0.543073 0.016983 0.458685 0.095454
C47   C     C_3   0.042931 0.483026 0.958518 0.096150
C48   C     C_3   0.956926 0.516986 0.041314 0.095449
C49   C     C_1   0.409661 0.973259 0.587373 0.139226
C50   C     C_1   0.590490 0.026739 0.412796 0.144689
C51   C     C_1   0.090339 0.473253 0.912626 0.139249
C52   C     C_1   0.909509 0.526746 0.087204 0.144696
C53   C     C_2   0.145610 0.132117 0.523958 0.464617
H1    H     H_    0.144659 0.152019 0.471131 0.052373
O21   O     O_2   0.197273 0.163119 0.562908 -0.515991
C54   C     C_2   0.874847 0.750926 0.448467 0.475571
H2    H     H_    0.896806 0.616529 0.461519 0.024371
O22   O     O_2   0.814724 0.765089 0.435112 -0.494097
C55   C     C_2   0.354246 0.631045 0.976144 0.464557
H3    H     H_    0.355059 0.649612 0.029009 0.052181
O23   O     O_2   0.302709 0.663109 0.937148 -0.515756
C56   C     C_2   0.625433 0.251795 0.051215 0.475415
H4    H     H_    0.603633 0.117350 0.037860 0.024900
O24   O     O_2   0.685538 0.266425 0.064746 -0.494439
H5    H     H_    0.039337 0.788135 0.664112 0.111224
H6    H     H_    0.945399 0.286789 0.357634 0.123525
H7    H     H_    0.460854 0.289477 0.835648 0.111181
H8    H     H_    0.554310 0.785726 0.142776 0.123536
C57   C     C_2   0.043911 0.386258 0.450769 0.317288
H9    H     H_    0.045380 0.458944 0.404607 0.067313
O25   O     O_2   0.067858 0.460017 0.503764 -0.519775
C58   C     C_2   0.922108 0.753548 0.591189 0.398364
H10   H     H_    0.931009 0.627459 0.620225 0.066798
O26   O     O_2   0.867165 0.823097 0.581772 -0.482186
C59   C     C_2   0.455606 0.885056 0.049846 0.318378
H11   H     H_    0.453956 0.956902 0.096133 0.067464
O27   O     O_2   0.431671 0.959435 0.996972 -0.519356
C60   C     C_2   0.578178 0.255756 0.908470 0.398122
H12   H     H_    0.569441 0.130031 0.879195 0.066598
O28   O     O_2   0.633037 0.325876 0.918036 -0.482217
C61   C     C_2   0.562749 0.803354 0.615363 0.340008
H13   H     H_    0.613317 0.757609 0.618588 0.082039
O29   O     O_2   0.534039 0.769030 0.660767 -0.522027
C62   C     C_2   0.437315 0.196007 0.384641 0.450045
H14   H     H_    0.387127 0.244450 0.381874 0.081061
O30   O     O_2   0.465465 0.226207 0.338498 -0.509849
C63   C     C_2   0.937249 0.303268 0.884638 0.340091
H15   H     H_    0.886679 0.257512 0.881413 0.082017
O31   O     O_2   0.965959 0.268920 0.839236 -0.521999
C64   C     C_2   0.062685 0.696093 0.115356 0.450060
H16   H     H_    0.112873 0.744566 0.118120 0.081068
O32   O     O_2   0.034538 0.726298 0.161501 -0.509845
C65   C     C_2   0.612556 0.196507 0.567462 0.376752
H17   H     H_    0.613780 0.242311 0.618237 0.061284
O33   O     O_2   0.658970 0.230662 0.540507 -0.497042
C66   C     C_2   0.387405 0.804175 0.432646 0.467530
H18   H     H_    0.386607 0.755625 0.382273 0.071134
O34   O     O_2   0.340281 0.774215 0.459023 -0.494219
C67   C     C_2   0.887444 0.696421 0.932535 0.376824
H19   H     H_    0.886224 0.742216 0.881762 0.061306
O35   O     O_2   0.841025 0.730545 0.959485 -0.497011
C68   C     C_2   0.112593 0.304261 0.067355 0.467496
H20   H     H_    0.113388 0.255728 0.117727 0.071169
O36   O     O_2   0.159720 0.274320 0.040982 -0.494231
C69   C     C_2   0.539617 0.647635 0.462515 0.393219
H21   H     H_    0.571928 0.562421 0.498503 0.054649
O37   O     O_2   0.522827 0.594827 0.404981 -0.506215
C70   C     C_2   0.461083 0.352361 0.538254 0.388409
H22   H     H_    0.495682 0.437595 0.572040 0.044642
O38   O     O_2   0.404394 0.405133 0.519170 -0.494273
C71   C     C_2   0.960381 0.147633 0.037486 0.393210
H23   H     H_    0.928072 0.062382 0.001499 0.054607
O39   O     O_2   0.977168 0.094864 0.095021 -0.506210
C72   C     C_2   0.038917 0.852363 0.961744 0.388433
H24   H     H_    0.004317 0.937573 0.927961 0.044652
O40   O     O_2   0.095608 0.905167 0.980823 -0.494251

loop_
_geom_bond_atom_site_label_1
_geom_bond_atom_site_label_2
_ccdc_geom_bond_type
O17   V3    S    
C33   C61   S    
O1    C5    A    
C68   H20   S    
C4    C37   S    
C31   C35   S    
O19   V1    S    
C1    C40   S    
O13   V1    S    
O3    C7    A    
C2    C39   S    
C33   C42   S    
C48   C52   S    
C3    C38   S    
O15   V3    S    
C64   H16   S    
C67   H19   S    
C5    C12   S    
C53   H1    S    
O7    C3    A    
C6    C11   S    
C61   O29   D    
C57   H9    S    
C55   H3    S    
C9    C18   A    
O9    V1    S    
C14   C18   A    
C30   C66   S    
C65   O33   D    
C30   C34   S    
O4    C8    A    
C29   C65   S    
C67   O35   D    
C36   C48   S    
O1    V3    S    
C62   H14   S    
C12   C23   A    
O2    V4    S    
O3    V1    S    
C43   C72   S    
C57   O25   D    
C36   C64   S    
C1    O15   A    
C63   H15   S    
C36   C43   S    
C2    O16   A    
C70   H22   S    
C58   O26   D    
C46   C50   S    
C35   C63   S    
C45   C49   S    
O14   V2    S    
C32   C68   S    
C29   C41   S    
C16   C20   A    
C43   C47   S    
C31   C48   S    
C55   O23   D    
C44   C48   S    
C42   C69   S    
C32   C47   S    
O11   C7    A    
C17   H6    S    
O12   C8    A    
C9    C22   A    
C10   C17   A    
O10   V2    S    
C29   C46   S    
C66   O34   D    
O5    V1    S    
C53   O21   D    
C31   C67   S    
O7    V3    S    
C56   O24   D    
C13   C57   S    
C27   C28   A    
O8    V4    S    
C23   C56   S    
C71   H23   S    
C54   O22   D    
C14   C25   A    
C29   C33   S    
C56   H4    S    
C34   C46   S    
C15   C19   A    
C37   C49   T    
C32   C44   S    
C32   C36   S    
O5    C1    A    
C35   C44   S    
C34   C41   S    
C64   O32   D    
C59   H11   S    
C21   C25   A    
O8    C4    A    
C7    C10   S    
C58   H10   S    
C40   C52   T    
O9    C5    A    
C63   O31   D    
C10   C21   A    
C60   O28   D    
C11   C20   A    
C20   H7    S    
C72   O40   D    
O6    V2    S    
C4    O14   A    
C41   C70   S    
C66   H18   S    
C69   H21   S    
O16   V4    S    
C71   O39   D    
C3    O13   A    
C68   O36   D    
C59   O27   D    
C44   C71   S    
C8    C9    S    
C54   H2    S    
O6    C2    A    
C22   C53   S    
C23   C27   A    
O11   V3    S    
C30   C42   S    
O12   V4    S    
C16   C27   A    
C61   H13   S    
C22   C26   A    
C19   H8    S    
C24   C55   S    
C18   H5    S    
O10   C6    A    
O20   V2    S    
C31   C43   S    
O2    C6    A    
C47   C51   S    
C13   C26   A    
C42   C46   S    
C30   C45   S    
C39   C51   T    
C41   C45   S    
C62   O30   D    
C15   C28   A    
C21   C54   S    
C34   C62   S    
C13   C17   A    
C60   H12   S    
C11   C24   A    
C72   H24   S    
C16   C60   S    
C15   C59   S    
C24   C28   A    
C70   O38   D    
C25   C26   A    
C14   C58   S    
C38   C50   T    
C12   C19   A    
C33   C45   S    
C65   H17   S    
O18   V4    S    
O4    V2    S    
C35   C47   S    
C69   O37   D    
