data_mof_unit_49944.cif
_audit_creation_date              2012-12-10T20:35:49-0500
_audit_creation_method            fapswitch 2.2
_symmetry_space_group_name_H-M    P1
_symmetry_Int_Tables_number       1
_space_group_crystal_system       triclinic
_cell_length_a                    15.7281
_cell_length_b                    10.677788
_cell_length_c                    9.85755
_cell_angle_alpha                 89.854047
_cell_angle_beta                  90.239086
_cell_angle_gamma                 89.943218
_cell_volume                      1655.46931887

loop_
_atom_site_label
_atom_site_type_symbol
_atom_type_description
_atom_site_fract_x
_atom_site_fract_y
_atom_site_fract_z
_atom_type_partial_charge
C1    C     C_R   0.497989 0.259968 0.500340 0.888000
C2    C     C_3   0.950445 0.487617 0.651467 -0.401688
C3    C     C_3   0.917537 0.497307 0.503604 0.330044
C4    C     C_3   0.951472 0.619325 0.438798 -0.408699
C5    C     C_3   0.049465 0.618545 0.440251 -0.439014
C6    C     C_1   0.826065 0.498401 0.502157 -0.118568
C7    C     C_1   0.174254 0.496875 0.501127 -0.133686
C8    C     C_1   0.249517 0.498352 0.499652 -0.195366
C9    C     C_R   0.496815 0.062757 0.621905 0.130156
C10   C     C_R   0.484254 0.128863 0.502335 -0.137838
C11   C     C_R   0.451346 0.068357 0.387985 -0.285614
C12   C     C_R   0.338308 0.499565 0.499844 0.889123
C13   C     C_R   0.445522 0.938235 0.385610 0.157856
C14   C     C_R   0.478115 0.871469 0.499906 -0.143687
C15   C     C_R   0.494609 0.935441 0.620271 0.108046
C16   C     C_3   0.567172 0.924421 0.718303 -0.475334
C17   C     C_3   0.569459 0.066376 0.719968 -0.484008
C18   C     C_R   0.427998 0.468373 0.070539 0.155097
C19   C     C_R   0.567856 0.543576 0.072317 -0.143225
C20   C     C_R   0.567782 0.543824 0.928347 -0.137747
C21   C     C_R   0.428653 0.467321 0.928029 0.192409
C22   C     C_3   0.383549 0.345276 0.920365 -0.552824
C23   C     C_R   0.494310 0.739887 0.499382 0.878219
C24   C     C_3   0.380936 0.346122 0.075432 -0.073450
C25   C     C_R   0.661762 0.500043 0.500225 0.911808
C26   C     C_3   0.049422 0.486519 0.654060 0.030397
C27   C     C_3   0.048638 0.384138 0.419621 -0.407903
C28   C     C_3   0.950592 0.383485 0.422232 -0.397766
C29   C     C_1   0.750707 0.499280 0.501040 -0.201202
C30   C     C_3   0.082784 0.495179 0.504723 0.305919
H1    H     H_    0.928162 0.627981 0.332370 0.174140
H2    H     H_    0.433446 0.121797 0.299086 0.161795
H3    H     H_    0.547255 0.882915 0.816718 0.206183
H4    H     H_    0.550768 0.106901 0.819260 0.200978
H5    H     H_    0.628265 0.106288 0.674940 0.198086
H6    H     H_    0.623208 0.576820 0.126697 0.152652
H7    H     H_    0.623048 0.577363 0.874483 0.149319
H8    H     H_    0.321237 0.355077 0.867807 0.200142
H9    H     H_    0.070520 0.393058 0.312738 0.175416
H10   H     H_    0.073642 0.293550 0.458919 0.159558
H11   H     H_    0.925588 0.386641 0.316433 0.171443
H12   H     H_    0.073150 0.700693 0.498564 0.163512
H13   H     H_    0.073339 0.628401 0.334535 0.181006
H14   H     H_    0.927833 0.702223 0.495678 0.165518
N1    N     N_R   0.499430 0.499140 0.142800 -0.113873
N2    N     N_R   0.499430 0.499180 0.857150 -0.100829
O1    O     O_R   0.500010 0.316790 0.614690 -0.613977
O2    O     O_R   0.500000 0.316760 0.385350 -0.623515
O3    O     O_R   0.377150 0.500020 0.614720 -0.613001
O4    O     O_R   0.377140 0.499990 0.385380 -0.617123
O5    O     O_R   0.500000 0.683240 0.614650 -0.614073
O6    O     O_R   0.499990 0.683210 0.385310 -0.619992
O7    O     O_R   0.622860 0.500010 0.614620 -0.620608
O8    O     O_R   0.622850 0.499980 0.385280 -0.617218
Zn1   Zn    Zn3+2 0.500010 0.500020 0.653130 0.940739
Zn2   Zn    Zn3+2 0.499990 0.499980 0.346870 0.934001
H15   H     H_    0.923784 0.401627 0.699107 0.176051
H16   H     H_    0.071402 0.572301 0.708048 0.146302
H17   H     H_    0.926938 0.568557 0.711693 0.147571
C31   C     C_3   0.406262 0.877906 0.260639 -0.376426
C32   C     C_3   0.322525 0.813034 0.294665 -0.840886
H18   H     H_    0.297321 0.765207 0.203060 0.237840
H19   H     H_    0.331426 0.742534 0.376033 0.259430
H20   H     H_    0.275111 0.883222 0.328944 0.245697
H21   H     H_    0.391857 0.949698 0.181860 0.183552
H22   H     H_    0.451006 0.812524 0.210918 0.227161
H23   H     H_    0.624709 0.881558 0.672337 0.194872
C33   C     C_3   0.084381 0.371720 0.734065 -0.395538
C34   C     C_3   0.069529 0.383775 0.886755 -0.936797
H24   H     H_    0.102602 0.467869 0.926835 0.254349
H25   H     H_    0.000668 0.390891 0.909602 0.264055
H26   H     H_    0.095293 0.299800 0.939434 0.254215
H27   H     H_    0.054110 0.284007 0.697515 0.212034
H28   H     H_    0.153987 0.362077 0.718950 0.213964
H29   H     H_    0.424535 0.269726 0.878855 0.200086
C35   C     C_3   0.290016 0.358328 0.134129 -0.330894
C36   C     C_3   0.272379 0.257207 0.239958 -0.888727
H30   H     H_    0.280318 0.162719 0.194796 0.253373
H31   H     H_    0.316189 0.267293 0.327699 0.269566
H32   H     H_    0.206151 0.266325 0.277021 0.242025
H33   H     H_    0.280410 0.451614 0.181373 0.223112
H34   H     H_    0.240928 0.349550 0.053441 0.203325
H35   H     H_    0.420344 0.270431 0.121284 0.177520
H36   H     H_    0.927898 0.294756 0.469237 0.163431

loop_
_geom_bond_atom_site_label_1
_geom_bond_atom_site_label_2
_ccdc_geom_bond_type
C5    H12   S    
C28   H36   S    
C18   C21   A    
C19   C20   A    
C3    C6    S    
C12   O3    A    
C2    H15   S    
C7    C8    T    
C13   C31   S    
C36   H30   S    
C18   C24   S    
C3    C28   S    
C24   H35   S    
C25   O7    A    
C5    C30   S    
C19   H6    S    
C33   H28   S    
C15   C16   S    
C22   H8    S    
C28   H11   S    
C34   H25   S    
C32   H19   S    
C33   C34   S    
N1    Zn2   S    
C27   H9    S    
C16   C17   S    
N2    Zn1   S    
C9    C10   A    
C36   H31   S    
C5    H13   S    
C31   H22   S    
C7    C30   S    
C13   C14   A    
C27   C30   S    
C34   H24   S    
C22   H29   S    
O7    Zn1   S    
C25   C29   S    
O8    Zn2   S    
C25   O8    A    
C35   H34   S    
C2    H17   S    
C24   C35   S    
C4    H14   S    
C33   H27   S    
O3    Zn1   S    
O4    Zn2   S    
C31   C32   S    
C14   C23   S    
C32   H20   S    
C16   H3    S    
C23   O5    A    
C27   H10   S    
C8    C12   S    
C2    C26   S    
C16   H23   S    
C35   C36   S    
C26   H16   S    
C9    C17   S    
C11   H2    S    
C26   C30   S    
C22   C24   S    
C17   H4    S    
C3    C4    S    
C18   N1    A    
C34   H26   S    
O1    Zn1   S    
C21   N2    A    
C36   H32   S    
O2    Zn2   S    
C1    O1    A    
C1    C10   S    
C4    C5    S    
C35   H33   S    
C31   H21   S    
C12   O4    A    
C19   N1    A    
C1    O2    A    
C26   C33   S    
C2    C3    S    
C9    C15   A    
C20   H7    S    
C11   C13   A    
C23   O6    A    
O5    Zn1   S    
C32   H18   S    
C4    H1    S    
C10   C11   A    
C6    C29   T    
C27   C28   S    
C14   C15   A    
C17   H5    S    
C21   C22   S    
C20   N2    A    
O6    Zn2   S    
