data_mof_unit_68517.cif
_audit_creation_date              2013-03-05T16:08:12-0500
_audit_creation_method            fapswitch 2.2
_symmetry_space_group_name_H-M    P1
_symmetry_Int_Tables_number       1
_space_group_crystal_system       triclinic
_cell_length_a                    19.580435
_cell_length_b                    22.564904
_cell_length_c                    8.316396
_cell_angle_alpha                 90.000157
_cell_angle_beta                  103.198996
_cell_angle_gamma                 89.912354
_cell_volume                      3577.36612718

loop_
_atom_site_label
_atom_site_type_symbol
_atom_site_description
_atom_site_fract_x
_atom_site_fract_y
_atom_site_fract_z
_atom_type_partial_charge
P1    P     P_3+3 0.853370 0.434890 0.996520 0.463933
P2    P     P_3+3 0.853370 0.565110 0.496520 0.471319
P3    P     P_3+3 0.353370 0.934890 0.996520 0.475424
P4    P     P_3+3 0.353370 0.065110 0.496520 0.463229
O1    O     O_2   0.860260 0.414960 0.826400 -0.377360
O2    O     O_2   0.860260 0.585040 0.326400 -0.388334
O3    O     O_2   0.360260 0.914960 0.826400 -0.380253
O4    O     O_2   0.360260 0.085040 0.326400 -0.379449
O5    O     O_3   0.918600 0.470180 0.098890 -0.404916
O6    O     O_3   0.918600 0.529820 0.598890 -0.402152
O7    O     O_3   0.418600 0.970180 0.098890 -0.405416
O8    O     O_3   0.418600 0.029820 0.598890 -0.402437
O9    O     O_3   0.975750 0.362410 0.628650 -0.371244
O10   O     O_3   0.975750 0.637590 0.128650 -0.339347
O11   O     O_3   0.475750 0.862410 0.628650 -0.343635
O12   O     O_3   0.475750 0.137590 0.128650 -0.370236
O13   O     O_2   0.864953 0.310912 0.700004 -0.400415
O14   O     O_2   0.864433 0.687662 0.195779 -0.409525
O15   O     O_2   0.359574 0.818042 0.687677 -0.393131
O16   O     O_2   0.365347 0.190077 0.199460 -0.404857
O17   O     O_3   0.779844 0.481471 0.955320 -0.553431
O18   O     O_3   0.779553 0.519083 0.454892 -0.535027
O19   O     O_3   0.279630 0.981070 0.954348 -0.531431
O20   O     O_3   0.280067 0.018477 0.456021 -0.554216
O21   O     O_3   0.959929 0.238515 0.637125 -0.507089
O22   O     O_3   0.963985 0.759240 0.155671 -0.512745
O23   O     O_3   0.455858 0.742211 0.668970 -0.484305
O24   O     O_3   0.461034 0.261391 0.133703 -0.517586
H1    H     H_    0.061337 0.270184 0.701167 0.126233
H2    H     H_    0.018570 0.742889 0.970449 0.046146
H3    H     H_    0.533171 0.755256 0.537036 0.046289
H4    H     H_    0.562833 0.230268 0.195809 0.129087
C1    C     C_3   0.060316 0.181468 0.602438 0.381485
C2    C     C_3   0.062431 0.817978 0.117100 0.398565
C3    C     C_3   0.541990 0.668934 0.652330 0.418818
C4    C     C_3   0.559882 0.317862 0.087879 0.388501
H5    H     H_    0.115693 0.187790 0.593826 -0.021856
H6    H     H_    0.104225 0.787420 0.183214 0.042819
H7    H     H_    0.580341 0.687622 0.760302 0.076911
H8    H     H_    0.615470 0.311719 0.081100 -0.023532
P5    P     P_3+3 0.146350 0.434230 0.693140 0.446335
P6    P     P_3+3 0.146350 0.565770 0.193140 0.445698
P7    P     P_3+3 0.646350 0.934230 0.693140 0.451811
P8    P     P_3+3 0.646350 0.065770 0.193140 0.446815
P9    P     P_3+3 0.083155 0.304347 0.108432 0.454824
P10   P     P_3+3 0.084021 0.695104 0.607130 0.464775
P11   P     P_3+3 0.586575 0.806634 0.106567 0.456507
P12   P     P_3+3 0.583753 0.195181 0.607548 0.454437
O25   O     O_2   0.139400 0.414340 0.863230 -0.369641
O26   O     O_2   0.139400 0.585660 0.363230 -0.382071
O27   O     O_2   0.639400 0.914340 0.863230 -0.369132
O28   O     O_2   0.639400 0.085660 0.363230 -0.376359
O29   O     O_3   0.023740 0.362300 0.060930 -0.391327
O30   O     O_3   0.023740 0.637700 0.560930 -0.400226
O31   O     O_3   0.523740 0.862300 0.060930 -0.381684
O32   O     O_3   0.523740 0.137700 0.560930 -0.397511
O33   O     O_2   0.134539 0.310777 0.993134 -0.385205
O34   O     O_2   0.133349 0.689408 0.486706 -0.378195
O35   O     O_2   0.636556 0.813275 0.988252 -0.375622
O36   O     O_2   0.633512 0.189444 0.488165 -0.384799
O37   O     O_3   0.219971 0.480256 0.739872 -0.597632
O38   O     O_3   0.218625 0.517859 0.239161 -0.602847
O39   O     O_3   0.720389 0.979723 0.737318 -0.602308
O40   O     O_3   0.719491 0.019229 0.238118 -0.602744
O41   O     O_3   0.036909 0.238992 0.043469 -0.470159
O42   O     O_3   0.038658 0.761622 0.549767 -0.459885
O43   O     O_3   0.542270 0.740478 0.045586 -0.506471
O44   O     O_3   0.537615 0.261169 0.548511 -0.471085
C5    C     C_3   0.969847 0.243692 0.076786 0.502078
C6    C     C_3   0.968563 0.754174 0.560488 0.593788
C7    C     C_3   0.479475 0.742355 0.099656 0.536592
C8    C     C_3   0.468130 0.253785 0.564107 0.509596
H9    H     H_    0.939547 0.280568 0.005490 0.120651
H10   H     H_    0.942340 0.719851 0.472472 0.133753
H11   H     H_    0.442382 0.774847 0.025724 0.120518
H12   H     H_    0.441887 0.216894 0.485833 0.134924
H13   H     H_    0.973821 0.250412 0.210728 0.021234
H14   H     H_    0.965760 0.741661 0.687681 -0.034210
H15   H     H_    0.489334 0.754245 0.232502 -0.020383
H16   H     H_    0.466830 0.245798 0.695102 0.024932
C9    C     C_3   0.929181 0.187012 0.024643 -0.823692
C10   C     C_3   0.928424 0.811740 0.515313 -0.908636
C11   C     C_3   0.445261 0.682021 0.076636 -0.956557
C12   C     C_3   0.426290 0.309315 0.504889 -0.836393
H17   H     H_    0.918087 0.182010 0.888329 0.279177
H18   H     H_    0.931497 0.826373 0.389904 0.300413
H19   H     H_    0.420033 0.675257 0.944074 0.287740
H20   H     H_    0.426286 0.318493 0.373909 0.285755
H21   H     H_    0.959870 0.148271 0.083690 0.298665
H22   H     H_    0.950224 0.846840 0.605416 0.276911
H23   H     H_    0.484885 0.646652 0.117768 0.313470
H24   H     H_    0.449713 0.347386 0.581010 0.291242
C13   C     C_3   0.197247 0.461378 0.276593 0.367962
C14   C     C_3   0.199211 0.538663 0.757976 0.343166
C15   C     C_3   0.699799 0.962260 0.275131 0.350392
C16   C     C_3   0.702038 0.037227 0.773338 0.335886
H25   H     H_    0.173867 0.464045 0.385356 0.081578
H26   H     H_    0.174138 0.541594 0.864195 0.076152
H27   H     H_    0.676793 0.963948 0.384703 0.087290
H28   H     H_    0.675786 0.036557 0.877912 0.089322
H29   H     H_    0.158335 0.442467 0.170797 0.124865
H30   H     H_    0.161147 0.553956 0.646242 0.128936
H31   H     H_    0.661274 0.942836 0.169510 0.122674
H32   H     H_    0.666470 0.057576 0.664261 0.121503
C17   C     C_3   0.260925 0.419918 0.314015 -0.540193
C18   C     C_3   0.263422 0.579201 0.782083 -0.465487
C19   C     C_3   0.765041 0.922705 0.311263 -0.542533
C20   C     C_3   0.769167 0.074307 0.818298 -0.504554
H33   H     H_    0.244092 0.375505 0.345023 0.161049
H34   H     H_    0.244553 0.625333 0.753595 0.152535
H35   H     H_    0.750074 0.877788 0.343950 0.157415
H36   H     H_    0.754670 0.121561 0.827186 0.154952
H37   H     H_    0.280704 0.413609 0.200411 0.197927
H38   H     H_    0.295046 0.568070 0.690862 0.223657
H39   H     H_    0.784642 0.917548 0.196596 0.196703
H40   H     H_    0.796771 0.071503 0.715566 0.208467
Ba1   Ba    Ba6+2 0.999900 0.457470 0.844900 1.543401
Ba2   Ba    Ba6+2 0.999900 0.542530 0.344900 1.545998
Ba3   Ba    Ba6+2 0.499900 0.957470 0.844900 1.548013
Ba4   Ba    Ba6+2 0.499900 0.042530 0.344900 1.543765
C21   C     C_3   0.798901 0.538675 0.918043 0.379037
C22   C     C_3   0.798232 0.462648 0.410419 0.360733
C23   C     C_3   0.298598 0.037384 0.910199 0.358872
C24   C     C_3   0.299031 0.961616 0.415166 0.357304
H41   H     H_    0.812712 0.538193 0.796477 0.098381
H42   H     H_    0.819274 0.465689 0.298226 0.099485
H43   H     H_    0.319632 0.034286 0.798008 0.100819
H44   H     H_    0.312103 0.963017 0.292878 0.101262
H45   H     H_    0.843278 0.556302 0.013812 0.131977
H46   H     H_    0.837566 0.441834 0.512375 0.129738
H47   H     H_    0.337956 0.058003 0.012302 0.129384
H48   H     H_    0.343877 0.943491 0.509010 0.132923
C25   C     C_3   0.736285 0.579354 0.910290 -0.810561
C26   C     C_3   0.732790 0.424152 0.374010 -0.806349
C27   C     C_3   0.233359 0.076120 0.874159 -0.804254
C28   C     C_3   0.236634 0.920806 0.407094 -0.764891
H49   H     H_    0.690326 0.562238 0.818254 0.306286
H50   H     H_    0.693402 0.442801 0.268320 0.279561
H51   H     H_    0.194010 0.057903 0.767844 0.273920
H52   H     H_    0.189561 0.939670 0.322210 0.304866
H53   H     H_    0.748486 0.624822 0.875079 0.217501
H54   H     H_    0.745762 0.378440 0.342720 0.200877
H55   H     H_    0.246527 0.121888 0.844227 0.203323
H56   H     H_    0.247461 0.876271 0.362442 0.207946
H57   H     H_    0.722828 0.581050 0.032816 0.243949
H58   H     H_    0.709839 0.422333 0.484343 0.277816
H59   H     H_    0.210404 0.077535 0.984526 0.281493
H60   H     H_    0.225617 0.916370 0.531644 0.246895
O45   O     O_3   0.081330 0.529680 0.090830 -0.396221
O46   O     O_3   0.081330 0.470320 0.590830 -0.403379
O47   O     O_3   0.581330 0.029680 0.090830 -0.396549
O48   O     O_3   0.581330 0.970320 0.590830 -0.397957
P13   P     P_3+3 0.916138 0.695388 0.081998 0.452603
P14   P     P_3+3 0.915003 0.305308 0.581272 0.457711
P15   P     P_3+3 0.415326 0.194906 0.080300 0.454147
P16   P     P_3+3 0.413572 0.806542 0.582194 0.467060
C29   C     C_3   0.027090 0.243021 0.603777 0.246413
C30   C     C_3   0.998472 0.779899 0.035418 0.097271
C31   C     C_3   0.497285 0.720428 0.564932 0.113905
C32   C     C_3   0.527642 0.256320 0.097202 0.222055
H61   H     H_    0.025168 0.263988 0.482098 -0.024132
H62   H     H_    0.960859 0.806954 0.944049 0.097580
H63   H     H_    0.462812 0.703797 0.448744 0.084546
H64   H     H_    0.524879 0.233934 0.976766 -0.010381
H65   H     H_    0.878564 0.188589 0.063062 0.189991
H66   H     H_    0.872479 0.805030 0.516528 0.183036
H67   H     H_    0.405097 0.679554 0.151279 0.201002
H68   H     H_    0.371322 0.303490 0.515921 0.189290
C33   C     C_R   0.134048 0.692562 0.825809 0.149496
C34   C     C_R   0.130978 0.305778 0.328832 0.148893
C35   C     C_R   0.633543 0.192771 0.826200 0.157167
C36   C     C_R   0.634293 0.807714 0.326674 0.135686
C37   C     C_R   0.185843 0.734785 0.893678 -0.046707
C38   C     C_R   0.181916 0.262879 0.397835 -0.057698
C39   C     C_R   0.684168 0.235791 0.895336 -0.058359
C40   C     C_R   0.685535 0.765024 0.395103 -0.021749
C41   C     C_R   0.786134 0.322541 0.035912 -0.055178
C42   C     C_R   0.788600 0.678829 0.534521 -0.018700
C43   C     C_R   0.288349 0.821164 0.033603 -0.038199
C44   C     C_R   0.285394 0.176930 0.536756 -0.058319
C45   C     C_R   0.743227 0.329697 0.876839 -0.050803
C46   C     C_R   0.746405 0.672212 0.374432 0.020139
C47   C     C_R   0.246316 0.827705 0.873419 0.016169
C48   C     C_R   0.241939 0.169390 0.378535 -0.050088
C49   C     C_R   0.197846 0.784689 0.803256 -0.084882
C50   C     C_R   0.192351 0.211907 0.309599 -0.104540
C51   C     C_R   0.694584 0.286708 0.806866 -0.105550
C52   C     C_R   0.697225 0.714908 0.305025 -0.121877
C53   C     C_R   0.838959 0.364545 0.104785 0.245301
C54   C     C_R   0.840345 0.636067 0.604510 0.235631
C55   C     C_R   0.340191 0.863812 0.103514 0.250304
C56   C     C_R   0.338832 0.135281 0.604909 0.243510
H69   H     H_    0.746466 0.368408 0.802932 0.176390
H70   H     H_    0.749694 0.633703 0.300193 0.156778
H71   H     H_    0.249413 0.866335 0.799509 0.165652
H72   H     H_    0.245391 0.130706 0.304634 0.176881
H73   H     H_    0.168343 0.792407 0.678538 0.203087
H74   H     H_    0.161566 0.203545 0.186729 0.220098
H75   H     H_    0.664455 0.294715 0.683009 0.217868
H76   H     H_    0.667448 0.707038 0.180702 0.176094
C57   C     C_R   0.879041 0.355264 0.265340 -0.554229
C58   C     C_R   0.880404 0.645263 0.765336 -0.534563
C59   C     C_R   0.380490 0.854385 0.263800 -0.535633
C60   C     C_R   0.379230 0.144658 0.765002 -0.556395
C61   C     C_R   0.161124 0.635787 0.083903 0.257412
C62   C     C_R   0.159805 0.363659 0.584913 0.249248
C63   C     C_R   0.661087 0.135705 0.083697 0.251804
C64   C     C_R   0.660762 0.864109 0.584795 0.269175
C65   C     C_R   0.214576 0.677266 0.151831 -0.044648
C66   C     C_R   0.213072 0.321927 0.652826 -0.045028
C67   C     C_R   0.714118 0.177504 0.152024 -0.050884
C68   C     C_R   0.714806 0.822934 0.652218 -0.029564
C69   C     C_R   0.225835 0.727543 0.057613 0.010036
C70   C     C_R   0.223012 0.270797 0.560347 0.009676
C71   C     C_R   0.724515 0.228320 0.058842 0.012860
C72   C     C_R   0.725764 0.772383 0.558701 0.026041
C73   C     C_R   0.257239 0.670152 0.311187 -0.101757
C74   C     C_R   0.256757 0.329601 0.810683 -0.111510
C75   C     C_R   0.757050 0.170266 0.311004 -0.113036
C76   C     C_R   0.758343 0.830634 0.810332 -0.108327
C77   C     C_R   0.805733 0.213180 0.380873 -0.095157
C78   C     C_R   0.807863 0.788137 0.879563 -0.198356
C79   C     C_R   0.306356 0.712819 0.380460 -0.175036
C80   C     C_R   0.305788 0.286835 0.880282 -0.086265
C81   C     C_R   0.816117 0.264132 0.292374 -0.025353
C82   C     C_R   0.818412 0.737192 0.791144 -0.012642
C83   C     C_R   0.317767 0.763122 0.290738 -0.028916
C84   C     C_R   0.315925 0.235693 0.792225 -0.016342
C85   C     C_R   0.775900 0.271573 0.128778 0.009468
C86   C     C_R   0.777991 0.729594 0.627829 0.034293
C87   C     C_R   0.277864 0.770375 0.126810 0.027095
C88   C     C_R   0.275041 0.227876 0.629553 0.006918
C89   C     C_R   0.866194 0.307468 0.362097 0.185412
C90   C     C_R   0.868586 0.693874 0.861098 0.153519
C91   C     C_R   0.368258 0.806174 0.360042 0.139964
C92   C     C_R   0.366333 0.192482 0.861608 0.192157
C93   C     C_R   0.120481 0.645423 0.923965 -0.503171
C94   C     C_R   0.118478 0.353807 0.425703 -0.530566
C95   C     C_R   0.620941 0.144923 0.923156 -0.531836
C96   C     C_R   0.620249 0.854670 0.424829 -0.520257
H77   H     H_    0.835572 0.205184 0.505085 0.185458
H78   H     H_    0.838136 0.796329 0.003324 0.170525
H79   H     H_    0.335691 0.705260 0.505255 0.201518
H80   H     H_    0.336176 0.295165 0.003765 0.181699
H81   H     H_    0.253251 0.631878 0.386125 0.171114
H82   H     H_    0.253685 0.368428 0.884243 0.164015
H83   H     H_    0.753733 0.131592 0.385031 0.167959
H84   H     H_    0.754672 0.869226 0.884406 0.165051
H85   H     H_    0.918487 0.387528 0.319122 0.184984
H86   H     H_    0.919081 0.612421 0.819975 0.182506
H87   H     H_    0.419154 0.887150 0.318375 0.181026
H88   H     H_    0.418997 0.112509 0.818516 0.185813
H89   H     H_    0.079932 0.613861 0.871684 0.177666
H90   H     H_    0.078678 0.385972 0.372544 0.182893
H91   H     H_    0.581192 0.112820 0.869991 0.183855
H92   H     H_    0.580052 0.886561 0.371978 0.179258
C97   C     C_3   0.318999 0.441926 0.459072 -0.278978
C98   C     C_3   0.381304 0.467841 0.400028 -0.349771
C99   C     C_3   0.440287 0.485536 0.545547 -0.605366
H93   H     H_    0.419620 0.515563 0.628423 0.266994
H94   H     H_    0.463094 0.446169 0.618228 0.270165
H95   H     H_    0.482403 0.508353 0.499808 0.293572
H96   H     H_    0.401860 0.434740 0.323987 0.247527
H97   H     H_    0.363622 0.507721 0.323441 0.238162
H98   H     H_    0.298122 0.476152 0.530799 0.218579
H99   H     H_    0.337246 0.404477 0.544741 0.198008
C100  C     C_3   0.308241 0.577424 0.960175 -0.321846
C101  C     C_3   0.378959 0.545561 0.979723 -0.264349
C102  C     C_3   0.371682 0.478900 0.951971 -0.681365
H100  H     H_    0.423465 0.457627 0.000534 0.295121
H101  H     H_    0.333260 0.460072 0.017378 0.233036
H102  H     H_    0.354762 0.468809 0.818429 0.255388
H103  H     H_    0.408814 0.564567 0.894326 0.271455
H104  H     H_    0.410121 0.553292 0.107397 0.208222
H105  H     H_    0.318391 0.623792 0.001959 0.169210
H106  H     H_    0.279474 0.557512 0.046232 0.219409
C103  C     C_3   0.822558 0.946826 0.454628 -0.289279
C104  C     C_3   0.883130 0.974982 0.393413 -0.312865
C105  C     C_3   0.942273 0.994515 0.536273 -0.646582
H107  H     H_    0.922766 0.028662 0.610754 0.260215
H108  H     H_    0.963327 0.956147 0.615895 0.251244
H109  H     H_    0.985471 0.013822 0.486994 0.294773
H110  H     H_    0.904308 0.942442 0.317451 0.252188
H111  H     H_    0.863657 0.014397 0.316827 0.233143
H112  H     H_    0.800406 0.980413 0.526105 0.222814
H113  H     H_    0.843000 0.909827 0.540088 0.186088
C106  C     C_3   0.817072 0.054755 0.984323 -0.294292
C107  C     C_3   0.890400 0.034547 0.970193 -0.246364
C108  C     C_3   0.890968 0.969878 0.916784 -0.769939
H114  H     H_    0.875450 0.940386 0.009184 0.246978
H115  H     H_    0.853961 0.963073 0.796741 0.255347
H116  H     H_    0.944404 0.957480 0.904402 0.285218
H117  H     H_    0.910143 0.063267 0.882636 0.239562
H118  H     H_    0.927250 0.038986 0.092864 0.230259
H119  H     H_    0.823019 0.092520 0.072076 0.174524
H120  H     H_    0.792699 0.018334 0.040563 0.235432
N1    N     N_R   0.024083 0.146902 0.459094 0.223505
O49   O     O_R   0.956749 0.137750 0.430978 -0.417151
O50   O     O_R   0.059419 0.125008 0.358053 -0.411685
N2    N     N_R   0.090309 0.851396 0.995047 0.209272
O51   O     O_R   0.061298 0.848870 0.838066 -0.432582
O52   O     O_R   0.143480 0.886518 0.044928 -0.394875
N3    N     N_R   0.579624 0.640478 0.540752 0.206135
O53   O     O_R   0.545470 0.611945 0.411130 -0.410484
O54   O     O_R   0.647638 0.637504 0.580838 -0.442479
N4    N     N_R   0.523135 0.349272 0.939067 0.230957
O55   O     O_R   0.455279 0.355461 0.905997 -0.438369
O56   O     O_R   0.558353 0.370411 0.836972 -0.400992
N5    N     N_R   0.060874 0.149804 0.756115 0.262086
O57   O     O_R   0.111160 0.159533 0.885530 -0.405438
O58   O     O_R   0.009671 0.114572 0.768320 -0.380157
N6    N     N_R   0.044455 0.859347 0.236158 0.263270
O59   O     O_R   0.080228 0.859305 0.388544 -0.349357
O60   O     O_R   0.999293 0.901504 0.185899 -0.434128
N7    N     N_R   0.499371 0.624711 0.712648 0.241526
O61   O     O_R   0.530121 0.583851 0.814290 -0.398145
O62   O     O_R   0.431631 0.622994 0.656861 -0.478212
N8    N     N_R   0.559436 0.352500 0.236487 0.255295
O63   O     O_R   0.602350 0.338394 0.374880 -0.390596
O64   O     O_R   0.522712 0.400941 0.229040 -0.372292

loop_
_geom_bond_atom_site_label_1
_geom_bond_atom_site_label_2
_geom_bond_distance
_ccdc_geom_bond_type
C25   H49   1.109665 S    
P5    O37   1.748256 S    
C28   H52   1.109389 S    
P9    C34   1.858445 S    
C78   H78   1.080097 S    
P7    O39   1.746932 S    
N3    O54   1.298525 A    
O31   Ba3   2.769727 S    
P8    O40   1.744875 S    
C27   H51   1.110944 S    
C100  H105  1.106379 S    
C18   C100  1.540029 S    
C94   H90   1.081890 S    
C73   H81   1.078349 S    
C15   H27   1.105505 S    
P16   C91   1.857954 S    
C77   C81   1.404982 A    
C79   H79   1.078705 S    
C6    H10   1.108525 S    
C46   H70   1.076278 S    
C107  H118  1.111521 S    
P4    O8    1.578150 S    
C1    N1    1.465696 S    
C16   C20   1.531823 S    
C55   C59   1.401398 A    
C80   C84   1.404671 A    
P5    O25   1.519529 D    
C40   C52   1.403550 A    
C45   C51   1.391569 A    
C26   H58   1.110840 S    
C98   H97   1.110718 S    
Ba4   O48   2.807690 S    
O3    Ba3   2.869780 S    
C97   H98   1.108949 S    
C13   H29   1.109770 S    
O37   C14   1.396848 S    
C68   C76   1.405175 A    
O39   C16   1.396516 S    
C65   C69   1.424533 A    
Ba2   O45   2.937331 S    
C37   C69   1.417990 A    
C12   H68   1.108895 S    
C58   C90   1.405128 A    
N3    O53   1.302269 A    
C64   C68   1.422487 A    
P9    O33   1.547189 D    
O12   P15   1.735579 S    
N4    O55   1.301163 A    
C56   C60   1.400951 A    
C62   C94   1.403070 A    
C8    C12   1.515385 S    
C102  H101  1.109136 S    
C95   H91   1.081941 S    
C25   H57   1.109863 S    
C43   C87   1.424718 A    
N2    O51   1.300662 A    
C34   C38   1.413097 A    
O23   P16   1.742696 S    
P7    C64   1.873460 S    
C80   H80   1.079472 S    
C12   H20   1.108773 S    
C99   H94   1.108792 S    
C11   H23   1.110335 S    
C65   C73   1.404969 A    
C60   C92   1.401997 A    
P2    O18   1.750344 S    
O42   C6    1.405879 S    
C103  H112  1.110217 S    
C42   C54   1.422711 A    
C106  H119  1.110786 S    
P13   C90   1.860632 S    
O22   C30   1.408118 S    
C105  H108  1.110068 S    
C1    N5    1.462053 S    
C6    C10   1.519293 S    
O9    P14   1.738086 S    
P3    O7    1.580118 S    
P11   O35   1.545507 D    
C43   C55   1.424085 A    
C14   H30   1.104971 S    
O38   C13   1.399136 S    
C101  H104  1.111120 S    
P8    Ba4   3.427551 S    
Ba1   O45   2.810513 S    
C49   H73   1.079781 S    
P7    O48   1.584337 S    
C44   C48   1.404813 A    
C73   C79   1.390530 A    
C83   C87   1.417388 A    
C5    H13   1.109192 S    
C4    N8    1.464002 S    
C7    H15   1.110214 S    
C77   H77   1.079378 S    
C2    N6    1.460757 S    
C37   C49   1.403668 A    
C17   H37   1.108954 S    
C42   C86   1.424902 A    
O12   Ba4   2.769042 S    
C79   C83   1.404279 A    
C52   H76   1.079576 S    
O23   C31   1.402663 S    
P12   C35   1.857485 S    
O24   C32   1.409456 S    
N6    O59   1.300499 A    
C24   H48   1.110568 S    
P6    C61   1.877917 S    
C97   C98   1.532029 S    
C22   C26   1.521306 S    
N8    O64   1.301130 A    
C23   H43   1.104736 S    
O25   Ba1   2.869330 S    
N6    O60   1.300094 A    
O27   Ba3   2.869330 S    
P6    O38   1.750981 S    
C69   C87   1.427738 A    
P8    O28   1.519402 D    
C27   H55   1.106869 S    
P9    O29   1.733510 S    
C103  C104  1.532170 S    
P10   O34   1.547174 D    
C63   C67   1.422772 A    
O5    Ba2   2.811726 S    
N1    O50   1.301300 A    
O7    Ba4   2.811726 S    
C15   H31   1.109557 S    
C7    C11   1.511021 S    
N5    O58   1.302456 A    
C96   H92   1.082033 S    
C54   C58   1.403064 A    
O19   C23   1.396843 S    
C82   C86   1.417751 A    
C11   H67   1.109042 S    
P8    C63   1.877055 S    
C23   C27   1.518985 S    
C21   H41   1.104630 S    
O8    Ba3   2.808903 S    
C62   C66   1.421816 A    
C47   H71   1.076357 S    
C3    N3    1.458488 S    
C108  H114  1.110378 S    
C2    N2    1.466700 S    
P1    Ba1   3.426075 S    
C28   H60   1.109753 S    
P3    Ba3   3.426075 S    
P6    O26   1.519402 D    
C59   H87   1.081918 S    
C36   C96   1.402231 A    
C27   H59   1.110800 S    
C104  H110  1.108547 S    
P9    O41   1.751366 S    
C13   H25   1.104706 S    
Ba3   O48   2.937816 S    
C17   H33   1.104236 S    
Ba4   O47   2.937331 S    
O26   Ba2   2.872163 S    
C19   H35   1.106493 S    
C100  C101  1.534563 S    
C67   C75   1.404776 A    
C57   H85   1.081944 S    
C82   C90   1.412475 A    
C98   C99   1.523475 S    
C8    H16   1.110226 S    
O6    Ba1   2.808903 S    
Ba1   Ba2   4.579807 S    
P15   C92   1.853229 S    
C41   C45   1.405017 A    
C16   H28   1.106778 S    
O11   Ba3   2.770154 S    
C76   H84   1.078438 S    
C39   C51   1.404369 A    
C3    N7    1.462041 S    
C33   C37   1.412950 A    
C104  C105  1.523191 S    
O22   P13   1.752448 S    
C12   H24   1.103493 S    
P5    Ba1   3.426210 S    
C9    H17   1.110266 S    
C36   C40   1.412360 A    
P7    Ba3   3.426210 S    
P2    O6    1.578150 S    
C11   H19   1.110956 S    
O16   P15   1.547511 D    
P4    C56   1.875233 S    
C70   C88   1.426996 A    
P2    Ba2   3.424770 S    
O21   P14   1.752310 S    
P1    O1    1.519551 D    
C32   H64   1.112030 S    
C93   H89   1.081996 S    
P10   O42   1.752675 S    
P3    O3    1.519551 D    
P4    O20   1.750610 S    
C14   H26   1.106207 S    
C108  H116  1.109907 S    
C4    N4    1.464043 S    
H2    C30   1.113695 S    
P5    C62   1.876783 S    
Ba2   O46   2.807690 S    
P6    O45   1.586337 S    
C14   C18   1.531697 S    
C1    C29   1.533969 S    
O24   P15   1.752582 S    
N4    O56   1.300906 A    
C105  H107  1.109227 S    
C5    H9    1.110757 S    
C45   H69   1.078322 S    
C63   C95   1.401410 A    
C24   H44   1.104396 S    
C9    H21   1.109088 S    
N7    O61   1.301168 A    
C33   C93   1.402946 A    
C102  H100  1.110442 S    
O15   P16   1.541920 D    
O13   P14   1.546903 D    
N2    O52   1.299767 A    
C100  H106  1.102825 S    
C24   C28   1.520272 S    
P1    O5    1.580118 S    
P6    Ba2   3.427551 S    
H1    C29   1.111097 S    
P5    O46   1.584337 S    
C10   H18   1.108646 S    
C1    H5    1.112266 S    
C20   H36   1.109812 S    
C51   H75   1.078811 S    
C38   C70   1.417682 A    
C39   C71   1.417941 A    
C3    H7    1.114020 S    
C59   C91   1.403496 A    
C26   H54   1.107062 S    
C57   C89   1.402568 A    
C106  C107  1.535682 S    
P10   O30   1.736733 S    
C107  H117  1.108579 S    
P12   O44   1.751473 S    
C61   C93   1.402092 A    
C15   C19   1.529728 S    
C75   H83   1.078527 S    
C29   H61   1.109874 S    
C84   C88   1.417047 A    
C10   H66   1.108414 S    
C17   C97   1.539551 S    
C2    C30   1.543677 S    
C23   H47   1.110715 S    
C97   H99   1.110016 S    
C21   H45   1.110217 S    
O9    Ba1   2.770154 S    
Ba3   Ba4   4.579807 S    
C74   C80   1.389730 A    
C25   H53   1.108227 S    
C10   H22   1.107226 S    
C81   C89   1.413219 A    
C20   H40   1.112144 S    
C28   H56   1.108156 S    
C48   H72   1.078435 S    
P7    O27   1.519529 D    
O41   C5    1.406417 S    
P14   C89   1.855391 S    
C48   C50   1.390977 A    
O43   C7    1.402903 S    
C81   C85   1.417626 A    
C5    C9    1.517661 S    
C101  C102  1.523750 S    
C102  H102  1.107801 S    
C50   H74   1.078040 S    
O18   C22   1.397348 S    
C46   C52   1.389960 A    
C67   C71   1.424635 A    
P1    O17   1.750709 S    
C6    H14   1.108243 S    
N1    O49   1.302158 A    
P3    O19   1.748641 S    
C98   H96   1.111352 S    
P4    O4    1.519677 D    
C99   H95   1.111018 S    
C64   C96   1.401082 A    
C76   C78   1.390482 A    
P11   C36   1.855627 S    
N5    O57   1.301059 A    
C18   H38   1.111785 S    
C74   H82   1.078013 S    
C47   C49   1.390414 A    
C41   C85   1.425023 A    
O29   Ba1   2.769727 S    
C78   C82   1.404826 A    
O20   C24   1.398481 S    
C106  H120  1.106818 S    
C105  H109  1.110237 S    
C13   C17   1.531654 S    
C68   C72   1.423898 A    
O10   Ba2   2.769042 S    
P2    C54   1.881114 S    
C101  H103  1.104717 S    
C72   C86   1.427247 A    
C40   C72   1.417787 A    
Ba1   O46   2.937816 S    
O44   C8    1.406044 S    
C104  H111  1.109112 S    
O32   Ba4   2.770826 S    
P2    O2    1.519677 D    
P11   O43   1.743929 S    
P12   O36   1.546960 D    
C43   C47   1.404531 A    
Ba3   O47   2.810513 S    
N7    O62   1.301976 A    
P8    O47   1.586337 S    
C41   C53   1.424318 A    
C4    H8    1.111145 S    
C44   C56   1.423204 A    
C4    C32   1.535592 S    
C2    H6    1.113667 S    
C53   C57   1.401289 A    
C66   C70   1.424152 A    
C35   C39   1.413576 A    
O1    Ba1   2.869780 S    
C22   H42   1.104841 S    
N8    O63   1.299841 A    
P3    C55   1.880659 S    
C75   C77   1.390637 A    
C61   C65   1.422519 A    
C8    H12   1.108731 S    
C42   C46   1.405522 A    
C19   H39   1.112310 S    
O11   P16   1.735131 S    
O14   P13   1.545579 D    
O28   Ba4   2.872163 S    
C58   H86   1.081814 S    
O30   Ba2   2.770826 S    
O10   P13   1.732750 S    
O21   C29   1.408389 S    
C31   H63   1.110427 S    
C99   H93   1.106528 S    
C19   C103  1.541040 S    
O4    Ba4   2.866983 S    
P11   O31   1.737115 S    
C18   H34   1.111358 S    
P12   O32   1.734968 S    
C44   C88   1.424398 A    
C71   C85   1.427910 A    
P4    Ba4   3.424770 S    
O40   C15   1.397023 S    
C26   H50   1.110812 S    
C83   C91   1.412830 A    
C103  H113  1.109697 S    
C66   C74   1.404548 A    
P10   C33   1.859164 S    
C107  C108  1.526112 S    
C16   H32   1.108726 S    
C20   C106  1.545385 S    
C38   C50   1.403867 A    
C7    H11   1.112443 S    
C35   C95   1.403012 A    
C108  H115  1.102402 S    
C22   H46   1.110566 S    
O17   C21   1.398517 S    
C3    C31   1.533293 S    
C84   C92   1.412397 A    
C30   H62   1.111553 S    
C60   H88   1.081963 S    
C9    H65   1.109113 S    
C34   C94   1.404520 A    
C21   C25   1.519990 S    
O2    Ba2   2.866983 S    
H3    C31   1.114139 S    
P1    C53   1.878122 S    
H4    C32   1.110671 S    
