data_mof_unit_27822.cif
_audit_creation_date              2012-12-11T15:27:32-0500
_audit_creation_method            fapswitch 2.2
_symmetry_space_group_name_H-M    P1
_symmetry_Int_Tables_number       1
_space_group_crystal_system       triclinic
_cell_length_a                    23.265596
_cell_length_b                    7.301859
_cell_length_c                    15.141956
_cell_angle_alpha                 90.422595
_cell_angle_beta                  108.292482
_cell_angle_gamma                 89.492349
_cell_volume                      2442.2335657

loop_
_atom_site_label
_atom_site_type_symbol
_atom_type_description
_atom_site_fract_x
_atom_site_fract_y
_atom_site_fract_z
_atom_type_partial_charge
O1    O     O_R   0.711000 0.648610 0.341170 -0.535452
O2    O     O_R   0.289000 0.351390 0.658830 -0.535452
O3    O     O_R   0.789000 0.148610 0.158830 -0.535966
O4    O     O_R   0.211000 0.851390 0.841170 -0.535966
O5    O     O_R   0.829650 0.322030 0.336650 -0.537615
O6    O     O_R   0.170350 0.677970 0.663350 -0.537615
O7    O     O_R   0.670350 0.822030 0.163350 -0.536883
O8    O     O_R   0.329650 0.177970 0.836650 -0.536883
C1    C     C_R   0.854283 0.485520 0.356774 0.717310
C2    C     C_R   0.145717 0.514480 0.643226 0.717309
C3    C     C_R   0.645720 0.986070 0.143224 0.717882
C4    C     C_R   0.354279 0.013929 0.856776 0.717882
O9    O     O_R   0.713950 0.319280 0.352070 -0.539834
O10   O     O_R   0.286050 0.680720 0.647930 -0.539835
O11   O     O_R   0.786050 0.819280 0.147930 -0.539362
O12   O     O_R   0.213950 0.180720 0.852070 -0.539362
O13   O     O_R   0.672470 0.142870 0.174360 -0.533677
O14   O     O_R   0.327530 0.857130 0.825640 -0.533677
O15   O     O_R   0.827530 0.642870 0.325640 -0.533005
O16   O     O_R   0.172470 0.357130 0.674360 -0.533005
C5    C     C_R   0.701901 0.488485 0.375955 0.682265
C6    C     C_R   0.298098 0.511515 0.624044 0.682266
C7    C     C_R   0.798132 0.986551 0.124010 0.682424
C8    C     C_R   0.201868 0.013449 0.875990 0.682424
O17   O     O_3   0.736530 0.478650 0.191680 -0.378331
O18   O     O_3   0.263470 0.521350 0.808320 -0.378331
O19   O     O_3   0.763470 0.978650 0.308320 -0.378709
O20   O     O_3   0.236530 0.021350 0.691680 -0.378709
V1    V     V_3+5 0.752500 0.206170 0.260820 1.425602
V2    V     V_3+5 0.247500 0.793830 0.739180 1.425602
V3    V     V_3+5 0.747500 0.706170 0.239180 1.428437
V4    V     V_3+5 0.252500 0.293830 0.760820 1.428437
C9    C     C_R   0.827552 0.989988 0.052042 -0.025156
C10   C     C_R   0.172448 0.010012 0.947957 -0.025156
C11   C     C_R   0.672380 0.501649 0.447647 -0.025927
C12   C     C_R   0.327620 0.498351 0.552353 -0.025927
C13   C     C_R   0.823530 0.940930 0.892616 -0.161267
C14   C     C_R   0.176470 0.059071 0.107384 -0.161267
C15   C     C_R   0.675295 0.588083 0.602927 -0.161126
C16   C     C_R   0.324705 0.411917 0.397073 -0.161126
C17   C     C_R   0.794281 0.953581 0.959676 -0.171278
C18   C     C_R   0.205719 0.046419 0.040324 -0.171278
C19   C     C_R   0.704894 0.560252 0.537114 -0.171442
C20   C     C_R   0.295106 0.439748 0.462886 -0.171442
C21   C     C_R   0.890181 0.013179 0.077746 -0.210961
C22   C     C_R   0.109820 0.986821 0.922254 -0.210961
C23   C     C_R   0.610171 0.471255 0.423567 -0.211139
C24   C     C_R   0.389829 0.528745 0.576433 -0.211139
C25   C     C_R   0.921425 0.996445 0.011506 0.082367
C26   C     C_R   0.078575 0.003555 0.988494 0.082367
C27   C     C_R   0.578529 0.502714 0.488329 0.082031
C28   C     C_R   0.421471 0.497286 0.511671 0.082031
C29   C     C_R   0.886611 0.960328 0.917745 0.140261
C30   C     C_R   0.113389 0.039673 0.082254 0.140261
C31   C     C_R   0.612569 0.561539 0.579185 0.139792
C32   C     C_R   0.387431 0.438461 0.420815 0.139792
C33   C     C_R   0.985816 0.010944 0.035380 0.058359
C34   C     C_R   0.014184 0.989057 0.964620 0.058359
C35   C     C_R   0.514433 0.481081 0.465547 0.058111
C36   C     C_R   0.485567 0.518919 0.534453 0.058111
C37   C     C_R   0.977213 0.954348 0.872363 -0.186457
C38   C     C_R   0.022787 0.045652 0.127637 -0.186457
C39   C     C_R   0.521773 0.576227 0.623881 -0.186500
C40   C     C_R   0.478227 0.423774 0.376119 -0.186500
C41   C     C_R   0.914873 0.940867 0.849744 -0.200785
C42   C     C_R   0.085126 0.059133 0.150256 -0.200785
C43   C     C_R   0.583846 0.596386 0.645496 -0.200526
C44   C     C_R   0.416154 0.403614 0.354504 -0.200526
H1    H     H_    0.888495 0.913266 0.778065 0.123144
H2    H     H_    0.111505 0.086735 0.221935 0.123144
H3    H     H_    0.609625 0.641419 0.714943 0.123137
H4    H     H_    0.390375 0.358581 0.285057 0.123137
H5    H     H_    0.087058 0.961646 0.849552 0.097536
H6    H     H_    0.912942 0.038353 0.150448 0.097536
H7    H     H_    0.412037 0.571332 0.647076 0.097866
H8    H     H_    0.587963 0.428668 0.352924 0.097866
H9    H     H_    0.796923 0.912398 0.821181 0.112111
H10   H     H_    0.203077 0.087602 0.178819 0.112111
H11   H     H_    0.701299 0.633847 0.672094 0.112311
H12   H     H_    0.298701 0.366153 0.327905 0.112311
H13   H     H_    0.994822 0.935910 0.815153 0.124901
H14   H     H_    0.005178 0.064091 0.184846 0.124901
H15   H     H_    0.503744 0.607811 0.679529 0.125072
H16   H     H_    0.496256 0.392189 0.320471 0.125072
C45   C     C_1   0.416774 0.006320 0.918720 -0.191279
C46   C     C_1   0.583225 0.993680 0.081280 -0.191280
C47   C     C_1   0.083219 0.507643 0.581252 -0.191270
C48   C     C_1   0.916781 0.492357 0.418747 -0.191270
C49   C     C_1   0.469146 0.002076 0.969950 0.001396
C50   C     C_1   0.530854 0.997924 0.030050 0.001396
C51   C     C_1   0.030854 0.502731 0.530038 0.001295
C52   C     C_1   0.969146 0.497268 0.469962 0.001295
H17   H     H_    0.254198 0.066759 0.060208 0.104819
H18   H     H_    0.745802 0.933242 0.939791 0.104818
H19   H     H_    0.246979 0.413885 0.444415 0.105518
H20   H     H_    0.753020 0.586115 0.555585 0.105518

loop_
_geom_bond_atom_site_label_1
_geom_bond_atom_site_label_2
_ccdc_geom_bond_type
O17   V3    S    
O1    C5    A    
C47   C51   T    
O19   V1    S    
C18   H17   S    
C9    C21   A    
O3    C7    A    
C10   C18   A    
O15   V3    S    
C25   C33   A    
C33   C38   A    
O18   V4    S    
C35   C40   A    
C26   C30   A    
C4    C45   S    
C36   C39   A    
C40   C44   A    
O9    V1    S    
C23   H8    S    
C14   C18   A    
C1    C48   S    
O4    C8    A    
C25   C29   A    
C3    C46   S    
O1    V3    S    
O13   V1    S    
O2    V4    S    
O3    V1    S    
C40   H16   S    
C28   C36   A    
C1    O15   A    
C15   C31   A    
C48   C52   T    
C2    O16   A    
C7    C9    S    
O2    C6    A    
C16   H12   S    
C10   C22   A    
C11   C19   A    
C16   C20   A    
C43   H3    S    
C44   H4    S    
C13   C29   A    
C34   C37   A    
O11   C7    A    
C38   H14   S    
C11   C23   A    
C35   C36   A    
O12   C8    A    
C24   H7    S    
O10   V2    S    
O5    V1    S    
C39   C43   A    
C2    C47   S    
O7    V3    S    
C38   C42   A    
O8    V4    S    
C46   C50   T    
C51   C52   S    
C45   C49   T    
C23   C27   A    
C14   H10   S    
C16   C32   A    
C32   C44   A    
C13   H9    S    
C8    C10   S    
C39   H15   S    
C21   H6    S    
C26   C34   A    
O7    C3    A    
O5    C1    A    
C31   C43   A    
C17   H18   S    
C14   C30   A    
C21   C25   A    
O8    C4    A    
C19   H20   S    
O9    C5    A    
O14   V2    S    
O6    V2    S    
C12   C20   A    
C27   C35   A    
C29   C41   A    
O16   V4    S    
C3    O13   A    
O6    C2    A    
C15   C19   A    
O11   V3    S    
C30   C42   A    
O12   V4    S    
C6    C12   S    
C22   C26   A    
C9    C17   A    
O10   C6    A    
O20   V2    S    
C5    C11   S    
C20   H19   S    
C37   H13   S    
C33   C34   A    
C42   H2    S    
C41   H1    S    
C12   C24   A    
C27   C31   A    
C13   C17   A    
C37   C41   A    
C24   C28   A    
C4    O14   A    
C49   C50   S    
C22   H5    S    
O4    V2    S    
C28   C32   A    
C15   H11   S    
