data_mof_unit_46874.cif
_audit_creation_date              2012-12-10T20:34:56-0500
_audit_creation_method            fapswitch 2.2
_symmetry_space_group_name_H-M    P1
_symmetry_Int_Tables_number       1
_space_group_crystal_system       triclinic
_cell_length_a                    10.635085
_cell_length_b                    10.690133
_cell_length_c                    9.887041
_cell_angle_alpha                 89.253249
_cell_angle_beta                  90.571218
_cell_angle_gamma                 90.831739
_cell_volume                      1123.794703

loop_
_atom_site_label
_atom_site_type_symbol
_atom_type_description
_atom_site_fract_x
_atom_site_fract_y
_atom_site_fract_z
_atom_type_partial_charge
Br1   Br    Br    0.717048 0.664174 0.845458 -0.563657
Br2   Br    Br    0.866298 0.293354 0.294337 -0.593091
C1    C     C_R   0.504799 0.259857 0.500450 0.883264
C2    C     C_R   0.544345 0.933939 0.618706 0.206810
C3    C     C_3   0.472281 0.922223 0.747117 -0.454031
C4    C     C_R   0.257895 0.496204 0.499329 0.866723
C5    C     C_3   0.471921 0.063505 0.748433 -0.527175
C6    C     C_R   0.397406 0.457350 0.070798 0.199515
C7    C     C_R   0.592317 0.559305 0.073236 -0.146932
C8    C     C_R   0.591357 0.561895 0.929846 0.284440
C9    C     C_R   0.397261 0.457480 0.928626 0.161969
C10   C     C_3   0.338890 0.330385 0.925262 -0.505757
C11   C     C_3   0.338924 0.330354 0.078871 -0.476880
C12   C     C_3   0.878380 0.493912 0.498598 -0.038595
C13   C     C_R   0.505043 0.739916 0.499130 0.911175
C14   C     C_R   0.742094 0.496799 0.500111 0.940528
C15   C     C_3   0.071544 0.394961 0.600795 -0.408940
C16   C     C_3   0.926932 0.393082 0.600514 -0.449714
C17   C     C_3   0.076935 0.626810 0.536301 -0.501494
C18   C     C_3   0.070784 0.462291 0.354814 -0.418442
C19   C     C_3   0.121681 0.494930 0.497920 0.075976
C20   C     C_3   0.875926 0.754061 0.358467 0.064998
C21   C     C_3   0.874034 0.894693 0.328986 -0.303993
C22   C     C_3   0.854982 0.921787 0.178241 -0.894592
C23   C     C_3   0.932881 0.623464 0.547383 0.312850
C24   C     C_3   0.927378 0.457893 0.354855 0.120049
C25   C     C_R   0.544185 0.061801 0.619867 0.132070
C26   C     C_R   0.527153 0.128562 0.499383 -0.105989
C27   C     C_R   0.536479 0.066574 0.375396 -0.187208
C28   C     C_R   0.535872 0.937240 0.374362 -0.262829
C29   C     C_R   0.527522 0.871223 0.497384 -0.107079
H1    H     H_    0.105887 0.416544 0.704636 0.187343
H2    H     H_    0.667226 0.606014 0.128489 0.159692
H3    H     H_    0.106409 0.300713 0.574552 0.183960
H4    H     H_    0.243037 0.330339 0.879719 0.199796
H5    H     H_    0.403876 0.262069 0.883755 0.214784
H6    H     H_    0.242876 0.332039 0.121873 0.204103
H7    H     H_    0.402552 0.259823 0.125136 0.212657
H8    H     H_    0.890669 0.298204 0.574963 0.228081
H9    H     H_    0.893653 0.411744 0.704665 0.200320
H10   H     H_    0.118922 0.654771 0.635336 0.171002
H11   H     H_    0.915798 0.624681 0.658041 0.188555
H12   H     H_    0.892550 0.522689 0.275190 0.126627
H13   H     H_    0.102896 0.533596 0.279080 0.159294
H14   H     H_    0.108800 0.370799 0.323516 0.209466
H15   H     H_    0.790512 0.710694 0.312629 0.161681
H16   H     H_    0.960934 0.716753 0.310141 0.121085
H17   H     H_    0.797054 0.938113 0.386134 0.258841
H18   H     H_    0.964442 0.937807 0.363168 0.227362
H19   H     H_    0.931999 0.880456 0.119168 0.265164
H20   H     H_    0.855220 0.024421 0.159845 0.299961
H21   H     H_    0.763323 0.882334 0.142980 0.262633
H22   H     H_    0.110491 0.697693 0.461390 0.174110
H23   H     H_    0.534394 0.116515 0.279424 0.184371
H24   H     H_    0.533111 0.890108 0.278014 0.181059
H25   H     H_    0.377043 0.879784 0.732626 0.198368
H26   H     H_    0.528949 0.880765 0.830923 0.237923
H27   H     H_    0.376140 0.102284 0.734245 0.205028
H28   H     H_    0.529403 0.102245 0.832961 0.215665
N1    N     N_R   0.499150 0.499140 0.142800 -0.121469
N2    N     N_R   0.499150 0.499180 0.857150 -0.129606
O1    O     O_R   0.500020 0.316790 0.614690 -0.622279
O2    O     O_R   0.500000 0.316760 0.385350 -0.610213
O3    O     O_R   0.314800 0.500000 0.614670 -0.628476
O4    O     O_R   0.314790 0.499960 0.385330 -0.628950
O5    O     O_R   0.500000 0.683240 0.614650 -0.586108
O6    O     O_R   0.499980 0.683210 0.385310 -0.636716
O7    O     O_R   0.685210 0.500040 0.614670 -0.583538
O8    O     O_R   0.685200 0.500000 0.385330 -0.619018
O9    O     O_3   0.872703 0.734235 0.499927 -0.626417
Zn1   Zn    Zn3+2 0.500010 0.500020 0.653130 0.982279
Zn2   Zn    Zn3+2 0.499990 0.499980 0.346870 0.957611

loop_
_geom_bond_atom_site_label_1
_geom_bond_atom_site_label_2
_ccdc_geom_bond_type
C23   H11   S    
O1    Zn1   S    
O8    Zn2   S    
C9    C10   S    
C13   C29   S    
C6    C11   S    
C14   O7    A    
C1    O2    A    
C10   H5    S    
O4    Zn2   S    
C7    C8    A    
C12   C16   S    
C3    H25   S    
C11   H6    S    
O5    Zn1   S    
C3    H26   S    
C21   C22   S    
C7    N1    A    
C13   O6    A    
N2    Zn1   S    
C22   H20   S    
C15   C16   S    
Br2   C24   S    
C6    N1    A    
C10   H4    S    
C7    H2    S    
C13   O5    A    
C17   H22   S    
C11   H7    S    
C27   C28   A    
C14   O8    A    
C18   C24   S    
C9    N2    A    
C6    C9    A    
C23   O9    S    
C15   H1    S    
C5    H28   S    
C26   C27   A    
C18   H13   S    
C24   H12   S    
C20   H16   S    
C22   H21   S    
O7    Zn1   S    
C12   C23   S    
C22   H19   S    
C28   C29   A    
C17   C23   S    
C12   C14   S    
O2    Zn2   S    
C21   H18   S    
C8    N2    A    
C15   H3    S    
N1    Zn2   S    
O3    Zn1   S    
C2    C29   A    
C17   H10   S    
C2    C25   A    
C5    C25   S    
C10   C11   S    
O6    Zn2   S    
C27   H23   S    
C1    O1    A    
C4    O3    A    
C25   C26   A    
C3    C5    S    
C16   H8    S    
C16   H9    S    
C20   C21   S    
C1    C26   S    
C21   H17   S    
C5    H27   S    
C20   H15   S    
C18   C19   S    
C4    C19   S    
C28   H24   S    
C20   O9    S    
C4    O4    A    
C12   C24   S    
Br1   C8    S    
C18   H14   S    
C2    C3    S    
C17   C19   S    
C15   C19   S    
