data_mof_unit_63459.cif
_audit_creation_date              2012-10-26T20:09:00-0400
_audit_creation_method            fapswitch 2.2
_symmetry_space_group_name_H-M    P1
_symmetry_Int_Tables_number       1
_space_group_crystal_system       triclinic
_cell_length_a                    12.748172
_cell_length_b                    13.910044
_cell_length_c                    15.901833
_cell_angle_alpha                 90.219718
_cell_angle_beta                  92.84207
_cell_angle_gamma                 97.975824
_cell_volume                      2788.95882323

loop_
_atom_site_label
_atom_site_type_symbol
_atom_type_description
_atom_site_fract_x
_atom_site_fract_y
_atom_site_fract_z
_atom_type_partial_charge
C1    C     C_R   0.483530 0.315846 0.498989 0.543876
C2    C     C_2   0.540207 0.978008 0.503293 -0.100102
C3    C     C_2   0.453285 0.021677 0.494845 0.110254
C4    C     C_R   0.500552 0.500104 0.339966 0.553305
C5    C     C_1   0.464321 0.125529 0.496408 -0.016641
C6    C     C_1   0.533157 0.874331 0.502434 0.001363
C7    C     C_1   0.473844 0.212570 0.497721 -0.008970
C8    C     C_2   0.028421 0.474618 0.474903 -0.154146
C9    C     C_2   0.971598 0.525658 0.524334 -0.152031
C10   C     C_1   0.854572 0.518873 0.517145 0.149530
C11   C     C_1   0.145434 0.481224 0.482467 0.166018
C12   C     C_3   0.389475 0.457488 0.946912 -0.199405
C13   C     C_R   0.516443 0.684145 0.500885 0.552285
C14   C     C_R   0.499462 0.499963 0.660092 0.546435
C15   C     C_3   0.392015 0.451285 0.044207 0.000146
C16   C     C_3   0.586217 0.438380 0.051680 -0.132431
C17   C     C_3   0.584304 0.438495 0.953293 -0.224861
C18   C     C_1   0.498483 0.499879 0.749605 -0.015595
C19   C     C_3   0.501781 0.500975 0.083102 0.066216
C20   C     C_R   0.697365 0.463622 0.094070 0.025439
C21   C     C_R   0.726173 0.409556 0.164242 -0.085089
C22   C     C_R   0.826260 0.431016 0.205325 -0.094110
C23   C     C_3   0.500068 0.500075 0.917154 0.005319
C24   C     C_R   0.899389 0.506349 0.176848 -0.078203
C25   C     C_R   0.872470 0.560487 0.107321 -0.088798
C26   C     C_R   0.772346 0.539583 0.066131 -0.093794
C27   C     C_3   0.526747 0.605339 0.951643 -0.201717
C28   C     C_3   0.529364 0.606451 0.049198 0.007820
C29   C     C_1   0.498828 0.499908 0.825065 -0.063530
C30   C     C_1   0.501782 0.500819 0.175211 0.000108
C31   C     C_1   0.501659 0.500510 0.250591 0.018942
C32   C     C_1   0.525675 0.787383 0.501680 0.023587
Cu1   Cu    Cu3+1 0.395330 0.493960 0.494700 1.040683
Cu2   Cu    Cu3+1 0.604670 0.506040 0.505300 1.002992
H1    H     H_    0.364705 0.383792 0.919058 0.119003
H2    H     H_    0.662991 0.465602 0.928999 0.133787
H3    H     H_    0.610515 0.636154 0.073107 0.132758
H4    H     H_    0.466662 0.649706 0.925927 0.165465
H5    H     H_    0.670610 0.351102 0.187872 0.104273
H6    H     H_    0.847058 0.389217 0.259401 0.115200
H7    H     H_    0.976896 0.522817 0.208687 0.144081
H8    H     H_    0.929272 0.618923 0.085305 0.137047
H9    H     H_    0.754275 0.583221 0.012676 0.097939
H10   H     H_    0.329778 0.503950 0.924313 0.169555
H11   H     H_    0.604923 0.639016 0.929880 0.108422
H12   H     H_    0.618314 0.020585 0.511198 0.113181
H13   H     H_    0.013411 0.574299 0.572275 0.139117
H14   H     H_    0.986658 0.426013 0.426901 0.124689
H15   H     H_    0.383020 0.372978 0.060787 0.123040
H16   H     H_    0.558816 0.361737 0.069084 0.106660
H17   H     H_    0.564274 0.362504 0.929309 0.123572
I1    I     I_    0.250368 0.493600 0.093995 -0.358329
I2    I     I_    0.297593 0.944488 0.479062 -0.313840
I3    I     I_    0.440969 0.715076 0.096152 -0.325948
N1    N     N_1   0.238030 0.484880 0.486720 -0.175339
N2    N     N_1   0.761970 0.515120 0.513270 -0.182550
O1    O     O_R   0.399110 0.356330 0.494870 -0.485137
O2    O     O_R   0.575900 0.366540 0.503830 -0.497298
O3    O     O_R   0.411570 0.494900 0.374960 -0.472920
O4    O     O_R   0.588350 0.505100 0.383910 -0.498166
O5    O     O_R   0.424100 0.633460 0.496170 -0.476124
O6    O     O_R   0.600890 0.643670 0.505130 -0.492910
O7    O     O_R   0.411650 0.494900 0.616090 -0.492313
O8    O     O_R   0.588430 0.505100 0.625040 -0.491812

loop_
_geom_bond_atom_site_label_1
_geom_bond_atom_site_label_2
_ccdc_geom_bond_type
C25   H8    S    
Cu1   N1    S    
C6    C32   T    
C24   C25   A    
C8    H14   S    
Cu2   N2    S    
C19   C28   S    
C17   H2    S    
C1    O1    A    
C10   N2    T    
C9    C10   S    
C14   C18   S    
C13   C32   S    
C21   H5    S    
C12   C15   S    
Cu1   O7    S    
C16   C20   S    
C11   N1    T    
C14   O8    A    
C21   C22   A    
C4    O4    A    
Cu2   O8    S    
C2    C3    D    
C25   C26   A    
C22   H6    S    
Cu1   O3    S    
C18   C29   T    
C2    C6    S    
C1    O2    A    
C2    H12   S    
C12   H1    S    
Cu2   O4    S    
C24   H7    S    
C3    I2    S    
C12   C23   S    
C17   H17   S    
C17   C23   S    
C20   C26   A    
C28   H3    S    
C16   C19   S    
C14   O7    A    
C23   C29   S    
C4    O3    A    
Cu1   O5    S    
C16   H16   S    
C26   H9    S    
Cu1   Cu2   S    
C23   C27   S    
C15   H15   S    
C30   C31   T    
C22   C24   A    
C9    H13   S    
C27   H11   S    
C8    C11   S    
C27   H4    S    
C4    C31   S    
Cu2   O6    S    
C13   O5    A    
C20   C21   A    
C12   H10   S    
C27   C28   S    
Cu2   O2    S    
C28   I3    S    
C5    C7    T    
C8    C9    D    
Cu1   O1    S    
C1    C7    S    
C15   I1    S    
C15   C19   S    
C19   C30   S    
C13   O6    A    
C16   C17   S    
C3    C5    S    
