data_mof_unit_32977.cif
_audit_creation_date              2013-03-05T15:48:57-0500
_audit_creation_method            fapswitch 2.2
_symmetry_space_group_name_H-M    P1
_symmetry_Int_Tables_number       1
_space_group_crystal_system       triclinic
_cell_length_a                    8.346137
_cell_length_b                    18.74348
_cell_length_c                    18.941005
_cell_angle_alpha                 98.852563
_cell_angle_beta                  94.330228
_cell_angle_gamma                 91.390981
_cell_volume                      2917.45605074

loop_
_atom_site_label
_atom_site_type_symbol
_atom_site_description
_atom_site_fract_x
_atom_site_fract_y
_atom_site_fract_z
_atom_type_partial_charge
P1    P     P_3+3 0.947550 0.663200 0.567530 0.460174
O1    O     O_2   0.118870 0.674530 0.547560 -0.381291
O2    O     O_3   0.870460 0.585330 0.542110 -0.405534
O3    O     O_3   0.354280 0.631750 0.418430 -0.391138
O4    O     O_2   0.253952 0.758364 0.475069 -0.343803
O5    O     O_3   0.955920 0.688125 0.660934 -0.565116
O6    O     O_3   0.312508 0.748228 0.340615 -0.478198
H1    H     H_    0.285272 0.642725 0.287704 0.148754
C1    C     C_3   0.317164 0.716834 0.213710 -0.910722
H2    H     H_    0.186449 0.724218 0.204066 0.295767
H3    H     H_    0.381210 0.768788 0.211195 0.257923
P2    P     P_3+3 0.354660 0.445020 0.336980 0.478666
P3    P     P_3+3 0.906062 0.593783 0.287953 0.447858
O7    O     O_2   0.180880 0.466650 0.327890 -0.400703
O8    O     O_3   0.939000 0.596010 0.380670 -0.346688
O9    O     O_2   0.031939 0.544150 0.252245 -0.412201
O10   O     O_3   0.360172 0.352004 0.307726 -0.554030
O11   O     O_3   0.959661 0.679203 0.268400 -0.552851
C2    C     C_3   0.841560 0.729771 0.287355 0.911099
H4    H     H_    0.756855 0.711526 0.324242 -0.093508
C3    C     C_3   0.744724 0.743334 0.218973 -1.042799
H5    H     H_    0.826709 0.759479 0.180111 0.285822
H6    H     H_    0.674838 0.693963 0.193366 0.220797
C4    C     C_3   0.795702 0.380782 0.310982 0.230454
H7    H     H_    0.677759 0.397631 0.329211 0.129079
H8    H     H_    0.886172 0.425723 0.328038 0.126892
C5    C     C_3   0.781347 0.363021 0.229351 -0.613581
H9    H     H_    0.692622 0.317240 0.212389 0.275135
H10   H     H_    0.737309 0.410222 0.206141 0.174553
Ba1   Ba    Ba6+2 0.152460 0.535140 0.468980 1.566521
C6    C     C_3   0.061344 0.647271 0.697615 0.347427
H11   H     H_    0.151254 0.620700 0.663370 0.049460
C7    C     C_3   0.150847 0.697953 0.760058 -0.720623
H12   H     H_    0.221301 0.739855 0.739160 0.228739
H13   H     H_    0.234016 0.667270 0.791675 0.201543
H14   H     H_    0.064725 0.725785 0.795999 0.281616
C8    C     C_3   0.260501 0.312369 0.344455 0.285638
H15   H     H_    0.136268 0.331313 0.340029 0.090341
H16   H     H_    0.307321 0.317195 0.401511 0.100904
C9    C     C_3   0.264158 0.233622 0.308283 -0.631620
H17   H     H_    0.242686 0.231021 0.249271 0.231521
H18   H     H_    0.385601 0.212778 0.319511 0.213772
P4    P     P_3+3 0.862750 0.336790 0.432410 0.451904
O12   O     O_2   0.691430 0.325420 0.452420 -0.342648
O13   O     O_3   0.939830 0.414660 0.457830 -0.396140
O14   O     O_3   0.456020 0.368240 0.581510 -0.313250
O15   O     O_3   0.839240 0.318488 0.338801 -0.587217
P5    P     P_3+3 0.905475 0.399157 0.710564 0.513054
O16   O     O_3   0.374170 0.535780 0.585810 -0.397258
O17   O     O_3   0.871300 0.403980 0.619270 -0.419796
O18   O     O_2   0.774972 0.444129 0.748473 -0.272000
O19   O     O_3   0.865731 0.309882 0.723602 -0.489787
Ba2   Ba    Ba6+2 0.657710 0.464850 0.530960 1.596647
P6    P     P_3+3 0.377142 0.724998 0.424003 0.480579
C10   C     C_3   0.355213 0.693652 0.286511 0.491479
H19   H     H_    0.485593 0.683581 0.292675 -0.003233
H20   H     H_    0.355007 0.674884 0.170891 0.205992
O20   O     O_3   0.436130 0.464210 0.414140 -0.377225
C11   C     C_3   0.520694 0.683691 0.640079 0.264798
H21   H     H_    0.640141 0.663316 0.627158 0.104864
H22   H     H_    0.434279 0.670092 0.591978 0.084316
C12   C     C_3   0.533004 0.766171 0.659323 -0.121245
H23   H     H_    0.568028 0.789457 0.612112 0.049472
H24   H     H_    0.413232 0.786525 0.672023 0.096741
P7    P     P_3+3 0.451909 0.559758 0.674927 0.479177
O21   O     O_2   0.629420 0.533310 0.672080 -0.330093
O22   O     O_3   0.466556 0.653847 0.697910 -0.564901
H25   H     H_    0.659574 0.787055 0.232107 0.254438
C13   C     C_3   0.873241 0.263574 0.657752 0.583571
H26   H     H_    0.776564 0.274456 0.618071 0.151359
H27   H     H_    0.986557 0.272478 0.633650 -0.016317
C14   C     C_3   0.860741 0.184296 0.668574 -0.884252
H28   H     H_    0.744301 0.158300 0.644809 0.239566
H29   H     H_    0.956836 0.153258 0.642237 0.228565
H30   H     H_    0.875324 0.179304 0.726289 0.296445
P8    P     P_3+3 0.428401 0.274113 0.574967 0.434423
C15   C     C_3   0.449122 0.256841 0.716980 0.698893
O23   O     O_2   0.537062 0.243283 0.516230 -0.401363
O24   O     O_3   0.516896 0.239426 0.650012 -0.616436
H31   H     H_    0.452040 0.142645 0.730569 0.224092
C16   C     C_3   0.495671 0.196130 0.760556 -0.794596
H32   H     H_    0.443687 0.204390 0.813438 0.251106
H33   H     H_    0.627849 0.195117 0.770778 0.253437
C17   C     C_R   0.996161 0.951238 0.533787 0.028239
C18   C     C_R   0.090192 0.903421 0.568329 0.115732
C19   C     C_R   0.244239 0.926438 0.599678 -0.149106
C20   C     C_R   0.304590 0.996036 0.596778 -0.173933
C21   C     C_R   0.210539 0.044681 0.563978 0.125674
C22   C     C_R   0.055507 0.022544 0.532601 0.019426
C23   C     C_R   0.269069 0.115183 0.563019 -0.225229
C24   C     C_R   0.172538 0.166200 0.534254 0.021671
C25   C     C_R   0.017510 0.143760 0.501088 0.052294
C26   C     C_R   0.960455 0.071455 0.499879 -0.002614
C27   C     C_R   0.225064 0.239213 0.538368 0.169434
C28   C     C_R   0.124528 0.288209 0.510212 -0.505705
C29   C     C_R   0.975168 0.266670 0.474047 0.202551
C30   C     C_R   0.920266 0.193083 0.468527 -0.058027
C31   C     C_R   0.843036 0.927964 0.500830 0.022204
C32   C     C_R   0.786608 0.855509 0.499249 0.046196
C33   C     C_R   0.884018 0.806337 0.532054 -0.002496
C34   C     C_R   0.030961 0.832963 0.569967 -0.095974
H34   H     H_    0.319152 0.890339 0.625756 0.129759
H35   H     H_    0.424414 0.012099 0.620990 0.139799
H36   H     H_    0.166385 0.343887 0.514129 0.180198
H37   H     H_    0.389804 0.129489 0.585865 0.174278
H38   H     H_    0.103878 0.799031 0.599479 0.151539
C35   C     C_R   0.772748 0.166725 0.431107 -0.133374
C36   C     C_R   0.713539 0.096156 0.432500 0.097392
C37   C     C_R   0.807201 0.048286 0.467109 0.021757
C38   C     C_R   0.748255 0.976767 0.467784 0.037655
C39   C     C_R   0.560676 0.072810 0.400075 -0.132925
C40   C     C_R   0.500987 0.002816 0.401964 -0.142057
C41   C     C_R   0.594522 0.954145 0.435054 0.101795
C42   C     C_R   0.633349 0.832472 0.464536 -0.023331
C43   C     C_R   0.537381 0.883049 0.434611 -0.210497
C44   C     C_R   0.581768 0.759294 0.460000 0.143196
C45   C     C_R   0.684585 0.710009 0.486857 -0.520901
C46   C     C_R   0.833123 0.732035 0.524111 0.299689
H39   H     H_    0.700986 0.200588 0.401022 0.173092
H40   H     H_    0.486891 0.108919 0.373486 0.170750
H41   H     H_    0.382202 0.986465 0.376690 0.176590
H42   H     H_    0.418710 0.867620 0.409322 0.200090
H43   H     H_    0.643986 0.654115 0.482364 0.176011
C47   C     C_R   0.603954 0.533531 0.302359 -0.518236
C48   C     C_R   0.458837 0.496284 0.277601 0.323444
C49   C     C_R   0.405604 0.488822 0.204809 -0.188153
C50   C     C_R   0.502991 0.513490 0.155376 0.063729
C51   C     C_R   0.653037 0.547863 0.180766 -0.320346
C52   C     C_R   0.703036 0.557851 0.254123 0.210934
C53   C     C_R   0.456279 0.563667 0.041742 -0.187801
C54   C     C_R   0.402274 0.558668 0.969491 -0.132720
C55   C     C_R   0.338680 0.493059 0.930546 0.173764
C56   C     C_R   0.330035 0.432519 0.965557 -0.221699
C57   C     C_R   0.386744 0.436143 0.037920 -0.061167
C58   C     C_R   0.449121 0.503289 0.077384 0.134067
C59   C     C_R   0.147783 0.446096 0.822698 -0.173958
C60   C     C_R   0.103383 0.438986 0.748951 0.208201
C61   C     C_R   0.337196 0.513059 0.734104 0.322572
C62   C     C_R   0.380834 0.521079 0.807680 -0.182937
C63   C     C_R   0.288174 0.486645 0.852686 0.043387
C64   C     C_R   0.201710 0.470288 0.704764 -0.475902
H44   H     H_    0.488390 0.552913 0.829268 0.153015
H45   H     H_    0.408888 0.606573 0.944204 0.132536
H46   H     H_    0.502699 0.615470 0.070236 0.133778
H47   H     H_    0.291390 0.461040 0.186274 0.137042
H48   H     H_    0.285365 0.381129 0.935284 0.135997
H49   H     H_    0.070432 0.422184 0.856788 0.151025
H50   H     H_    0.732454 0.565109 0.143483 0.164245
H51   H     H_    0.166995 0.465041 0.647931 0.152728
H52   H     H_    0.645752 0.538601 0.358454 0.173893
C65   C     C_2   0.940772 0.344142 0.201263 0.666889
H53   H     H_    0.039016 0.384203 0.209365 0.025119
O25   O     O_2   0.960719 0.283957 0.168795 -0.564903
C66   C     C_2   0.963011 0.590580 0.723616 0.538516
H54   H     H_    0.917001 0.545325 0.684617 0.056644
O26   O     O_2   0.933561 0.594381 0.786292 -0.555442
C67   C     C_2   0.137940 0.186510 0.331703 0.541306
H55   H     H_    0.012109 0.198395 0.323278 0.077347
O27   O     O_2   0.175130 0.133250 0.358138 -0.579928
N1    N     N_R   0.649969 0.791510 0.720080 0.286822
O28   O     O_R   0.721370 0.746928 0.757371 -0.311249
O29   O     O_R   0.679359 0.860561 0.738762 -0.372084
C68   C     C_2   0.269100 0.262233 0.711198 0.396429
H56   H     H_    0.217875 0.306363 0.687737 -0.015350
O30   O     O_2   0.181948 0.221175 0.736446 -0.588299
N2    N     N_R   0.518266 0.326104 0.754235 0.237947
O31   O     O_R   0.494994 0.383339 0.724886 -0.380021
O32   O     O_R   0.587152 0.333259 0.819115 -0.375537
N3    N     N_R   0.922543 0.796733 0.324774 0.232230
O33   O     O_R   0.006847 0.795781 0.385075 -0.358891
O34   O     O_R   0.912649 0.857345 0.299303 -0.391514
C69   C     C_2   0.384685 0.367310 0.067424 0.521222
H57   H     H_    0.302357 0.323298 0.042538 0.046341
O35   O     O_2   0.478799 0.357293 0.117033 -0.589088

loop_
_geom_bond_atom_site_label_1
_geom_bond_atom_site_label_2
_geom_bond_distance
_ccdc_geom_bond_type
C15   C68   1.505189 S    
C20   C21   1.403192 A    
C49   C50   1.407492 A    
C31   C38   1.410991 A    
Ba2   O20   2.772906 S    
C5    H10   1.105497 S    
N3    O33   1.298249 A    
Ba1   O13   2.809899 S    
C28   C29   1.395595 A    
C4    C5    1.525622 S    
O6    C10   1.404928 S    
C10   H19   1.109489 S    
C51   C52   1.402983 A    
C32   C42   1.419054 A    
O14   P8    1.757782 S    
C42   C43   1.412518 A    
C64   H51   1.082286 S    
C18   C19   1.403797 A    
C28   H36   1.082222 S    
C68   O30   1.220102 D    
C67   H55   1.083977 S    
C48   C49   1.401093 A    
O16   P7    1.749047 S    
P5    C60   1.845543 S    
C2    C3    1.532547 S    
C4    H8    1.110216 S    
O11   C2    1.411695 S    
C8    C9    1.530689 S    
C60   C64   1.396302 A    
H31   C16   1.111750 S    
C62   H44   1.082830 S    
C7    H14   1.111315 S    
C36   C37   1.408393 A    
P1    O1    1.524574 D    
C13   H27   1.100766 S    
C25   C26   1.421775 A    
C18   C34   1.404512 A    
C12   H24   1.108720 S    
O19   C13   1.412165 S    
C11   O22   1.402849 S    
O12   Ba2   2.832748 S    
P4    Ba2   3.387778 S    
P5    O18   1.545576 D    
C68   H56   1.079847 S    
C55   C56   1.402651 A    
P7    O22   1.749222 S    
P6    C44   1.852228 S    
P2    O10   1.749038 S    
C47   C52   1.396564 A    
C65   H53   1.084132 S    
C6    C7    1.531536 S    
C1    C10   1.521870 S    
C53   H46   1.083061 S    
C1    H2    1.108036 S    
C66   O26   1.222172 D    
C59   C63   1.413011 A    
P2    O20   1.550461 S    
P5    O17   1.747727 S    
O5    C6    1.395484 S    
C45   H43   1.081951 S    
O13   Ba2   2.923498 S    
C11   H21   1.107321 S    
C67   O27   1.220254 D    
C43   H42   1.079749 S    
C57   C69   1.483049 S    
C3    H5    1.111824 S    
N2    O32   1.302899 A    
N3    O34   1.302884 A    
C13   H26   1.105061 S    
O7    Ba1   2.810785 S    
C14   H30   1.109300 S    
H1    C10   1.110853 S    
C35   H39   1.079126 S    
C40   C41   1.403962 A    
C16   H33   1.106676 S    
C49   H47   1.082668 S    
C69   O35   1.218682 D    
C25   C30   1.424805 A    
C16   H32   1.112040 S    
C15   O24   1.423139 S    
Ba1   Ba2   4.594411 S    
C11   H22   1.111580 S    
O17   Ba2   2.741026 S    
P1    O5    1.754557 S    
C9    C67   1.494066 S    
C17   C18   1.408657 A    
C14   H29   1.106475 S    
C24   C25   1.419570 A    
C19   C20   1.397428 A    
C51   H50   1.083068 S    
P2    C48   1.839546 S    
C15   N2    1.461681 S    
C39   H40   1.081319 S    
P1    O2    1.570804 S    
N1    O29   1.300388 A    
O2    Ba1   2.922646 S    
P4    O12   1.524949 D    
C8    H15   1.105490 S    
P4    O13   1.570774 S    
O4    P6    1.542408 D    
C32   C33   1.425790 A    
C15   C16   1.545718 S    
C35   C36   1.405501 A    
C29   C30   1.428636 A    
C12   H23   1.108607 S    
P4    C29   1.869970 S    
O10   C8    1.394396 S    
C4    H7    1.104892 S    
Ba2   O21   2.810929 S    
C1    H3    1.108658 S    
C38   C41   1.408185 A    
C66   H54   1.077544 S    
C20   H35   1.083847 S    
P7    C61   1.833692 S    
P3    O11   1.753123 S    
C9    H17   1.111934 S    
C53   C58   1.406421 A    
C21   C23   1.400922 A    
P7    O21   1.575781 D    
O3    P6    1.739620 S    
C3    H6    1.106669 S    
C3    H25   1.109370 S    
N2    O31   1.294206 A    
C12   N1    1.463724 S    
C33   C46   1.428194 A    
C17   C22   1.418080 A    
C50   C51   1.410372 A    
C19   H34   1.081425 S    
C6    C66   1.491623 S    
C54   H45   1.082877 S    
C69   H57   1.085705 S    
O8    Ba1   2.740362 S    
C34   H38   1.078965 S    
C47   H52   1.082098 S    
C11   C12   1.531861 S    
C5    C65   1.500169 S    
C39   C40   1.398580 A    
P2    Ba1   3.380531 S    
C4    O15   1.397870 S    
Ba1   O16   2.773702 S    
C6    H11   1.106395 S    
C2    N3    1.465313 S    
C23   H37   1.076983 S    
P8    O23   1.540792 D    
C14   H28   1.108116 S    
C61   C64   1.397912 A    
C42   C44   1.415452 A    
C62   C63   1.409251 A    
C57   C58   1.426040 A    
P8    C27   1.848616 S    
C55   C63   1.488651 S    
C36   C39   1.402939 A    
O1    Ba1   2.832234 S    
C17   C31   1.407796 A    
N1    O28   1.301770 A    
C2    H4    1.114128 S    
P3    O8    1.750825 S    
C53   C54   1.396454 A    
P2    O7    1.519859 D    
C40   H41   1.083691 S    
C8    H16   1.110514 S    
C45   C46   1.399517 A    
C24   C27   1.415633 A    
O2    Ba2   2.810505 S    
C23   C24   1.411292 A    
C56   C57   1.406790 A    
O16   Ba2   2.923335 S    
Ba1   O20   2.924189 S    
O14   Ba2   2.767383 S    
C9    H18   1.112404 S    
P1    Ba1   3.387164 S    
C7    H13   1.110761 S    
C7    H12   1.108028 S    
C44   C45   1.402030 A    
C1    H20   1.109164 S    
P1    C46   1.876392 S    
C65   O25   1.220463 D    
C22   C26   1.410629 A    
C27   C28   1.397300 A    
C50   C58   1.493178 S    
C59   H49   1.082856 S    
C61   C62   1.397716 A    
C30   C35   1.411815 A    
P5    O19   1.756032 S    
P8    O24   1.771419 S    
C21   C22   1.407662 A    
C31   C32   1.421730 A    
P3    O9    1.545216 D    
C5    H9    1.111880 S    
P3    C52   1.839357 S    
C59   C60   1.402995 A    
C33   C34   1.412730 A    
C56   H48   1.084385 S    
C13   C14   1.533079 S    
O6    P6    1.752043 S    
C37   C38   1.418936 A    
P4    O15   1.748382 S    
O3    Ba1   2.768055 S    
C54   C55   1.402898 A    
C26   C37   1.407159 A    
C47   C48   1.395217 A    
C41   C43   1.402996 A    
