data_mof_unit_52514.cif
_audit_creation_date              2012-12-10T18:38:31-0500
_audit_creation_method            fapswitch 2.2
_symmetry_space_group_name_H-M    P1
_symmetry_Int_Tables_number       1
_space_group_crystal_system       triclinic
_cell_length_a                    15.815149
_cell_length_b                    15.196708
_cell_length_c                    13.97297
_cell_angle_alpha                 89.501405
_cell_angle_beta                  89.983876
_cell_angle_gamma                 91.476201
_cell_volume                      3356.99637659

loop_
_atom_site_label
_atom_site_type_symbol
_atom_type_description
_atom_site_fract_x
_atom_site_fract_y
_atom_site_fract_z
_atom_type_partial_charge
C1    C     C_R   0.501185 0.330043 0.500476 0.905856
C2    C     C_R   0.495267 0.669868 0.499883 0.878791
C3    C     C_R   0.462753 0.186161 0.578245 0.265834
C4    C     C_R   0.470918 0.814258 0.416044 0.252347
C5    C     C_R   0.501422 0.233310 0.501851 -0.382467
C6    C     C_R   0.487928 0.766601 0.500750 -0.393720
C7    C     C_R   0.540078 0.187030 0.427050 0.251612
C8    C     C_R   0.496364 0.812631 0.587835 0.289702
C9    C     C_R   0.543001 0.094832 0.432254 0.346069
C10   C     C_R   0.509006 0.903642 0.586589 0.344169
C11   C     C_R   0.495062 0.048469 0.502219 -0.158719
C12   C     C_R   0.491758 0.951514 0.502319 -0.160147
C13   C     C_R   0.573310 0.513691 0.105462 -0.415226
C14   C     C_R   0.446285 0.444946 0.892472 -0.413984
C15   C     C_R   0.572891 0.519874 0.206899 0.526440
C16   C     C_R   0.442972 0.448447 0.791454 0.520570
C17   C     C_R   0.426693 0.481248 0.207662 0.433867
C18   C     C_R   0.556862 0.553477 0.788982 0.446617
C19   C     C_R   0.423834 0.489339 0.106384 0.240987
C20   C     C_R   0.552960 0.560769 0.890715 0.213019
C21   C     C_R   0.498710 0.501816 0.053076 -0.001005
C22   C     C_R   0.499764 0.502425 0.944251 0.001721
C23   C     C_R   0.339981 0.500078 0.499989 0.805562
C24   C     C_R   0.660043 0.499641 0.499984 0.815630
C25   C     C_3   0.970685 0.429083 0.550643 -0.295783
C26   C     C_3   0.029576 0.571240 0.449698 -0.299561
C27   C     C_3   0.026682 0.424977 0.459369 -0.301829
C28   C     C_3   0.973537 0.575347 0.540904 -0.315068
C29   C     C_1   0.250348 0.500574 0.499961 -0.173263
C30   C     C_1   0.749745 0.499075 0.499952 -0.161808
C31   C     C_3   0.027882 0.504577 0.588854 0.539396
C32   C     C_3   0.972411 0.495751 0.411438 0.541469
C33   C     C_3   0.083135 0.500543 0.499327 0.077561
C34   C     C_3   0.917065 0.499741 0.500936 0.075523
C35   C     C_1   0.174761 0.500757 0.499829 -0.018251
C36   C     C_1   0.825374 0.499162 0.500295 -0.015864
C37   C     C_R   0.451574 0.095027 0.572639 0.351033
C38   C     C_R   0.467196 0.906348 0.418772 0.353188
Cu1   Cu    Cu3+1 0.500000 0.499990 0.596430 1.008916
Cu2   Cu    Cu3+1 0.500000 0.500010 0.403570 1.023100
N1    N     N_R   0.500000 0.500020 0.258690 -0.262104
N2    N     N_R   0.500000 0.499980 0.741310 -0.267104
O1    O     O_R   0.500010 0.371450 0.581430 -0.541724
O2    O     O_R   0.499990 0.628550 0.418570 -0.553218
O3    O     O_R   0.500010 0.371460 0.418560 -0.576626
O4    O     O_R   0.499990 0.628540 0.581440 -0.509451
O5    O     O_R   0.379080 0.499990 0.581420 -0.576773
O6    O     O_R   0.620920 0.500010 0.418580 -0.500008
O7    O     O_R   0.379080 0.500000 0.418550 -0.524007
O8    O     O_R   0.620920 0.500000 0.581450 -0.582520
H1    H     H_    0.049903 0.364456 0.425298 0.145113
H2    H     H_    0.950329 0.636026 0.574637 0.145020
O9    O     O_3   0.351013 0.463857 0.253760 -0.533052
C39   C     C_3   0.331422 0.372626 0.251319 0.139865
H3    H     H_    0.361807 0.339738 0.313123 0.138397
H4    H     H_    0.351780 0.340363 0.183932 0.121373
C40   C     C_3   0.236148 0.358708 0.260501 -0.816990
H5    H     H_    0.203825 0.390781 0.199399 0.255099
H6    H     H_    0.219887 0.287187 0.260464 0.190818
H7    H     H_    0.213486 0.387394 0.328342 0.242862
O10   O     O_3   0.610414 0.608725 0.736221 -0.517664
C41   C     C_3   0.695845 0.587332 0.752414 0.104591
H8    H     H_    0.708114 0.518947 0.729360 0.131346
H9    H     H_    0.714523 0.593317 0.828606 0.170650
C42   C     C_3   0.752453 0.651004 0.695349 -0.799467
H10   H     H_    0.746042 0.718811 0.723042 0.241883
H11   H     H_    0.819420 0.631760 0.701997 0.178667
H12   H     H_    0.734275 0.650506 0.618656 0.248734
O11   O     O_3   0.346352 0.481768 0.060964 -0.574190
C43   C     C_3   0.312433 0.566446 0.051863 0.114179
H13   H     H_    0.349900 0.606924 0.999360 0.135047
H14   H     H_    0.311143 0.601037 0.121883 0.160215
C44   C     C_3   0.221815 0.557711 0.016183 -0.812224
H15   H     H_    0.182504 0.520064 0.069053 0.248050
H16   H     H_    0.195113 0.624024 0.006186 0.197133
H17   H     H_    0.219911 0.522775 0.946854 0.246988
O12   O     O_3   0.604061 0.621803 0.937733 -0.604348
C45   C     C_3   0.571795 0.706753 0.924851 0.094410
H18   H     H_    0.509933 0.711384 0.961965 0.133800
H19   H     H_    0.563408 0.724013 0.848055 0.230178
C46   C     C_3   0.633992 0.774171 0.966525 -0.829497
H20   H     H_    0.692125 0.778177 0.921897 0.244888
H21   H     H_    0.604795 0.839786 0.967953 0.209643
H22   H     H_    0.651844 0.755375 0.040530 0.239604
H23   H     H_    0.945298 0.372015 0.592727 0.143828
H24   H     H_    0.055011 0.628427 0.407841 0.148357
O13   O     O_3   0.936699 0.491461 0.319026 -0.577789
C47   C     C_3   0.001809 0.487165 0.250344 0.068561
H25   H     H_    0.037689 0.425601 0.259470 0.143624
H26   H     H_    0.046111 0.545090 0.255221 0.141545
C48   C     C_3   0.962963 0.487136 0.150778 -0.794458
H27   H     H_    0.927285 0.548317 0.139049 0.245163
H28   H     H_    0.013652 0.483753 0.096000 0.196103
H29   H     H_    0.919219 0.429320 0.142756 0.254002
O14   O     O_3   0.064059 0.508740 0.681071 -0.586326
C49   C     C_3   0.999419 0.515830 0.749895 0.063986
H30   H     H_    0.954749 0.458064 0.747279 0.135663
H31   H     H_    0.964025 0.577397 0.738795 0.136231
C50   C     C_3   0.038733 0.519157 0.849163 -0.812566
H32   H     H_    0.083298 0.576610 0.854216 0.250340
H33   H     H_    0.988415 0.525591 0.903927 0.202124
H34   H     H_    0.073452 0.457920 0.863760 0.244794
O15   O     O_3   0.404065 0.051955 0.642638 -0.511396
C51   C     C_3   0.320507 0.038946 0.609365 0.098129
H35   H     H_    0.317138 0.980567 0.562029 0.107732
H36   H     H_    0.296615 0.097574 0.570054 0.128801
C52   C     C_3   0.262553 0.021320 0.694608 -0.792634
H37   H     H_    0.263486 0.079354 0.742428 0.251027
H38   H     H_    0.196815 0.008673 0.669398 0.191320
H39   H     H_    0.283789 0.962946 0.735509 0.243001
O16   O     O_3   0.444517 0.952003 0.336965 -0.529808
C53   C     C_3   0.357151 0.967961 0.340131 0.097029
H40   H     H_    0.342654 0.014234 0.398696 0.103811
H41   H     H_    0.319333 0.905605 0.349980 0.153396
C54   C     C_3   0.330998 0.010451 0.246171 -0.797278
H42   H     H_    0.344160 0.965782 0.185754 0.253261
H43   H     H_    0.262297 0.023740 0.247606 0.192081
H44   H     H_    0.366781 0.073616 0.235171 0.232612
O17   O     O_3   0.434372 0.228386 0.659019 -0.510134
C55   C     C_3   0.494929 0.219438 0.733437 0.220674
H45   H     H_    0.545688 0.171479 0.718778 0.093074
H46   H     H_    0.527019 0.284249 0.745311 0.146079
C56   C     C_3   0.450886 0.190653 0.825771 -0.777740
H47   H     H_    0.498260 0.184757 0.883968 0.177834
H48   H     H_    0.404082 0.239770 0.846993 0.253658
H49   H     H_    0.418202 0.125840 0.816191 0.279667
O18   O     O_3   0.442941 0.770791 0.335205 -0.541788
C57   C     C_3   0.507343 0.773779 0.265450 0.158174
H50   H     H_    0.562957 0.736767 0.290679 0.137357
H51   H     H_    0.528353 0.842336 0.247162 0.176905
C58   C     C_3   0.473003 0.731147 0.175276 -0.827511
H52   H     H_    0.424281 0.773003 0.142111 0.238841
H53   H     H_    0.525151 0.722454 0.124117 0.203097
H54   H     H_    0.444239 0.665777 0.192686 0.246387
O19   O     O_3   0.585574 0.232103 0.356613 -0.541257
C59   C     C_3   0.541430 0.225612 0.268891 0.148950
H55   H     H_    0.478859 0.256683 0.274312 0.101094
H56   H     H_    0.531559 0.156099 0.246314 0.182658
C60   C     C_3   0.592466 0.273367 0.191275 -0.786689
H57   H     H_    0.607205 0.341903 0.213459 0.268819
H58   H     H_    0.652666 0.239160 0.178932 0.247255
H59   H     H_    0.555749 0.274616 0.123545 0.182873
O20   O     O_3   0.486725 0.770536 0.675558 -0.512209
C61   C     C_3   0.398846 0.764961 0.695670 0.159025
H60   H     H_    0.365551 0.720911 0.643796 0.125659
H61   H     H_    0.369985 0.831122 0.692650 0.142841
C62   C     C_3   0.383805 0.727506 0.795579 -0.842836
H62   H     H_    0.411384 0.773035 0.849518 0.234445
H63   H     H_    0.314786 0.720068 0.809123 0.200971
H64   H     H_    0.412382 0.661910 0.802566 0.235056
O21   O     O_3   0.588691 0.050142 0.364534 -0.530211
C63   C     C_3   0.670290 0.035110 0.400739 0.097072
H65   H     H_    0.667105 0.992119 0.465514 0.102820
H66   H     H_    0.703848 0.098329 0.418229 0.156078
C64   C     C_3   0.721137 0.988197 0.325195 -0.794355
H67   H     H_    0.726323 0.029533 0.259401 0.253103
H68   H     H_    0.785636 0.975704 0.352685 0.192596
H69   H     H_    0.689574 0.924256 0.307339 0.234483
O22   O     O_3   0.529294 0.945048 0.671613 -0.499745
C65   C     C_3   0.617141 0.963640 0.673583 0.103890
H70   H     H_    0.632634 0.021814 0.627495 0.106638
H71   H     H_    0.654602 0.906445 0.649955 0.125090
C66   C     C_3   0.643316 0.985410 0.775482 -0.789810
H72   H     H_    0.630386 0.927645 0.822801 0.254117
H73   H     H_    0.711989 0.002393 0.777788 0.187427
H74   H     H_    0.607393 0.042123 0.801917 0.244805
H75   H     H_    0.632850 0.518094 0.067583 0.209291
H76   H     H_    0.406570 0.397185 0.929989 0.218039
O23   O     O_3   0.648117 0.537743 0.254651 -0.532988
C67   C     C_3   0.694831 0.609237 0.213574 0.072958
H77   H     H_    0.653481 0.660501 0.183101 0.122639
H78   H     H_    0.737208 0.585013 0.156624 0.157153
C68   C     C_3   0.749685 0.652177 0.290369 -0.780695
H79   H     H_    0.795170 0.604163 0.318993 0.286622
H80   H     H_    0.785633 0.709334 0.259380 0.191695
H81   H     H_    0.709460 0.675364 0.349772 0.226882
O24   O     O_3   0.385815 0.395274 0.742137 -0.523840
C69   C     C_3   0.301275 0.417124 0.764123 0.139825
H82   H     H_    0.268105 0.431616 0.696109 0.189708
H83   H     H_    0.294952 0.476692 0.809441 0.116176
C70   C     C_3   0.254804 0.339015 0.811010 -0.834112
H84   H     H_    0.280126 0.326487 0.883701 0.233358
H85   H     H_    0.186555 0.353188 0.817465 0.216973
H86   H     H_    0.261604 0.279255 0.766716 0.270953

loop_
_geom_bond_atom_site_label_1
_geom_bond_atom_site_label_2
_ccdc_geom_bond_type
C25   C31   S    
O13   C47   S    
C26   C32   S    
C17   O9    S    
C64   H68   S    
C28   H2    S    
C44   H15   S    
O14   C49   S    
C69   C70   S    
C58   H54   S    
C57   H50   S    
C51   H36   S    
C69   H82   S    
C56   H47   S    
C58   H53   S    
C70   H84   S    
C2    O4    A    
C20   O12   S    
C1    C5    S    
C23   C29   S    
C62   H63   S    
C53   C54   S    
O11   C43   S    
C18   N2    A    
C60   H59   S    
C45   H19   S    
C13   H75   S    
C67   H77   S    
C54   H42   S    
C49   C50   S    
C15   O23   S    
C7    C9    A    
O23   C67   S    
C11   C37   A    
C53   H40   S    
C41   H9    S    
C62   H62   S    
C17   C19   A    
C1    O1    A    
O16   C53   S    
C55   H46   S    
C42   H11   S    
C49   H31   S    
C50   H34   S    
O21   C63   S    
C31   C33   S    
C43   H13   S    
C18   C20   A    
C4    O18   S    
C55   C56   S    
O12   C45   S    
C25   C34   S    
C42   H12   S    
C70   H85   S    
C28   C34   S    
C21   C22   S    
C64   H69   S    
C44   H16   S    
C2    C6    S    
C61   C62   S    
C53   H41   S    
C51   H35   S    
C46   H21   S    
C27   H1    S    
C46   H20   S    
Cu1   N2    S    
C17   N1    A    
C68   H80   S    
C24   O8    A    
Cu2   O3    S    
C60   H57   S    
C39   H4    S    
C64   H67   S    
C23   O5    A    
C24   O6    A    
C65   C66   S    
C3    O17   S    
O19   C59   S    
C62   H64   S    
C15   N1    A    
C4    C6    A    
C2    O2    A    
C48   H27   S    
C5    C7    A    
C45   H18   S    
C61   H60   S    
C40   H7    S    
Cu1   O1    S    
C54   H43   S    
C68   H79   S    
C32   O13   S    
C27   C33   S    
C56   H49   S    
C32   C34   S    
C44   H17   S    
C7    O19   S    
C41   H8    S    
C48   H28   S    
C26   C33   S    
O22   C65   S    
C63   C64   S    
C26   H24   S    
C54   H44   S    
C49   H30   S    
C66   H74   S    
C43   C44   S    
C25   H23   S    
C13   C21   A    
C47   H25   S    
C9    C11   A    
C10   C12   A    
Cu1   O4    S    
C6    C8    A    
C61   H61   S    
Cu2   N1    S    
C50   H33   S    
C47   H26   S    
O24   C69   S    
C13   C15   A    
C52   H39   S    
C14   C16   A    
C19   O11   S    
C40   H6    S    
C20   C22   A    
C52   H37   S    
C14   H76   S    
O18   C57   S    
C57   C58   S    
C16   N2    A    
Cu1   Cu2   S    
C46   H22   S    
C16   O24   S    
C59   H56   S    
Cu1   O5    S    
C68   H81   S    
Cu2   O6    S    
C39   H3    S    
C9    O21   S    
C70   H86   S    
C41   C42   S    
C66   H73   S    
C27   C32   S    
C28   C31   S    
C63   H66   S    
C59   H55   S    
C3    C5    A    
C57   H51   S    
C69   H83   S    
O17   C55   S    
C18   O10   S    
O9    C39   S    
C25   C27   S    
C23   O7    A    
C29   C35   T    
C26   C28   S    
C50   H32   S    
C30   C36   T    
C65   H70   S    
C14   C22   A    
O20   C61   S    
C58   H52   S    
C59   C60   S    
C48   H29   S    
C60   H58   S    
C45   C46   S    
C1    O3    A    
C40   H5    S    
C52   H38   S    
C47   C48   S    
C67   H78   S    
C31   O14   S    
C33   C35   S    
C8    O20   S    
C34   C36   S    
C37   O15   S    
C12   C38   A    
O10   C41   S    
C24   C30   S    
C66   H72   S    
C56   H48   S    
Cu2   O2    S    
Cu1   O8    S    
C63   H65   S    
C3    C37   A    
C8    C10   A    
C42   H10   S    
O15   C51   S    
C55   H45   S    
C43   H14   S    
C38   O16   S    
C4    C38   A    
C10   O22   S    
C67   C68   S    
C51   C52   S    
Cu2   O7    S    
C11   C12   S    
C65   H71   S    
C19   C21   A    
C39   C40   S    
