data_mof_unit_32544.cif
_audit_creation_date              2012-10-26T20:29:08-0400
_audit_creation_method            fapswitch 2.2
_symmetry_space_group_name_H-M    P1
_symmetry_Int_Tables_number       1
_space_group_crystal_system       triclinic
_cell_length_a                    15.137259
_cell_length_b                    13.836539
_cell_length_c                    19.386861
_cell_angle_alpha                 89.885755
_cell_angle_beta                  90.040612
_cell_angle_gamma                 90.008091
_cell_volume                      4060.51606597

loop_
_atom_site_label
_atom_site_type_symbol
_atom_type_description
_atom_site_fract_x
_atom_site_fract_y
_atom_site_fract_z
_atom_type_partial_charge
C1    C     C_R   0.329831 0.500016 0.500201 0.548970
C2    C     C_R   0.951382 0.500150 0.501484 0.032968
C3    C     C_R   0.553245 0.107874 0.546830 0.221049
C4    C     C_R   0.422116 0.892836 0.514986 0.216150
C5    C     C_R   0.444785 0.107867 0.454835 0.218449
C6    C     C_R   0.577664 0.893492 0.487232 0.198941
C7    C     C_R   0.553521 0.209574 0.544357 0.027510
C8    C     C_R   0.424016 0.790829 0.513877 0.023584
C9    C     C_R   0.445727 0.209659 0.456278 0.030799
C10   C     C_R   0.576047 0.791520 0.487097 0.015839
C11   C     C_R   0.499039 0.054854 0.500899 0.057794
C12   C     C_R   0.670143 0.500014 0.500111 0.546974
C13   C     C_R   0.499510 0.945800 0.500739 0.050036
C14   C     C_R   0.499305 0.499948 0.367551 0.556988
C15   C     C_R   0.499651 0.499812 0.632399 0.554828
C16   C     C_R   0.462679 0.419667 0.742820 -0.152323
C17   C     C_R   0.523582 0.581009 0.254454 -0.145961
C18   C     C_R   0.471911 0.415250 0.257023 -0.136153
C19   C     C_R   0.535045 0.575712 0.744881 -0.154342
C20   C     C_R   0.463489 0.415137 0.815450 0.227999
C21   C     C_R   0.525726 0.579083 0.181915 0.229933
C22   C     C_R   0.473319 0.411618 0.184896 0.229558
C23   C     C_R   0.186895 0.583746 0.481915 -0.133606
C24   C     C_R   0.535504 0.575095 0.817786 0.234918
C25   C     C_R   0.499344 0.493994 0.852109 0.055582
C26   C     C_R   0.498698 0.494425 0.147673 0.047209
C27   C     C_R   0.498921 0.498689 0.707978 -0.070126
C28   C     C_R   0.498521 0.498887 0.291929 -0.072866
C29   C     C_R   0.418968 0.486849 0.964089 -0.077149
C30   C     C_R   0.578874 0.496568 0.036262 -0.105994
C31   C     C_R   0.418774 0.486562 0.035936 -0.071228
C32   C     C_R   0.579160 0.495785 0.964460 -0.080282
C33   C     C_R   0.498695 0.492079 0.072118 0.093537
C34   C     C_R   0.813079 0.417802 0.479295 -0.131295
C35   C     C_R   0.499167 0.491681 0.928043 0.098687
C36   C     C_R   0.095086 0.583617 0.481849 -0.121007
C37   C     C_R   0.904891 0.418095 0.479257 -0.120835
C38   C     C_R   0.904542 0.582136 0.523303 -0.121493
C39   C     C_R   0.095272 0.417048 0.521227 -0.120345
C40   C     C_3   0.419318 0.250382 0.818529 0.012077
C41   C     C_3   0.325563 0.238587 0.789533 -0.259879
C42   C     C_3   0.319265 0.152257 0.741022 -0.498741
C43   C     C_3   0.618371 0.712729 0.165263 0.011312
C44   C     C_3   0.590089 0.811661 0.192677 -0.260480
C45   C     C_R   0.812731 0.582348 0.522334 -0.134926
C46   C     C_3   0.669345 0.872713 0.213851 -0.500768
C47   C     C_3   0.493914 0.249040 0.162453 0.008887
C48   C     C_3   0.576974 0.249810 0.117251 -0.265155
C49   C     C_3   0.629622 0.156470 0.125958 -0.489639
C50   C     C_3   0.598208 0.733270 0.824493 0.013462
C51   C     C_3   0.693860 0.722791 0.799301 -0.272303
C52   C     C_3   0.723407 0.811897 0.759084 -0.486150
C53   C     C_3   0.556814 0.030048 0.651091 0.012202
C54   C     C_3   0.607866 0.051183 0.717336 -0.256693
C55   C     C_3   0.559041 0.013156 0.780619 -0.500467
C56   C     C_R   0.187081 0.416747 0.520324 -0.130135
C57   C     C_3   0.327028 0.938118 0.601143 -0.002216
C58   C     C_3   0.237457 0.890291 0.613950 -0.254133
C59   C     C_3   0.214649 0.888719 0.690600 -0.485140
C60   C     C_3   0.433322 0.034851 0.349683 0.003732
C61   C     C_3   0.369033 0.035682 0.288913 -0.247489
C62   C     C_3   0.411135 0.993046 0.224303 -0.495455
C63   C     C_3   0.673804 0.958696 0.409784 0.003649
C64   C     C_3   0.749291 0.031585 0.403899 -0.238026
C65   C     C_3   0.769730 0.056239 0.328869 -0.496504
C66   C     C_R   0.233380 0.500136 0.500767 0.013363
C67   C     C_R   0.766548 0.500071 0.500540 0.012646
C68   C     C_R   0.048514 0.500318 0.501628 0.032834
Cu1   Cu    Cu3+1 0.500000 0.596430 0.500000 0.922160
Cu2   Cu    Cu3+1 0.500000 0.403570 0.500000 0.921340
H1    H     H_    0.432948 0.363031 0.712366 0.127784
H2    H     H_    0.250751 0.146087 0.721037 0.146282
H3    H     H_    0.336250 0.084441 0.768720 0.138435
H4    H     H_    0.661626 0.724167 0.119691 0.151842
H5    H     H_    0.659581 0.673572 0.204017 0.107314
H6    H     H_    0.552538 0.850748 0.151975 0.178281
H7    H     H_    0.546242 0.802249 0.238040 0.151527
H8    H     H_    0.707230 0.835787 0.255302 0.139931
H9    H     H_    0.645820 0.943499 0.233484 0.137771
H10   H     H_    0.713250 0.885690 0.168898 0.149984
H11   H     H_    0.453740 0.184861 0.148433 0.157654
H12   H     H_    0.540868 0.646327 0.281824 0.130199
H13   H     H_    0.512024 0.239625 0.217709 0.110793
H14   H     H_    0.557627 0.258133 0.062228 0.183694
H15   H     H_    0.619641 0.311924 0.131710 0.149708
H16   H     H_    0.650440 0.147352 0.180545 0.140205
H17   H     H_    0.689550 0.159240 0.093029 0.148468
H18   H     H_    0.589139 0.093225 0.110281 0.145599
H19   H     H_    0.596893 0.793098 0.862612 0.154811
H20   H     H_    0.551516 0.756308 0.783347 0.112152
H21   H     H_    0.738065 0.712750 0.844560 0.166786
H22   H     H_    0.701036 0.658270 0.765872 0.160835
H23   H     H_    0.447925 0.353438 0.285826 0.130128
H24   H     H_    0.680160 0.823226 0.713442 0.157422
H25   H     H_    0.792359 0.801798 0.740992 0.150984
H26   H     H_    0.720994 0.876786 0.792645 0.146029
H27   H     H_    0.356737 0.484256 0.936530 0.127820
H28   H     H_    0.640943 0.500462 0.063974 0.096638
H29   H     H_    0.356517 0.483426 0.063368 0.127239
H30   H     H_    0.641546 0.498889 0.937198 0.122515
H31   H     H_    0.060615 0.648248 0.465396 0.106387
H32   H     H_    0.939429 0.354589 0.460991 0.106028
H33   H     H_    0.938801 0.645695 0.541851 0.105089
H34   H     H_    0.563770 0.634113 0.715493 0.123811
H35   H     H_    0.060940 0.352466 0.537939 0.106647
H36   H     H_    0.221422 0.648761 0.466251 0.124246
H37   H     H_    0.778558 0.353796 0.461756 0.124880
H38   H     H_    0.777926 0.646303 0.539562 0.123863
H39   H     H_    0.221778 0.351722 0.535753 0.129724
H40   H     H_    0.546774 0.950731 0.646429 0.140449
H41   H     H_    0.490460 0.065003 0.655309 0.096622
H42   H     H_    0.674110 0.016859 0.714562 0.179447
H43   H     H_    0.617064 0.130554 0.722544 0.158592
H44   H     H_    0.494229 0.049684 0.785919 0.138321
H45   H     H_    0.430198 0.191707 0.856787 0.149811
H46   H     H_    0.598783 0.027459 0.827656 0.145027
H47   H     H_    0.548111 0.934165 0.776130 0.136012
H48   H     H_    0.324342 0.013905 0.619773 0.146068
H49   H     H_    0.378555 0.900352 0.632631 0.093526
H50   H     H_    0.185290 0.930554 0.585533 0.178929
H51   H     H_    0.238836 0.814873 0.594395 0.155354
H52   H     H_    0.265471 0.847814 0.719954 0.148723
H53   H     H_    0.149674 0.852985 0.698115 0.148054
H54   H     H_    0.210592 0.963520 0.710975 0.144600
H55   H     H_    0.459587 0.960414 0.356666 0.137029
H56   H     H_    0.471622 0.239486 0.778911 0.118365
H57   H     H_    0.489163 0.084547 0.336595 0.093401
H58   H     H_    0.309190 0.992934 0.302176 0.189662
H59   H     H_    0.348493 0.111391 0.278202 0.161975
H60   H     H_    0.474916 0.029321 0.212764 0.131427
H61   H     H_    0.366027 0.002863 0.179657 0.151991
H62   H     H_    0.422730 0.914560 0.231780 0.153087
H63   H     H_    0.614974 0.989764 0.383325 0.103669
H64   H     H_    0.693145 0.890168 0.383873 0.121400
H65   H     H_    0.730744 0.098983 0.431495 0.179634
H66   H     H_    0.809535 0.001349 0.428658 0.173812
H67   H     H_    0.278528 0.228371 0.832947 0.165871
H68   H     H_    0.791792 0.990643 0.300859 0.149730
H69   H     H_    0.823496 0.110758 0.326820 0.148043
H70   H     H_    0.710374 0.086832 0.303129 0.136126
H71   H     H_    0.595837 0.249502 0.579128 0.147997
H72   H     H_    0.363930 0.751938 0.524998 0.142753
H73   H     H_    0.403109 0.249670 0.421668 0.145790
H74   H     H_    0.636755 0.753245 0.476911 0.144631
H75   H     H_    0.305103 0.304654 0.761138 0.166768
H76   H     H_    0.364630 0.162205 0.696586 0.139248
N1    N     N_R   0.500000 0.258690 0.500000 -0.291529
N2    N     N_R   0.500000 0.741310 0.500000 -0.283396
O1    O     O_R   0.371460 0.581430 0.500010 -0.514493
O2    O     O_3   0.542881 0.661260 0.142596 -0.563418
O3    O     O_3   0.441131 0.331686 0.149767 -0.572359
O4    O     O_3   0.570363 0.648747 0.859292 -0.574218
O5    O     O_3   0.607409 0.062126 0.594082 -0.541208
O6    O     O_3   0.344057 0.940558 0.529311 -0.540614
O7    O     O_3   0.387412 0.062119 0.410067 -0.539691
O8    O     O_3   0.657331 0.941212 0.480299 -0.540271
O9    O     O_R   0.628540 0.418570 0.499990 -0.502309
O10   O     O_R   0.628540 0.581430 0.499990 -0.516625
O11   O     O_R   0.371460 0.418570 0.500010 -0.503146
O12   O     O_R   0.500020 0.581470 0.400190 -0.491793
O13   O     O_R   0.499980 0.418530 0.599810 -0.504903
O14   O     O_R   0.499980 0.581470 0.599810 -0.493738
O15   O     O_R   0.500020 0.418530 0.400190 -0.505765
O16   O     O_3   0.426862 0.339336 0.853954 -0.578637

loop_
_geom_bond_atom_site_label_1
_geom_bond_atom_site_label_2
_ccdc_geom_bond_type
C53   H40   S    
C4    O6    S    
C21   C26   A    
C64   H66   S    
C53   O5    S    
C34   C37   A    
C39   C68   A    
C49   H17   S    
C15   O14   A    
C4    C8    A    
Cu2   O15   S    
C9    H73   S    
C53   C54   S    
C34   H37   S    
C63   H63   S    
C23   C66   A    
C44   H7    S    
C63   O8    S    
C5    C11   A    
C3    C7    A    
C37   H32   S    
C56   C66   A    
C40   H45   S    
C55   H46   S    
C20   O16   S    
C54   H43   S    
C3    O5    S    
Cu1   O12   S    
C52   H25   S    
Cu2   O11   S    
C41   C42   S    
C4    C13   A    
C44   H6    S    
C62   H60   S    
C38   C45   A    
C24   O4    S    
C51   H21   S    
C54   C55   S    
C65   H70   S    
C50   H20   S    
C39   C56   A    
C42   H3    S    
C45   C67   A    
C31   C33   A    
C1    O1    A    
C47   H13   S    
C12   O9    A    
C19   C27   A    
C41   H67   S    
C61   C62   S    
C45   H38   S    
C61   H59   S    
C57   H49   S    
C53   H41   S    
C59   H52   S    
C64   H65   S    
Cu1   N2    S    
C43   H5    S    
C49   H18   S    
C8    N2    A    
C16   H1    S    
C49   H16   S    
C58   H50   S    
C44   C46   S    
C1    C66   S    
C7    N1    A    
C59   H53   S    
C12   C67   S    
C51   C52   S    
C32   C35   A    
C62   H62   S    
C1    O11   A    
C18   C28   A    
Cu1   O14   S    
C46   H8    S    
C10   H74   S    
C58   C59   S    
C5    O7    S    
C23   H36   S    
C9    N1    A    
C17   C21   A    
C48   H14   S    
C14   O12   A    
C60   C61   S    
C43   H4    S    
C43   C44   S    
C63   H64   S    
C5    C9    A    
C38   H33   S    
C50   O4    S    
C51   H22   S    
C19   H34   S    
C2    C38   A    
C50   H19   S    
C15   C27   S    
C47   C48   S    
C17   H12   S    
C40   H56   S    
C42   H2    S    
C50   C51   S    
C54   H42   S    
C16   C20   A    
C21   O2    S    
C24   C25   A    
C52   H24   S    
C43   O2    S    
C25   C35   S    
C65   H68   S    
C40   C41   S    
C47   O3    S    
C31   H29   S    
C22   C26   A    
C14   C28   S    
C42   H76   S    
Cu2   O13   S    
C56   H39   S    
C7    H71   S    
C55   H47   S    
C59   H54   S    
C39   H35   S    
C30   H28   S    
C22   O3    S    
C60   H55   S    
C58   H51   S    
C30   C33   A    
C18   C22   A    
C17   C28   A    
C62   H61   S    
C15   O13   A    
C60   H57   S    
C34   C67   A    
C6    C10   A    
C14   O15   A    
C36   C68   A    
C40   O16   S    
C55   H44   S    
C57   O6    S    
C29   C35   A    
C2    C68   S    
C29   H27   S    
Cu2   O9    S    
Cu1   O1    S    
C64   C65   S    
C19   C24   A    
C60   O7    S    
C29   C31   A    
C6    C13   A    
C30   C32   A    
C11   C13   S    
C2    C37   A    
C57   C58   S    
C46   H9    S    
C16   C27   A    
C48   C49   S    
Cu1   O10   S    
C52   H26   S    
C61   H58   S    
C47   H11   S    
Cu1   Cu2   S    
C3    C11   A    
C63   C64   S    
C65   H69   S    
C32   H30   S    
C41   H75   S    
C23   C36   A    
C20   C25   A    
C18   H23   S    
C48   H15   S    
C36   H31   S    
C8    H72   S    
Cu2   N1    S    
C46   H10   S    
C12   O10   A    
C6    O8    S    
C26   C33   S    
C10   N2    A    
C57   H48   S    
