data_mof_unit_7207.cif
_audit_creation_date              2012-12-11T15:15:43-0500
_audit_creation_method            fapswitch 2.2
_symmetry_space_group_name_H-M    P1
_symmetry_Int_Tables_number       1
_space_group_crystal_system       monoclinic
_cell_length_a                    20.448272
_cell_length_b                    22.883134
_cell_length_c                    6.954902
_cell_angle_alpha                 90.0
_cell_angle_beta                  86.486591
_cell_angle_gamma                 90.0
_cell_volume                      3248.22496923

loop_
_atom_site_label
_atom_site_type_symbol
_atom_type_description
_atom_site_fract_x
_atom_site_fract_y
_atom_site_fract_z
_atom_type_partial_charge
O1    O     O_R   0.387100 0.552640 0.378490 -0.547429
O2    O     O_R   0.612900 0.052640 0.621510 -0.547430
O3    O     O_R   0.249610 0.559600 0.072250 -0.525248
O4    O     O_R   0.750390 0.059600 0.927750 -0.525248
O5    O     O_R   0.249120 0.447360 0.902040 -0.539666
O6    O     O_R   0.750880 0.947360 0.097960 -0.539665
C1    C     C_R   0.227220 0.573465 0.244515 0.855079
C2    C     C_R   0.772780 0.073465 0.755485 0.855081
O7    O     O_R   0.386610 0.559560 0.048860 -0.538513
O8    O     O_R   0.613390 0.059560 0.951140 -0.538513
O9    O     O_R   0.387100 0.447320 0.878470 -0.545357
O10   O     O_R   0.612900 0.947320 0.121530 -0.545357
C3    C     C_R   0.407747 0.575034 0.213833 0.690279
C4    C     C_R   0.592253 0.075034 0.786167 0.690280
O11   O     O_R   0.249120 0.552680 0.402050 -0.520832
O12   O     O_R   0.750880 0.052680 0.597950 -0.520832
O13   O     O_3   0.318110 0.463180 0.223790 -0.376761
O14   O     O_3   0.681890 0.963180 0.776210 -0.376760
V1    V     V_3+5 0.318110 0.506830 0.948930 1.520113
V2    V     V_3+5 0.681890 0.006830 0.051070 1.520114
O15   O     O_R   0.386610 0.440400 0.548840 -0.545306
O16   O     O_R   0.613390 0.940400 0.451160 -0.545305
C5    C     C_R   0.407747 0.424924 0.713808 0.665282
C6    C     C_R   0.592253 0.924924 0.286191 0.665282
O17   O     O_R   0.249610 0.440440 0.572240 -0.524934
O18   O     O_R   0.750390 0.940440 0.427760 -0.524934
C7    C     C_R   0.227676 0.425875 0.745400 0.809061
C8    C     C_R   0.772324 0.925875 0.254600 0.809061
V3    V     V_3+5 0.318110 0.493170 0.448930 1.528096
V4    V     V_3+5 0.681890 0.993170 0.551070 1.528096
O19   O     O_3   0.318110 0.536820 0.723940 -0.369296
O20   O     O_3   0.681890 0.036820 0.276060 -0.369296
C9    C     C_R   0.171979 0.384695 0.766081 -0.187827
C10   C     C_R   0.828021 0.884695 0.233919 -0.187827
C11   C     C_R   0.127565 0.381259 0.621589 -0.106808
C12   C     C_R   0.872435 0.881259 0.378411 -0.106807
C13   C     C_R   0.069595 0.348830 0.648448 0.425670
C14   C     C_R   0.930405 0.848830 0.351552 0.425670
C15   C     C_R   0.059218 0.314206 0.814611 -0.072052
C16   C     C_R   0.940781 0.814206 0.185389 -0.072052
C17   C     C_R   0.106199 0.313849 0.955533 0.453776
C18   C     C_R   0.893801 0.813849 0.044466 0.453776
C19   C     C_R   0.161108 0.350643 0.932850 -0.240762
C20   C     C_R   0.838892 0.850643 0.067149 -0.240764
C21   C     C_R   0.872053 0.211670 0.805175 -0.172872
C22   C     C_R   0.127947 0.711670 0.194824 -0.172872
C23   C     C_R   0.818940 0.172275 0.814171 0.288282
C24   C     C_R   0.181060 0.672275 0.185829 0.288283
C25   C     C_R   0.890109 0.098147 0.660149 0.350171
C26   C     C_R   0.109891 0.598147 0.339851 0.350168
C27   C     C_R   0.941668 0.138250 0.648804 -0.150251
C28   C     C_R   0.058332 0.638250 0.351196 -0.150249
C29   C     C_R   0.933580 0.194579 0.723286 0.011528
C30   C     C_R   0.066420 0.694579 0.276714 0.011528
C31   C     C_2   0.999795 0.277501 0.835500 -0.027461
C32   C     C_2   0.000205 0.777501 0.164500 -0.027461
C33   C     C_2   0.990753 0.234235 0.710102 -0.022115
C34   C     C_2   0.009247 0.734235 0.289898 -0.022114
C35   C     C_R   0.827806 0.115317 0.739799 -0.208536
C36   C     C_R   0.172195 0.615317 0.260201 -0.208536
H1    H     H_    0.136973 0.405255 0.489830 0.218128
H2    H     H_    0.863027 0.905255 0.510170 0.218128
H3    H     H_    0.029334 0.225355 0.599442 0.197951
H4    H     H_    0.970666 0.725355 0.400558 0.197951
H5    H     H_    0.864867 0.255680 0.859384 0.123125
H6    H     H_    0.135133 0.755680 0.140615 0.123125
H7    H     H_    0.196543 0.351486 0.042317 0.186201
H8    H     H_    0.803457 0.851486 0.957683 0.186201
H9    H     H_    0.965140 0.284907 0.957361 0.161048
H10   H     H_    0.034860 0.784907 0.042638 0.161047
H11   H     H_    0.989232 0.125050 0.586380 0.186086
H12   H     H_    0.010769 0.625050 0.413621 0.186086
C37   C     C_R   0.576322 0.358974 0.640729 -0.156105
C38   C     C_R   0.423678 0.858974 0.359270 -0.156104
H13   H     H_    0.535250 0.444785 0.621503 0.113960
H14   H     H_    0.464750 0.944785 0.378495 0.113960
H15   H     H_    0.666363 0.275623 0.618788 0.137072
H16   H     H_    0.333637 0.775623 0.381211 0.137072
H17   H     H_    0.625162 0.374379 0.597630 0.126792
H18   H     H_    0.374838 0.874379 0.402368 0.126792
C39   C     C_R   0.461545 0.381357 0.710407 -0.037997
C40   C     C_R   0.538455 0.881357 0.289593 -0.037998
C41   C     C_R   0.474760 0.096702 0.845103 -0.269876
C42   C     C_R   0.525240 0.596702 0.154898 -0.269876
C43   C     C_R   0.420615 0.134379 0.861756 0.430168
C44   C     C_R   0.579384 0.634379 0.138245 0.430168
C45   C     C_R   0.429026 0.194014 0.825195 -0.143740
C46   C     C_R   0.570974 0.694013 0.174806 -0.143740
C47   C     C_R   0.491193 0.217830 0.770563 -0.006472
C48   C     C_R   0.508807 0.717831 0.229437 -0.006472
C49   C     C_R   0.545976 0.178567 0.751497 0.052610
C50   C     C_R   0.454024 0.678567 0.248503 0.052610
C51   C     C_R   0.500756 0.279318 0.734792 0.097456
C52   C     C_R   0.499244 0.779318 0.265208 0.097455
C53   C     C_R   0.564896 0.299478 0.679302 0.130241
C54   C     C_R   0.435104 0.799478 0.320697 0.130241
C55   C     C_R   0.617440 0.260249 0.661173 -0.183850
C56   C     C_R   0.382560 0.760249 0.338826 -0.183849
C57   C     C_R   0.608239 0.200917 0.696496 -0.144165
C58   C     C_R   0.391761 0.700917 0.303503 -0.144165
C59   C     C_R   0.449330 0.321748 0.750840 -0.207948
C60   C     C_R   0.550670 0.821748 0.249160 -0.207947
C61   C     C_R   0.525173 0.399290 0.654839 -0.164900
C62   C     C_R   0.474827 0.899290 0.345160 -0.164901
C63   C     C_R   0.537290 0.117746 0.790025 -0.113145
C64   C     C_R   0.462710 0.617746 0.209975 -0.113145
H19   H     H_    0.399348 0.309962 0.791231 0.101894
H20   H     H_    0.600652 0.809962 0.208769 0.101894
H21   H     H_    0.468206 0.050555 0.875983 0.106052
H22   H     H_    0.531794 0.550555 0.124018 0.106052
H23   H     H_    0.385593 0.220626 0.841353 0.146095
H24   H     H_    0.614407 0.720626 0.158648 0.146094
H25   H     H_    0.650515 0.172495 0.679660 0.138575
H26   H     H_    0.349485 0.672495 0.320338 0.138575
O21   O     O_3   0.358515 0.114286 0.915192 -0.618455
H27   H     H_    0.360413 0.071463 0.936153 0.296413
O22   O     O_3   0.641485 0.614286 0.084809 -0.618455
H28   H     H_    0.639587 0.571462 0.063849 0.296412
O23   O     O_3   0.758104 0.188419 0.894172 -0.655265
H29   H     H_    0.759983 0.229563 0.938254 0.293001
O24   O     O_3   0.241896 0.688419 0.105826 -0.655264
H30   H     H_    0.240017 0.729563 0.061744 0.293001
S1    S     S_3+6 0.906323 0.025658 0.586460 -0.024469
O25   O     O_2   0.875092 0.015591 0.399458 -0.342552
O26   O     O_2   0.978731 0.014607 0.557308 -0.317085
O27   O     O_3   0.874042 0.979681 0.755609 -0.534995
H31   H     H_    0.896509 0.989263 0.873811 0.342343
S2    S     S_3+6 0.093677 0.525658 0.413541 -0.024467
O28   O     O_2   0.124908 0.515591 0.600542 -0.342552
O29   O     O_2   0.021269 0.514607 0.442693 -0.317084
O30   O     O_3   0.125957 0.479681 0.244391 -0.534994
H32   H     H_    0.103492 0.489265 0.126188 0.342342
S3    S     S_3+6 0.101223 0.263328 0.148710 -0.011004
O31   O     O_2   0.148762 0.279114 0.296823 -0.344982
O32   O     O_2   0.032929 0.262033 0.241226 -0.347345
O33   O     O_3   0.119798 0.196631 0.059992 -0.478858
H33   H     H_    0.112629 0.169766 0.170974 0.379856
S4    S     S_3+6 0.898777 0.763328 0.851290 -0.011004
O34   O     O_2   0.851238 0.779114 0.703177 -0.344983
O35   O     O_2   0.967071 0.762033 0.758774 -0.347344
O36   O     O_3   0.880202 0.696632 0.940008 -0.478858
H34   H     H_    0.887368 0.669766 0.829025 0.379856
O37   O     O_3   0.021990 0.350967 0.515976 -0.587106
H35   H     H_    0.036450 0.377789 0.409666 0.349933
O38   O     O_3   0.978010 0.850967 0.484023 -0.587106
H36   H     H_    0.963550 0.877789 0.590334 0.349932

loop_
_geom_bond_atom_site_label_1
_geom_bond_atom_site_label_2
_ccdc_geom_bond_type
H14   C62   S    
V4    O20   S    
C59   H19   S    
O27   H31   S    
O11   V3    S    
C18   S4    S    
O13   V3    S    
C49   C63   A    
O4    C2    A    
V1    O19   S    
S2    O28   D    
C17   S3    S    
O38   H36   S    
S1    O25   D    
C15   C17   A    
C39   C59   A    
C7    C9    S    
O9    V1    S    
C27   H11   S    
C11   C13   A    
C42   C44   A    
C22   H6    S    
O3    C1    A    
C2    C35   S    
C39   C61   A    
C44   C46   A    
S1    O26   D    
C45   H23   S    
O12   V4    S    
O37   H35   S    
C25   S1    S    
O7    C3    A    
C6    C40   S    
C9    C11   A    
O5    C7    A    
O7    V1    S    
C4    C63   S    
O6    C8    A    
O8    V2    S    
C16   C32   S    
C54   C56   A    
H16   C56   S    
S3    O33   S    
C26   C28   A    
C41   H21   S    
C24   C36   A    
O14   V4    S    
C47   C49   A    
C13   O37   S    
C10   C12   A    
C15   C31   S    
C43   C45   A    
C8    C10   S    
C2    O12   A    
C38   H18   S    
H13   C61   S    
C17   C19   A    
O10   V2    S    
C18   C20   A    
C12   H2    S    
C55   C57   A    
C28   C30   A    
C48   C52   A    
C42   C64   A    
C21   C23   A    
O15   C5    A    
O17   V3    S    
C22   C24   A    
C23   C35   A    
C9    C19   A    
C38   C54   A    
C43   O21   S    
C58   H26   S    
O8    C4    A    
C51   C59   A    
C24   O24   S    
C29   C33   S    
O33   H33   S    
S1    O27   S    
C1    O11   A    
C34   H4    S    
C25   C27   A    
O15   V3    S    
C42   H22   S    
C41   C63   A    
C27   C29   A    
O4    V2    S    
C52   C54   A    
C14   O38   S    
C28   H12   S    
C48   C50   A    
V3    O19   S    
O3    V1    S    
C22   C30   A    
O1    V3    S    
C40   C60   A    
C10   C20   A    
C11   H1    S    
C60   H20   S    
O24   H30   S    
C31   H9    S    
S4    O35   D    
C50   C64   A    
C41   C43   A    
C46   C48   A    
O18   V4    S    
C32   H10   S    
C31   C33   D    
C21   H5    S    
S3    O31   D    
C30   C34   S    
O16   C6    A    
C20   H8    S    
C26   S2    S    
C37   C53   A    
C12   C14   A    
S2    O30   S    
C1    C36   S    
C23   O23   S    
C50   C58   A    
C38   C62   A    
V2    O20   S    
C40   C62   A    
C5    C39   S    
C33   H3    S    
C3    C64   S    
C37   H17   S    
S4    O36   S    
S2    O29   D    
C57   H25   S    
O23   H29   S    
C53   C55   A    
O5    V1    S    
O17   C7    A    
O6    V2    S    
O10   C6    A    
O18   C8    A    
C25   C35   A    
O2    V4    S    
C26   C36   A    
C45   C47   A    
C13   C15   A    
O16   V4    S    
O22   H28   S    
C14   C16   A    
C51   C53   A    
O9    C5    A    
O13   V1    S    
C32   C34   D    
C44   O22   S    
O14   V2    S    
C47   C51   A    
O30   H32   S    
O2    C4    A    
C56   C58   A    
S4    O34   D    
C21   C29   A    
C46   H24   S    
C37   C61   A    
O1    C3    A    
C52   C60   A    
C19   H7    S    
S3    O32   D    
C16   C18   A    
H15   C55   S    
C49   C57   A    
O36   H34   S    
O21   H27   S    
