data_mof_unit_25900.cif
_audit_creation_date              2012-12-11T15:43:02-0500
_audit_creation_method            fapswitch 2.2
_symmetry_space_group_name_H-M    P1
_symmetry_Int_Tables_number       1
_space_group_crystal_system       triclinic
_cell_length_a                    19.179592
_cell_length_b                    11.054386
_cell_length_c                    18.692318
_cell_angle_alpha                 89.948916
_cell_angle_beta                  90.000127
_cell_angle_gamma                 89.94174
_cell_volume                      3963.11571753

loop_
_atom_site_label
_atom_site_type_symbol
_atom_type_description
_atom_site_fract_x
_atom_site_fract_y
_atom_site_fract_z
_atom_type_partial_charge
C1    C     C_R   0.730443 0.377177 0.146589 0.539207
C2    C     C_R   0.273984 0.367267 0.857648 0.540503
C3    C     C_R   0.230433 0.877136 0.146575 0.539360
C4    C     C_R   0.773764 0.867851 0.857456 0.542119
C5    C     C_R   0.531407 0.370860 0.921237 -0.098137
C6    C     C_R   0.511395 0.395559 0.067997 -0.083802
C7    C     C_R   0.031116 0.871170 0.921329 -0.097748
C8    C     C_R   0.011057 0.895518 0.068105 -0.083790
C9    C     C_R   0.040984 0.983068 0.953980 -0.126219
C10   C     C_R   0.028830 0.996028 0.026846 -0.133442
C11   C     C_R   0.541455 0.482766 0.953816 -0.126084
C12   C     C_R   0.529323 0.495911 0.026674 -0.133532
C13   C     C_R   0.765785 0.881095 0.933909 0.020485
C14   C     C_R   0.254782 0.924832 0.079108 0.015658
C15   C     C_R   0.266115 0.380052 0.934173 0.020674
C16   C     C_R   0.754855 0.425102 0.079191 0.014537
C17   C     C_R   0.703825 0.849956 0.967828 0.002488
C18   C     C_R   0.301386 0.857941 0.036778 0.004483
C19   C     C_R   0.204278 0.348386 0.968173 0.002855
C20   C     C_R   0.801630 0.358514 0.036904 0.004103
C21   C     C_R   0.697481 0.863045 0.040908 0.005009
C22   C     C_R   0.303558 0.874331 0.963557 0.007837
C23   C     C_R   0.197893 0.361661 0.041236 0.003935
C24   C     C_R   0.803848 0.374985 0.963698 0.008427
C25   C     C_R   0.819738 0.910608 0.050168 -0.167646
C26   C     C_R   0.219321 0.035173 0.974212 -0.136073
C27   C     C_R   0.320020 0.410125 0.050426 -0.166478
C28   C     C_R   0.719482 0.535609 0.974298 -0.136083
C29   C     C_R   0.825653 0.900127 0.976340 -0.142616
C30   C     C_R   0.219045 0.022023 0.048037 -0.147214
C31   C     C_R   0.325948 0.399563 0.976570 -0.143300
C32   C     C_R   0.719110 0.522312 0.048127 -0.146196
C33   C     C_3   0.631675 0.893718 0.953714 -0.288199
C34   C     C_3   0.310644 0.724000 0.029369 -0.241567
C35   C     C_3   0.131913 0.390965 0.953988 -0.286535
C36   C     C_3   0.811245 0.224655 0.029474 -0.241750
C37   C     C_3   0.624648 0.910072 0.033858 -0.244599
C38   C     C_3   0.313836 0.742880 0.949147 -0.282337
C39   C     C_3   0.124851 0.407735 0.034115 -0.245707
C40   C     C_3   0.814530 0.243642 0.949261 -0.281857
C41   C     C_R   0.753729 0.904888 0.081921 0.001450
C42   C     C_R   0.257281 0.954191 0.930894 0.024441
C43   C     C_R   0.254015 0.404118 0.082213 0.002672
C44   C     C_R   0.757465 0.454633 0.930995 0.024494
C45   C     C_R   0.530313 0.156723 0.147926 0.532363
C46   C     C_R   0.466408 0.154454 0.854307 0.523532
C47   C     C_R   0.030317 0.656707 0.147923 0.531831
C48   C     C_R   0.966451 0.654469 0.854288 0.524688
C49   C     C_R   0.488879 0.165985 0.573054 -0.001144
C50   C     C_R   0.501931 0.167815 0.424246 -0.013795
C51   C     C_R   0.000031 0.668116 0.576780 -0.011522
C52   C     C_R   0.013135 0.665849 0.427917 -0.002416
C53   C     C_R   0.483845 0.060243 0.533998 0.027871
C54   C     C_R   0.486763 0.061686 0.460994 -0.010209
C55   C     C_R   0.016185 0.562094 0.540382 -0.007758
C56   C     C_R   0.019130 0.560398 0.467277 0.027180
C57   C     C_R   0.500932 0.277868 0.461892 -0.171480
C58   C     C_R   0.493190 0.277089 0.536458 -0.169926
C59   C     C_R   0.008213 0.777000 0.464228 -0.169610
C60   C     C_R   0.000449 0.777998 0.538795 -0.171793
C61   C     C_3   0.527277 0.949345 0.539807 -0.285593
C62   C     C_3   0.527265 0.948808 0.460174 -0.265541
C63   C     C_3   0.976316 0.448632 0.541274 -0.265562
C64   C     C_3   0.976593 0.448770 0.461837 -0.286790
C65   C     C_R   0.741719 0.924009 0.580811 -0.000428
C66   C     C_R   0.260449 0.930577 0.416927 0.000146
C67   C     C_R   0.239691 0.430545 0.583104 -0.000130
C68   C     C_R   0.757626 0.422806 0.419742 0.000121
C69   C     C_R   0.746511 0.045332 0.560496 0.018824
C70   C     C_R   0.248912 0.050181 0.436925 0.020264
C71   C     C_R   0.252879 0.549053 0.561779 0.020911
C72   C     C_R   0.754624 0.544768 0.438364 0.018624
C73   C     C_R   0.730557 0.072967 0.488754 -0.046736
C74   C     C_R   0.262172 0.081821 0.509394 -0.043150
C75   C     C_R   0.239439 0.579320 0.489255 -0.041334
C76   C     C_R   0.770710 0.574659 0.509853 -0.049300
C77   C     C_R   0.694182 0.867254 0.463227 -0.035783
C78   C     C_R   0.316035 0.887573 0.531816 -0.026566
C79   C     C_R   0.185444 0.385185 0.467866 -0.026139
C80   C     C_R   0.807916 0.369447 0.536643 -0.035772
C81   C     C_R   0.705904 0.841945 0.535962 -0.155342
C82   C     C_R   0.305706 0.859972 0.459141 -0.148212
C83   C     C_R   0.195054 0.359062 0.540841 -0.147465
C84   C     C_R   0.795009 0.342295 0.464343 -0.156698
C85   C     C_3   0.698611 0.143798 0.587981 -0.138816
C86   C     C_3   0.293758 0.151006 0.408282 -0.125489
C87   C     C_3   0.209606 0.653275 0.588717 -0.134434
C88   C     C_3   0.803652 0.638597 0.407995 -0.127995
C89   C     C_R   0.741583 0.967967 0.148529 0.532543
C90   C     C_R   0.260321 0.976375 0.854830 0.547157
C91   C     C_R   0.241687 0.467647 0.148667 0.532980
C92   C     C_R   0.760379 0.476553 0.854891 0.547382
C93   C     C_3   0.672692 0.156941 0.512659 -0.270171
C94   C     C_3   0.315048 0.173614 0.484146 -0.263266
C95   C     C_3   0.187007 0.672505 0.513162 -0.263400
C96   C     C_3   0.828815 0.656446 0.483521 -0.269248
C97   C     C_R   0.722477 0.980645 0.437944 0.003265
C98   C     C_R   0.279100 0.991301 0.559636 0.002787
C99   C     C_R   0.222191 0.488707 0.439754 0.005060
C100  C     C_R   0.779108 0.482930 0.561505 0.001415
C101  C     C_R   0.730652 0.378468 0.351930 0.527983
C102  C     C_R   0.269085 0.379300 0.648367 0.525543
C103  C     C_R   0.230820 0.878940 0.351844 0.521835
C104  C     C_R   0.768991 0.879425 0.648523 0.530361
C105  C     C_R   0.533234 0.157537 0.353841 0.531049
C106  C     C_R   0.466397 0.157369 0.646215 0.528194
C107  C     C_R   0.034574 0.657273 0.354372 0.527679
C108  C     C_R   0.967423 0.657618 0.646576 0.530307
C109  C     C_R   0.726825 0.017119 0.362075 0.550238
C110  C     C_R   0.273751 0.020433 0.637685 0.556150
C111  C     C_R   0.226576 0.519272 0.362227 0.553818
C112  C     C_R   0.773586 0.518408 0.637843 0.554035
C113  C     C_R   0.488635 0.160134 0.928892 -0.004066
C114  C     C_R   0.496476 0.171380 0.078122 -0.010833
C115  C     C_R   0.988751 0.660162 0.928855 -0.003727
C116  C     C_R   0.996513 0.671272 0.078099 -0.010607
C117  C     C_R   0.508819 0.269865 0.961523 0.011059
C118  C     C_R   0.505389 0.279164 0.036903 0.028718
C119  C     C_R   0.008704 0.769982 0.961551 0.011293
C120  C     C_R   0.005246 0.779152 0.036938 0.028721
C121  C     C_R   0.474589 0.065557 0.044753 -0.167005
C122  C     C_R   0.470913 0.059883 0.971508 -0.146561
C123  C     C_R   0.974892 0.565339 0.044662 -0.167049
C124  C     C_R   0.971290 0.559715 0.971418 -0.147023
Cr1   Cr    Cr6+3 0.772010 0.169670 0.250090 0.984987
Cr2   Cr    Cr6+3 0.227990 0.169670 0.749910 0.993085
Cr3   Cr    Cr6+3 0.272010 0.669670 0.250090 0.986507
Cr4   Cr    Cr6+3 0.727990 0.669670 0.749910 0.992065
Cr5   Cr    Cr6+3 0.615000 0.323260 0.249260 0.982062
Cr6   Cr    Cr6+3 0.385000 0.323260 0.750740 0.986402
Cr7   Cr    Cr6+3 0.115000 0.823260 0.249260 0.983430
Cr8   Cr    Cr6+3 0.885000 0.823260 0.750740 0.983557
Cr9   Cr    Cr6+3 0.616710 0.010760 0.250840 0.975445
Cr10  Cr    Cr6+3 0.383290 0.010760 0.749160 0.982368
Cr11  Cr    Cr6+3 0.116710 0.510760 0.250840 0.977706
Cr12  Cr    Cr6+3 0.883290 0.510760 0.749160 0.977535
H1    H     H_    0.464643 0.983790 0.075132 0.135159
H2    H     H_    0.453057 0.975542 0.948445 0.151698
H3    H     H_    0.965101 0.483459 0.074986 0.135357
H4    H     H_    0.953655 0.475260 0.948321 0.151773
H5    H     H_    0.510646 0.362127 0.434581 0.136886
H6    H     H_    0.492308 0.361564 0.565402 0.134909
H7    H     H_    0.008261 0.861293 0.435015 0.134732
H8    H     H_    0.989866 0.862205 0.565777 0.136989
H9    H     H_    0.579655 0.963518 0.561070 0.136171
H10   H     H_    0.497939 0.875067 0.433951 0.137117
H11   H     H_    0.005703 0.375041 0.567815 0.137438
H12   H     H_    0.924096 0.461660 0.441130 0.134828
H13   H     H_    0.691333 0.754798 0.557126 0.149567
H14   H     H_    0.326031 0.776854 0.437244 0.144452
H15   H     H_    0.174643 0.276218 0.563024 0.144425
H16   H     H_    0.809577 0.254933 0.443520 0.149503
H17   H     H_    0.721143 0.231887 0.600619 0.160207
H18   H     H_    0.266041 0.229812 0.387519 0.155983
H19   H     H_    0.238662 0.732366 0.606280 0.156085
H20   H     H_    0.781971 0.725794 0.391348 0.159786
H21   H     H_    0.620663 0.120618 0.504174 0.149337
H22   H     H_    0.367885 0.144034 0.496391 0.157669
H23   H     H_    0.134148 0.642204 0.502727 0.158753
H24   H     H_    0.880811 0.620585 0.494047 0.147599
H25   H     H_    0.676606 0.249780 0.491065 0.137469
H26   H     H_    0.306851 0.267270 0.501694 0.137090
H27   H     H_    0.194504 0.765082 0.493650 0.136691
H28   H     H_    0.824453 0.750941 0.502424 0.138230
H29   H     H_    0.541965 0.364209 0.864552 0.127617
H30   H     H_    0.499557 0.411719 0.123674 0.128873
H31   H     H_    0.041699 0.864675 0.864644 0.126890
H32   H     H_    0.999196 0.911505 0.123795 0.128795
H33   H     H_    0.056763 0.060456 0.922385 0.109905
H34   H     H_    0.033810 0.084069 0.051646 0.098906
H35   H     H_    0.557348 0.560024 0.922170 0.110459
H36   H     H_    0.534441 0.583973 0.051419 0.098956
H37   H     H_    0.865096 0.936933 0.080850 0.131816
H38   H     H_    0.187484 0.105841 0.951063 0.145625
H39   H     H_    0.365322 0.436884 0.081064 0.131808
H40   H     H_    0.687684 0.606334 0.951140 0.145467
H41   H     H_    0.876578 0.912625 0.952519 0.161303
H42   H     H_    0.184845 0.079167 0.079477 0.134398
H43   H     H_    0.376811 0.412485 0.952690 0.161049
H44   H     H_    0.684838 0.579344 0.079555 0.134539
H45   H     H_    0.098204 0.317716 0.932556 0.131290
H46   H     H_    0.764416 0.172696 0.046247 0.162492
H47   H     H_    0.597602 0.821153 0.932077 0.131590
H48   H     H_    0.263718 0.672398 0.046249 0.162267
H49   H     H_    0.630334 0.980467 0.923724 0.131882
H50   H     H_    0.360789 0.692047 0.052512 0.140078
H51   H     H_    0.130136 0.477412 0.923730 0.131828
H52   H     H_    0.861427 0.193054 0.052701 0.139887
H53   H     H_    0.620324 0.006709 0.049541 0.168272
H54   H     H_    0.366106 0.723514 0.926126 0.139491
H55   H     H_    0.120127 0.504413 0.049589 0.168626
H56   H     H_    0.866896 0.224752 0.926332 0.139315
H57   H     H_    0.585646 0.848400 0.058430 0.134331
H58   H     H_    0.269299 0.701425 0.919978 0.132779
H59   H     H_    0.086108 0.345741 0.058834 0.133826
H60   H     H_    0.770178 0.201823 0.920010 0.131666
O1    O     O_R   0.787520 0.042810 0.170440 -0.529596
O2    O     O_R   0.212480 0.042810 0.829560 -0.529163
O3    O     O_R   0.287520 0.542810 0.170440 -0.529249
O4    O     O_R   0.712480 0.542810 0.829560 -0.529229
O5    O     O_R   0.556610 0.252880 0.323980 -0.507888
O6    O     O_R   0.443390 0.252880 0.676020 -0.506935
O7    O     O_R   0.056610 0.752880 0.323980 -0.508600
O8    O     O_R   0.943390 0.752880 0.676020 -0.507121
O9    O     O_R   0.545950 0.051210 0.330860 -0.539655
O10   O     O_R   0.454050 0.051210 0.669140 -0.536517
O11   O     O_R   0.045950 0.551210 0.330860 -0.535258
O12   O     O_R   0.954050 0.551210 0.669140 -0.542257
O13   O     O_R   0.681390 0.959480 0.325510 -0.535624
O14   O     O_R   0.318610 0.959480 0.674490 -0.532704
O15   O     O_R   0.181390 0.459480 0.325510 -0.537363
O16   O     O_R   0.818610 0.459480 0.674490 -0.532284
O17   O     O_3   0.667900 0.167900 0.250060 -0.253298
O18   O     O_3   0.332100 0.167900 0.749940 -0.261049
O19   O     O_3   0.167900 0.667900 0.250060 -0.254653
O20   O     O_3   0.832100 0.667900 0.749940 -0.258995
O21   O     O_R   0.765640 0.292100 0.175020 -0.503987
O22   O     O_R   0.234360 0.292100 0.824980 -0.502397
O23   O     O_R   0.265640 0.792100 0.175020 -0.504540
O24   O     O_R   0.734360 0.792100 0.824980 -0.502238
O25   O     O_R   0.670190 0.408840 0.168540 -0.522335
O26   O     O_R   0.329810 0.408840 0.831460 -0.531635
O27   O     O_R   0.170190 0.908840 0.168540 -0.522205
O28   O     O_R   0.829810 0.908840 0.831460 -0.531252
O29   O     O_R   0.556620 0.251410 0.175160 -0.506960
O30   O     O_R   0.443380 0.251410 0.824840 -0.508536
O31   O     O_R   0.056620 0.751410 0.175160 -0.507502
O32   O     O_R   0.943380 0.751410 0.824840 -0.508804
O33   O     O_R   0.545960 0.049620 0.170320 -0.526731
O34   O     O_R   0.454040 0.049620 0.829680 -0.526966
O35   O     O_R   0.045960 0.549620 0.170320 -0.526394
O36   O     O_R   0.954040 0.549620 0.829680 -0.528440
O37   O     O_R   0.681390 0.958010 0.176690 -0.496987
O38   O     O_R   0.318610 0.958010 0.823310 -0.494905
O39   O     O_R   0.181390 0.458010 0.176690 -0.498567
O40   O     O_R   0.818610 0.458010 0.823310 -0.494465
O41   O     O_R   0.787510 0.044390 0.330970 -0.523216
O42   O     O_R   0.212490 0.044390 0.669030 -0.513252
O43   O     O_R   0.287510 0.544390 0.330970 -0.518527
O44   O     O_R   0.712490 0.544390 0.669030 -0.515517
O45   O     O_R   0.765630 0.293570 0.323840 -0.523991
O46   O     O_R   0.234370 0.293570 0.676160 -0.523426
O47   O     O_R   0.265630 0.793570 0.323840 -0.523348
O48   O     O_R   0.734370 0.793570 0.676160 -0.523636
O49   O     O_R   0.670190 0.410420 0.329080 -0.531554
O50   O     O_R   0.329810 0.410420 0.670920 -0.525558
O51   O     O_R   0.170190 0.910420 0.329080 -0.529440
O52   O     O_R   0.829810 0.910420 0.670920 -0.528129
H61   H     H_    0.923965 0.469651 0.560329 0.176148
H62   H     H_    0.000573 0.369405 0.438549 0.139708
H63   H     H_    0.503608 0.869623 0.563313 0.138666
H64   H     H_    0.579182 0.970055 0.440102 0.175599
C125  C     C_3   0.649716 0.776948 0.417240 -0.233066
C126  C     C_3   0.604233 0.685611 0.459156 -0.321422
C127  C     C_3   0.552074 0.622219 0.410009 -0.458554
H65   H     H_    0.519582 0.688503 0.380377 0.133463
H66   H     H_    0.579815 0.564456 0.370853 0.191833
H67   H     H_    0.516726 0.565263 0.442387 0.135441
H68   H     H_    0.636029 0.615360 0.485496 0.175762
H69   H     H_    0.575153 0.731516 0.502217 0.166181
H70   H     H_    0.678931 0.727558 0.376218 0.145982
H71   H     H_    0.612910 0.824937 0.382359 0.179236
C128  C     C_3   0.365454 0.808724 0.577348 -0.232898
C129  C     C_3   0.405057 0.705178 0.539816 -0.333392
C130  C     C_3   0.450122 0.634822 0.593084 -0.454335
H72   H     H_    0.484451 0.695892 0.624239 0.137340
H73   H     H_    0.416507 0.584254 0.630997 0.187169
H74   H     H_    0.483456 0.569592 0.564012 0.138036
H75   H     H_    0.368970 0.640269 0.514894 0.178825
H76   H     H_    0.438106 0.741033 0.496466 0.156406
H77   H     H_    0.339934 0.768454 0.624425 0.158711
H78   H     H_    0.403639 0.870425 0.601039 0.193947
C131  C     C_3   0.136940 0.305052 0.422352 -0.231401
C132  C     C_3   0.096794 0.202542 0.460344 -0.331912
C133  C     C_3   0.050967 0.133249 0.407446 -0.455217
H79   H     H_    0.016561 0.195084 0.376754 0.136392
H80   H     H_    0.083995 0.082453 0.369121 0.187718
H81   H     H_    0.017632 0.068425 0.436801 0.137762
H82   H     H_    0.132448 0.136880 0.485375 0.179001
H83   H     H_    0.064155 0.239189 0.503820 0.155705
H84   H     H_    0.163414 0.264030 0.376180 0.156116
H85   H     H_    0.098841 0.365729 0.397357 0.193726
C134  C     C_3   0.852142 0.278952 0.583133 -0.233388
C135  C     C_3   0.897426 0.186978 0.541520 -0.322078
C136  C     C_3   0.949170 0.122849 0.590939 -0.457405
H86   H     H_    0.981644 0.188677 0.620787 0.133895
H87   H     H_    0.921062 0.065180 0.629901 0.191771
H88   H     H_    0.984573 0.065667 0.558740 0.135436
H89   H     H_    0.865411 0.117163 0.515226 0.175574
H90   H     H_    0.926770 0.232484 0.498484 0.166183
H91   H     H_    0.822693 0.229908 0.624320 0.146170
H92   H     H_    0.888864 0.326602 0.618159 0.179229
C137  C     C_3   0.649812 0.112117 0.650620 -0.268016
C138  C     C_3   0.685536 0.140673 0.722319 -0.306251
C139  C     C_3   0.636884 0.117122 0.785191 -0.431069
H93   H     H_    0.590160 0.175840 0.780717 0.161978
H94   H     H_    0.620606 0.020722 0.786246 0.165686
H95   H     H_    0.664139 0.138753 0.835986 0.125676
H96   H     H_    0.733104 0.084348 0.728676 0.184684
H97   H     H_    0.701432 0.237403 0.723857 0.174113
H98   H     H_    0.603324 0.170367 0.646556 0.159485
H99   H     H_    0.634583 0.015825 0.651723 0.160609
C140  C     C_3   0.352220 0.117759 0.355298 -0.254777
C141  C     C_3   0.326000 0.104699 0.277719 -0.301812
C142  C     C_3   0.322567 0.225729 0.238315 -0.426425
H100  H     H_    0.286002 0.288402 0.265596 0.184209
H101  H     H_    0.375080 0.267813 0.235562 0.154720
H102  H     H_    0.303753 0.210516 0.182867 0.139422
H103  H     H_    0.362259 0.044374 0.248025 0.160970
H104  H     H_    0.273588 0.062955 0.276120 0.183567
H105  H     H_    0.390447 0.192393 0.356089 0.161386
H106  H     H_    0.378712 0.032901 0.371724 0.160037
C143  C     C_3   0.152490 0.627802 0.644311 -0.261240
C144  C     C_3   0.182299 0.630068 0.720617 -0.306787
C145  C     C_3   0.124713 0.617701 0.776207 -0.427634
H107  H     H_    0.086169 0.691871 0.769652 0.161834
H108  H     H_    0.098088 0.529026 0.770567 0.173363
H109  H     H_    0.147572 0.624171 0.830608 0.123696
H110  H     H_    0.220390 0.555950 0.728435 0.187343
H111  H     H_    0.209740 0.717227 0.730060 0.170884
H112  H     H_    0.114842 0.703514 0.640851 0.160802
H113  H     H_    0.125390 0.540866 0.633915 0.171365
C146  C     C_3   0.853397 0.596206 0.347977 -0.259226
C147  C     C_3   0.821617 0.613717 0.272997 -0.303723
C148  C     C_3   0.831468 0.741909 0.244315 -0.422400
H114  H     H_    0.802488 0.808171 0.277463 0.188454
H115  H     H_    0.887639 0.766323 0.243329 0.154162
H116  H     H_    0.811252 0.746205 0.188791 0.140421
H117  H     H_    0.847665 0.550488 0.235190 0.159212
H118  H     H_    0.765177 0.591133 0.273298 0.178283
H119  H     H_    0.901677 0.649083 0.351283 0.160968
H120  H     H_    0.866089 0.499133 0.351820 0.145907

loop_
_geom_bond_atom_site_label_1
_geom_bond_atom_site_label_2
_ccdc_geom_bond_type
C127  H66   S    
C11   H35   S    
C129  H75   S    
Cr10  O14   S    
C9    H33   S    
C102  O50   A    
C73   C93   S    
C88   C96   S    
C75   C95   S    
C12   H36   S    
Cr5   O49   S    
C141  H104  S    
Cr4   O44   S    
C79   C99   A    
C135  C136  S    
C22   C38   S    
C23   C43   A    
C1    O25   A    
C132  C133  S    
C34   H50   S    
C8    H32   S    
Cr1   O17   S    
C113  C122  A    
C147  C148  S    
C38   H54   S    
C70   C74   A    
Cr8   O20   S    
C107  O11   A    
Cr6   O6    S    
C62   H64   S    
C135  H90   S    
C59   C60   A    
C29   H41   S    
C109  O13   A    
C25   C29   A    
C47   C116  S    
C27   C31   A    
C146  C147  S    
C7    C119  A    
C28   C32   A    
C68   C101  S    
C25   C41   A    
C144  C145  S    
C39   H59   S    
C28   C44   A    
C17   C21   A    
C36   H52   S    
C37   H57   S    
C19   C23   A    
C95   H27   S    
C66   C82   A    
C39   H55   S    
C78   C82   A    
C140  C141  S    
C40   H56   S    
C93   H25   S    
C68   C72   A    
Cr3   O47   S    
C45   O29   A    
C64   H62   S    
Cr4   O48   S    
C35   H45   S    
Cr2   O42   S    
C140  H105  S    
C125  H70   S    
C50   C57   A    
C66   C103  S    
C106  O10   A    
C49   C106  S    
C134  H92   S    
C76   C100  A    
C86   H18   S    
C136  H87   S    
C104  O48   A    
C76   C96   S    
Cr3   O19   S    
C66   C70   A    
C126  H68   S    
C49   C53   A    
C103  O51   A    
Cr6   O18   S    
C51   C55   A    
C111  O43   A    
C25   H37   S    
Cr6   O30   S    
C80   C134  S    
C8    C10   A    
C2    O22   A    
C32   H44   S    
C19   C35   S    
Cr2   O22   S    
C41   C89   S    
C67   C83   A    
C116  C123  A    
Cr9   O13   S    
C108  O12   A    
C123  C124  A    
C74   C98   A    
C53   C54   A    
C138  H97   S    
C95   H23   S    
C131  H85   S    
C125  C126  S    
C48   O32   A    
C81   H13   S    
C91   O39   A    
C121  H1    S    
C148  H115  S    
Cr12  O16   S    
C53   C61   S    
C45   C114  S    
C129  C130  S    
C142  H101  S    
C87   C95   S    
Cr2   O46   S    
C50   C105  S    
Cr3   O3    S    
C56   C64   S    
C77   C97   A    
C102  O46   A    
C9    C10   A    
Cr4   O24   S    
Cr5   O5    S    
Cr2   O2    S    
C128  H77   S    
C85   C137  S    
C87   C143  S    
C64   H12   S    
C55   C63   S    
C63   H11   S    
Cr9   O33   S    
C30   H42   S    
C132  H82   S    
C133  H81   S    
C77   C125  S    
C21   C41   A    
C104  O52   A    
C147  H117  S    
C116  C120  A    
C42   C90   S    
C107  O7    A    
C137  C138  S    
Cr7   O31   S    
C97   C109  S    
C105  O5    A    
C99   C111  S    
C75   C99   A    
Cr10  O38   S    
C114  C118  A    
C130  H73   S    
C88   C146  S    
Cr4   O20   S    
C113  C117  A    
C35   H51   S    
C26   C30   A    
C115  C119  A    
C137  H98   S    
C69   C85   S    
C26   C42   A    
Cr11  O11   S    
C144  H110  S    
C7    H31   S    
C141  C142  S    
C145  H109  S    
C129  H76   S    
C46   C113  S    
C18   C22   A    
C44   C92   S    
C1    O21   A    
C110  O42   A    
C15   C31   A    
C16   C32   A    
C89   O1    A    
C13   C17   A    
C138  H96   S    
C117  C118  A    
C57   C58   A    
Cr12  O40   S    
Cr10  O34   S    
Cr5   O17   S    
C61   C62   S    
C63   C64   S    
C47   O31   A    
C79   C131  S    
C62   H10   S    
Cr5   O29   S    
C134  C135  S    
Cr7   O27   S    
C146  H120  S    
C92   O4    A    
Cr11  O15   S    
C55   C56   A    
C6    H30   S    
Cr3   O43   S    
C98   C110  S    
C74   C94   S    
C133  H79   S    
C143  H113  S    
C80   C84   A    
C101  O49   A    
Cr3   O23   S    
C128  C129  S    
C15   C19   A    
C50   C54   A    
C86   C140  S    
C88   H20   S    
C13   C29   A    
C5    C11   A    
Cr8   O32   S    
C6    C12   A    
C138  C139  S    
Cr10  O10   S    
C26   H38   S    
C2    O26   A    
C61   H9    S    
Cr2   O18   S    
C114  C121  A    
C52   C107  S    
C4    O24   A    
C3    O27   A    
C69   C73   A    
Cr7   O7    S    
C127  H67   S    
C145  H107  S    
C94   H22   S    
Cr11  O35   S    
C46   O34   A    
C110  O14   A    
C17   C33   S    
C83   H15   S    
C141  H103  S    
Cr8   O8    S    
C68   C84   A    
Cr6   O26   S    
C122  H2    S    
C139  H94   S    
C27   H39   S    
C139  H93   S    
Cr12  O12   S    
Cr8   O52   S    
C54   C62   S    
C134  H91   S    
Cr7   O19   S    
C33   C37   S    
C38   H58   S    
C31   H43   S    
C35   C39   S    
Cr4   O4    S    
C136  H86   S    
C58   H6    S    
C65   C81   A    
C77   C81   A    
C61   H63   S    
C1    C16   S    
Cr9   O37   S    
C2    C15   S    
C121  C122  A    
C3    C14   S    
Cr7   O51   S    
C71   C87   S    
C63   H61   S    
C135  H89   S    
C100  C112  S    
C24   C44   A    
Cr11  O39   S    
C36   H46   S    
Cr1   O41   S    
C115  C124  A    
Cr8   O28   S    
C124  H4    S    
C28   H40   S    
C119  C120  A    
C105  O9    A    
C10   H34   S    
Cr10  O18   S    
C57   H5    S    
C131  H84   S    
C60   H8    S    
C79   C83   A    
C143  C144  S    
C65   C69   A    
C92   O40   A    
C67   C71   A    
C148  H114  S    
C111  O15   A    
C20   C36   S    
C27   C43   A    
C21   C37   S    
C3    O23   A    
C142  H100  S    
C33   H49   S    
Cr9   O9    S    
C140  H106  S    
Cr1   O21   S    
C125  H71   S    
C37   H53   S    
C123  H3    S    
C34   H48   S    
C78   C128  S    
C14   C18   A    
C72   C76   A    
Cr6   O50   S    
C73   C97   A    
Cr12  O36   S    
C126  C127  S    
C89   O37   A    
C132  H83   S    
C112  O16   A    
C133  H80   S    
C136  H88   S    
C96   H28   S    
C47   O35   A    
C147  H118  S    
C90   O38   A    
C4    C13   S    
C86   C94   S    
Cr11  O19   S    
C20   C24   A    
C51   C108  S    
C78   C98   A    
C103  O47   A    
Cr1   O45   S    
C126  H69   S    
C101  O45   A    
C130  H72   S    
C94   H26   S    
C16   C20   A    
C91   O3    A    
Cr1   O1    S    
C80   C100  A    
C45   O33   A    
C14   C30   A    
C72   C88   S    
C139  H95   S    
C144  H111  S    
C145  H108  S    
C36   C40   S    
Cr5   O25   S    
C112  O44   A    
C4    O28   A    
C43   C91   S    
C49   C58   A    
C5    C117  A    
C148  H116  S    
C33   H47   S    
C52   C59   A    
C106  O6    A    
C85   C93   S    
C142  H102  S    
C131  C132  S    
C46   O30   A    
C85   H17   S    
C93   H21   S    
C18   C34   S    
C82   H14   S    
C48   C115  S    
C84   H16   S    
C128  H78   S    
C96   H24   S    
C5    H29   S    
C87   H19   S    
C146  H119  S    
C127  H65   S    
C70   C86   S    
C8    C120  A    
C40   H60   S    
C7    C9    A    
C34   C38   S    
C143  H112  S    
C11   C12   A    
C51   C60   A    
C109  O41   A    
C90   O2    A    
Cr9   O17   S    
C108  O8    A    
C71   C75   A    
C22   C42   A    
C23   C39   S    
C24   C40   S    
C130  H74   S    
C59   H7    S    
C48   O36   A    
C65   C104  S    
C137  H99   S    
C6    C118  A    
C52   C56   A    
C67   C102  S    
Cr12  O20   S    
