data_mof_unit_50981.cif
_audit_creation_date              2012-10-26T20:33:58-0400
_audit_creation_method            fapswitch 2.2
_symmetry_space_group_name_H-M    P1
_symmetry_Int_Tables_number       1
_space_group_crystal_system       triclinic
_cell_length_a                    15.926483
_cell_length_b                    9.089032
_cell_length_c                    7.799438
_cell_angle_alpha                 89.981157
_cell_angle_beta                  90.240244
_cell_angle_gamma                 90.002885
_cell_volume                      1129.0079059

loop_
_atom_site_label
_atom_site_type_symbol
_atom_type_description
_atom_site_fract_x
_atom_site_fract_y
_atom_site_fract_z
_atom_type_partial_charge
C1    C     C_R   0.500007 0.220084 0.500017 0.562639
C2    C     C_3   0.047958 0.379403 0.351400 -0.043513
C3    C     C_3   0.951979 0.438378 0.688932 -0.053653
C4    C     C_3   0.949304 0.370316 0.364865 -0.045414
C5    C     C_1   0.749422 0.495095 0.501765 0.045838
C6    C     C_1   0.250573 0.494989 0.498758 0.042037
C7    C     C_3   0.083274 0.478963 0.500578 -0.036285
C8    C     C_3   0.916747 0.479065 0.506138 -0.033047
C9    C     C_3   0.951295 0.634570 0.461324 -0.280131
C10   C     C_3   0.048347 0.636517 0.468629 -0.276638
C11   C     C_2   0.909583 0.311231 0.782363 0.618608
C12   C     C_1   0.824644 0.488700 0.503899 0.006591
C13   C     C_2   0.911142 0.217276 0.378461 0.645326
C14   C     C_2   0.090557 0.288198 0.746781 0.659042
C15   C     C_2   0.092422 0.233859 0.317137 0.641137
C16   C     C_1   0.175350 0.488545 0.498668 -0.000474
C17   C     C_R   0.339889 0.499897 0.499636 0.551556
C18   C     C_R   0.660110 0.499923 0.500398 0.551869
C19   C     C_1   0.500011 0.934616 0.499975 -0.029959
C20   C     C_1   0.500012 0.065399 0.500022 -0.023309
C21   C     C_R   0.500006 0.779926 0.499982 0.546361
C22   C     C_3   0.050805 0.429740 0.681711 -0.049889
Cu1   Cu    Cu3+1 0.500000 0.500010 0.669080 1.067010
Cu2   Cu    Cu3+1 0.500000 0.500010 0.330920 1.063778
H1    H     H_    0.069402 0.712391 0.572351 0.164354
H2    H     H_    0.813727 0.085117 0.317161 0.343254
H3    H     H_    0.179480 0.196209 0.897517 0.353195
H4    H     H_    0.100755 0.054930 0.164846 0.339767
H5    H     H_    0.073098 0.682131 0.346291 0.147031
H6    H     H_    0.926299 0.718317 0.551960 0.165759
H7    H     H_    0.930046 0.667723 0.330699 0.144301
H8    H     H_    0.060953 0.441316 0.230893 0.109765
H9    H     H_    0.073870 0.514720 0.773741 0.107423
H10   H     H_    0.924651 0.413182 0.240634 0.138836
H11   H     H_    0.936924 0.534110 0.772717 0.082532
H12   H     H_    0.906291 0.185882 0.994972 0.378922
N1    N     N_1   0.500000 0.499970 0.076820 -0.070727
N2    N     N_1   0.500000 0.499970 0.923180 -0.070576
O1    O     O_R   0.500000 0.288400 0.642760 -0.491337
O2    O     O_R   0.937138 0.274111 0.946900 -0.672478
O3    O     O_2   0.945820 0.119413 0.459589 -0.433284
O4    O     O_R   0.833819 0.189796 0.299092 -0.694197
O5    O     O_2   0.065067 0.168081 0.699503 -0.415153
O6    O     O_R   0.157072 0.296618 0.863972 -0.681508
O7    O     O_2   0.152016 0.193376 0.404357 -0.485328
O8    O     O_R   0.066711 0.148537 0.177347 -0.648899
O9    O     O_R   0.500000 0.288400 0.357240 -0.491530
O10   O     O_R   0.379440 0.500020 0.642850 -0.491580
O11   O     O_R   0.379440 0.500020 0.357150 -0.497157
O12   O     O_R   0.620560 0.500020 0.642850 -0.494719
O13   O     O_R   0.620560 0.500020 0.357150 -0.494713
O14   O     O_R   0.500000 0.711620 0.642810 -0.499082
O15   O     O_R   0.500000 0.711620 0.357190 -0.499758
O16   O     O_2   0.849957 0.245434 0.719822 -0.472595

loop_
_geom_bond_atom_site_label_1
_geom_bond_atom_site_label_2
_ccdc_geom_bond_type
C8    C9    S    
C7    C10   S    
C2    C4    S    
Cu1   Cu2   S    
N1    N2    T    
Cu1   O10   S    
Cu1   N2    S    
C9    C10   S    
C3    C22   S    
C1    O1    A    
C19   C20   T    
C17   O10   A    
C3    H11   S    
C8    C12   S    
C14   C22   S    
Cu2   O13   S    
C13   O3    D    
Cu2   N1    S    
C21   O15   A    
C2    C15   S    
C10   H5    S    
H4    O8    S    
Cu1   O14   S    
C11   O16   D    
C9    H6    S    
Cu1   O1    S    
C18   O12   A    
Cu2   O11   S    
C10   H1    S    
C2    H8    S    
C13   O4    S    
C19   C21   S    
C18   O13   A    
C11   O2    S    
C4    H10   S    
C3    C11   S    
C9    H7    S    
C6    C16   T    
C7    C22   S    
C4    C13   S    
H12   O2    S    
H2    O4    S    
C5    C12   T    
C14   O6    S    
C3    C8    S    
C17   O11   A    
C4    C8    S    
C6    C17   S    
C22   H9    S    
C15   O7    D    
C7    C16   S    
C1    C20   S    
C5    C18   S    
C15   O8    S    
Cu2   O15   S    
Cu2   O9    S    
H3    O6    S    
C21   O14   A    
C1    O9    A    
C2    C7    S    
C14   O5    D    
Cu1   O12   S    
