data_mof_unit_27283.cif
_audit_creation_date              2012-12-10T17:08:17-0500
_audit_creation_method            fapswitch 2.2
_symmetry_space_group_name_H-M    P1
_symmetry_Int_Tables_number       1
_space_group_crystal_system       triclinic
_cell_length_a                    18.272462
_cell_length_b                    18.305538
_cell_length_c                    34.443343
_cell_angle_alpha                 90.00301
_cell_angle_beta                  89.86468
_cell_angle_gamma                 89.936767
_cell_volume                      11520.8198293

loop_
_atom_site_label
_atom_site_type_symbol
_atom_type_description
_atom_site_fract_x
_atom_site_fract_y
_atom_site_fract_z
_atom_type_partial_charge
C1    C     C_R   0.000060 0.500281 0.894170 0.503843
C2    C     C_R   0.061459 0.528727 0.791022 0.015284
C3    C     C_R   0.585211 0.639434 0.034911 -0.141060
C4    C     C_R   0.637845 0.584701 0.032657 -0.128823
C5    C     C_R   0.617776 0.327294 0.074814 -0.126333
C6    C     C_R   0.360886 0.413408 0.035864 -0.141114
C7    C     C_R   0.423148 0.630539 0.983085 -0.131082
C8    C     C_R   0.856797 0.090301 0.542718 -0.140206
C9    C     C_R   0.925735 0.868189 0.498920 -0.126384
C10   C     C_R   0.294928 0.759448 0.390944 -0.124723
C11   C     C_R   0.134655 0.191356 0.586198 -0.127294
C12   C     C_R   0.187097 0.136307 0.585702 -0.118329
C13   C     C_R   0.460551 0.052901 0.791006 0.024884
C14   C     C_R   0.241503 0.705505 0.390902 -0.121347
C15   C     C_R   0.872581 0.921979 0.495959 -0.130976
C16   C     C_R   0.911975 0.142256 0.539803 -0.127669
C17   C     C_R   0.330891 0.724004 0.997244 0.027779
C18   C     C_R   0.271092 0.325342 0.012527 0.031087
C19   C     C_R   0.685883 0.258975 0.025882 0.034324
C20   C     C_R   0.728558 0.673875 0.011257 0.029249
C21   C     C_R   0.674156 0.729023 0.012111 0.030368
C22   C     C_R   0.740641 0.313804 0.025931 0.033225
C23   C     C_R   0.326055 0.270731 0.011960 0.026747
C24   C     C_R   0.936168 0.480349 0.791245 0.015600
C25   C     C_R   0.276104 0.669246 0.997282 0.026867
C26   C     C_R   0.824757 0.230231 0.513605 0.029499
C27   C     C_R   0.776167 0.829791 0.500783 0.023644
C28   C     C_R   0.230209 0.715230 0.461424 0.028927
C29   C     C_R   0.246519 0.192764 0.529883 0.031131
C30   C     C_R   0.192233 0.248097 0.529933 0.033014
C31   C     C_R   0.284915 0.770084 0.461438 0.029074
C32   C     C_R   0.830642 0.774681 0.502051 0.025944
C33   C     C_R   0.769509 0.176007 0.514634 0.034189
C34   C     C_R   0.202000 0.690047 0.003603 0.018839
C35   C     C_R   0.024470 0.437273 0.291103 0.014207
C36   C     C_R   0.306482 0.198423 0.001953 0.028716
C37   C     C_R   0.802133 0.305762 0.001295 0.038191
C38   C     C_R   0.693606 0.801459 0.002233 0.030325
C39   C     C_R   0.801376 0.693399 0.001846 0.029430
C40   C     C_R   0.694294 0.197769 0.001244 0.038430
C41   C     C_R   0.198679 0.306420 0.002124 0.031161
C42   C     C_R   0.309974 0.797959 0.003719 0.021493
C43   C     C_R   0.698214 0.193978 0.501907 0.032727
C44   C     C_R   0.808753 0.700538 0.503710 0.021996
C45   C     C_R   0.307366 0.800556 0.497321 0.027334
C46   C     C_R   0.544187 0.050057 0.290913 0.024636
C47   C     C_R   0.194484 0.302662 0.501008 0.039054
C48   C     C_R   0.301979 0.194276 0.501182 0.036569
C49   C     C_R   0.199544 0.692592 0.497307 0.027144
C50   C     C_R   0.701282 0.808932 0.503043 0.015519
C51   C     C_R   0.806167 0.301773 0.501613 0.031042
C52   C     C_R   0.184061 0.762510 0.012011 -0.150916
C53   C     C_R   0.233880 0.180433 0.993858 -0.148056
C54   C     C_R   0.809164 0.244695 0.977282 -0.143839
C55   C     C_R   0.766329 0.819607 0.994384 -0.147109
C56   C     C_R   0.819867 0.766065 0.994421 -0.144526
C57   C     C_R   0.980521 0.564048 0.291219 0.021909
C58   C     C_R   0.755633 0.191070 0.977263 -0.143648
C59   C     C_R   0.180445 0.234074 0.993785 -0.144859
C60   C     C_R   0.237327 0.815721 0.012108 -0.149298
C61   C     C_R   0.680910 0.265476 0.491160 -0.145431
C62   C     C_R   0.735053 0.681982 0.507558 -0.150274
C63   C     C_R   0.278890 0.774390 0.532304 -0.150471
C64   C     C_R   0.248800 0.302077 0.472441 -0.143972
C65   C     C_R   0.302307 0.248333 0.472585 -0.143136
C66   C     C_R   0.225559 0.720914 0.532297 -0.151359
C67   C     C_R   0.681982 0.735610 0.507526 -0.152202
C68   C     C_R   0.455572 0.949336 0.291022 0.028569
C69   C     C_R   0.734349 0.319099 0.491318 -0.143129
C70   C     C_R   0.461247 0.052736 0.831616 -0.114029
C71   C     C_R   0.937142 0.480255 0.831754 -0.121981
C72   C     C_R   0.543955 0.948993 0.831705 -0.121271
C73   C     C_R   0.061881 0.525467 0.831570 -0.123058
C74   C     C_R   0.980909 0.563323 0.331732 -0.119545
C75   C     C_R   0.455165 0.950776 0.331705 -0.112388
C76   C     C_R   0.022316 0.437366 0.331646 -0.124505
C77   C     C_R   0.545147 0.048141 0.331572 -0.114553
C78   C     C_3   0.702362 0.880051 0.799688 -0.016433
C79   C     C_R   0.504050 0.001614 0.770570 -0.020733
C80   C     C_3   0.759152 0.865770 0.768026 -0.388468
C81   C     C_3   0.178495 0.652307 0.799732 -0.015252
C82   C     C_3   0.209989 0.701500 0.768084 -0.386262
C83   C     C_3   0.302012 0.131924 0.791467 -0.023067
C84   C     C_3   0.258403 0.185197 0.816303 -0.356346
C85   C     C_3   0.816226 0.358886 0.799176 -0.017173
C86   C     C_3   0.780251 0.312755 0.767670 -0.383175
C87   C     C_3   0.143720 0.315488 0.299432 -0.016575
C88   C     C_3   0.191028 0.281079 0.267762 -0.386108
C89   C     C_3   0.598148 0.218274 0.291636 -0.022328
C90   C     C_R   0.998617 0.504949 0.770710 -0.018571
C91   C     C_3   0.644635 0.269077 0.316292 -0.359732
C92   C     C_3   0.862593 0.696090 0.291586 -0.024621
C93   C     C_3   0.841406 0.761080 0.316733 -0.352483
C94   C     C_3   0.394908 0.777213 0.286027 -0.027673
C95   C     C_3   0.331772 0.727132 0.275168 -0.373469
C96   C     C_3   0.140787 0.387450 0.151349 0.006852
C97   C     C_3   0.173272 0.438216 0.120401 -0.256349
C98   C     C_3   0.256655 0.439197 0.122503 -0.491463
C99   C     C_3   0.524292 0.176971 0.150422 -0.008722
C100  C     C_3   0.460179 0.175881 0.121662 -0.257868
C101  C     C_R   0.002428 0.500683 0.270736 -0.019103
C102  C     C_3   0.416213 0.246758 0.123379 -0.487463
C103  C     C_3   0.864052 0.618519 0.152529 0.006800
C104  C     C_3   0.828635 0.574457 0.119811 -0.255229
C105  C     C_3   0.745412 0.579753 0.121769 -0.492181
C106  C     C_3   0.470507 0.823510 0.150564 -0.007022
C107  C     C_3   0.534260 0.822061 0.121486 -0.256055
C108  C     C_3   0.575319 0.749490 0.123235 -0.487964
C109  C     C_3   0.659293 0.936363 0.638547 0.006751
C110  C     C_3   0.706440 0.881730 0.616071 -0.243670
C111  C     C_3   0.778380 0.915905 0.602846 -0.493979
C112  C     C_R   0.500373 0.000025 0.894185 0.498987
C113  C     C_R   0.499681 0.999903 0.270485 -0.021916
C114  C     C_3   0.108201 0.644435 0.649128 0.001814
C115  C     C_3   0.062699 0.672390 0.614841 -0.257561
C116  C     C_3   0.064045 0.755625 0.612418 -0.495292
C117  C     C_3   0.329824 0.041720 0.653878 -0.007535
C118  C     C_3   0.324039 0.975086 0.626853 -0.258607
C119  C     C_3   0.250867 0.935907 0.631637 -0.487801
C120  C     C_3   0.884844 0.363531 0.653128 0.007503
C121  C     C_3   0.931996 0.328808 0.621300 -0.256017
C122  C     C_3   0.931110 0.245784 0.624534 -0.492959
C123  C     C_R   0.591908 0.900740 0.770438 0.266134
C124  C     C_R   0.122643 0.555093 0.770355 0.266191
C125  C     C_R   0.416256 0.102555 0.770500 0.252191
C126  C     C_R   0.873923 0.456353 0.770860 0.266476
C127  C     C_R   0.047989 0.374979 0.270504 0.266942
C128  C     C_R   0.586391 0.101505 0.270340 0.252967
C129  C     C_R   0.958143 0.626780 0.270865 0.250463
C130  C     C_R   0.413251 0.898069 0.270522 0.261118
C131  C     C_R   0.047067 0.375485 0.230037 -0.086568
C132  C     C_R   0.500066 0.999780 0.394163 0.495134
C133  C     C_R   0.584729 0.102239 0.229721 -0.099467
C134  C     C_R   0.958040 0.626212 0.230340 -0.100429
C135  C     C_R   0.413687 0.898650 0.229856 -0.099538
C136  C     C_R   0.591001 0.900614 0.729875 -0.079639
C137  C     C_R   0.121926 0.554775 0.729860 -0.085496
C138  C     C_R   0.415530 0.100934 0.729927 -0.100438
C139  C     C_R   0.873942 0.458005 0.730431 -0.087250
C140  C     C_R   0.026536 0.438438 0.209476 -0.044560
C141  C     C_R   0.540421 0.053188 0.209085 -0.037795
C142  C     C_R   0.977482 0.562978 0.209641 -0.040006
C143  C     C_R   0.000171 0.500009 0.394198 0.499763
C144  C     C_R   0.458041 0.947643 0.209143 -0.039442
C145  C     C_R   0.548043 0.950842 0.709191 -0.035790
C146  C     C_R   0.059830 0.531658 0.709349 -0.043382
C147  C     C_R   0.457307 0.049441 0.709347 -0.039062
C148  C     C_R   0.936638 0.479166 0.709679 -0.044521
C149  C     C_R   0.002141 0.500693 0.229912 -0.055864
C150  C     C_R   0.499419 0.000218 0.229548 -0.055500
C151  C     C_R   0.503698 0.001113 0.729671 -0.056588
C152  C     C_R   0.998342 0.505358 0.729877 -0.056584
C153  C     C_R   0.031245 0.440626 0.168754 0.221725
C154  C     C_R   0.501720 0.000361 0.851831 -0.016951
C155  C     C_R   0.535712 0.056394 0.168277 0.220123
C156  C     C_R   0.971681 0.560648 0.168965 0.220683
C157  C     C_R   0.462656 0.944513 0.168322 0.218677
C158  C     C_R   0.549032 0.952054 0.668355 0.201577
C159  C     C_R   0.057899 0.535107 0.668584 0.221293
C160  C     C_R   0.452100 0.044133 0.668715 0.228933
C161  C     C_R   0.939228 0.472942 0.669030 0.220185
C162  C     C_R   0.000718 0.500324 0.148512 0.034798
C163  C     C_R   0.499557 0.000235 0.148190 0.042588
C164  C     C_R   0.501349 0.999345 0.648292 0.033904
C165  C     C_R   0.999903 0.501736 0.851840 -0.019810
C166  C     C_R   0.999162 0.502574 0.648484 0.036423
C167  C     C_R   0.000012 0.500055 0.105888 0.522100
C168  C     C_R   0.499894 0.000046 0.105778 0.554107
C169  C     C_R   0.500411 0.999844 0.605799 0.536483
C170  C     C_R   0.999842 0.500366 0.605897 0.522271
C171  C     C_R   0.859567 0.639504 0.000309 0.482036
C172  C     C_R   0.361772 0.858218 0.001150 0.492880
C173  C     C_R   0.140574 0.360525 0.000398 0.483486
C174  C     C_R   0.639973 0.139991 0.999987 0.489119
C175  C     C_R   0.141761 0.638250 0.001061 0.489065
C176  C     C_R   0.001021 0.500153 0.351873 -0.023602
C177  C     C_R   0.639523 0.859541 0.000402 0.485097
C178  C     C_R   0.859905 0.360125 0.000058 0.486931
C179  C     C_R   0.360380 0.140330 0.000302 0.485260
C180  C     C_R   0.359812 0.139826 0.500086 0.489326
C181  C     C_R   0.860238 0.359755 0.500193 0.483630
C182  C     C_R   0.641656 0.861585 0.500960 0.483825
C183  C     C_R   0.140826 0.639179 0.499338 0.479023
C184  C     C_R   0.640339 0.139710 0.500247 0.486972
C185  C     C_R   0.140239 0.360376 0.499744 0.486322
C186  C     C_R   0.360798 0.859213 0.499354 0.486579
C187  C     C_R   0.500180 0.999491 0.351806 -0.015203
C188  C     C_R   0.861232 0.641151 0.500933 0.489590
C189  C     C_R   0.297614 0.595435 0.991844 -0.101608
C190  C     C_R   0.398278 0.289389 0.022785 -0.101281
C191  C     C_R   0.732519 0.374829 0.050681 -0.098290
C192  C     C_R   0.602717 0.710882 0.024427 -0.110860
C193  C     C_R   0.709120 0.601516 0.021248 -0.100734
C194  C     C_R   0.624488 0.266705 0.050526 -0.088826
C195  C     C_R   0.289430 0.396463 0.024942 -0.109195
C196  C     C_R   0.404797 0.702563 0.991542 -0.099973
C197  C     C_R   0.786325 0.106334 0.529782 -0.106012
C198  C     C_R   0.547069 0.950182 0.791056 0.016104
C199  C     C_R   0.905322 0.795397 0.502749 -0.099673
C200  C     C_R   0.317403 0.790794 0.425758 -0.097523
C201  C     C_R   0.136687 0.246829 0.558537 -0.098146
C202  C     C_R   0.243043 0.136926 0.558066 -0.083618
C203  C     C_R   0.209941 0.682757 0.425724 -0.094757
C204  C     C_R   0.798690 0.903702 0.498300 -0.107387
C205  C     C_R   0.896283 0.211965 0.525782 -0.100870
C206  C     C_R   0.369738 0.577095 0.983326 -0.131497
C207  C     C_R   0.415258 0.360286 0.034408 -0.128118
C208  C     C_R   0.671549 0.381065 0.074923 -0.127358
H1    H     H_    0.127821 0.778685 0.017271 0.143028
H2    H     H_    0.718236 0.625327 0.509499 0.138696
H3    H     H_    0.417683 0.759100 0.314309 0.132059
H4    H     H_    0.439176 0.770134 0.263898 0.104078
H5    H     H_    0.309584 0.743078 0.246397 0.157469
H6    H     H_    0.351271 0.669725 0.273661 0.089843
H7    H     H_    0.287475 0.730957 0.297191 0.162752
H8    H     H_    0.162757 0.331547 0.146571 0.155432
H9    H     H_    0.159866 0.404568 0.180694 0.104841
H10   H     H_    0.156212 0.419635 0.091072 0.183699
H11   H     H_    0.152915 0.494752 0.124980 0.150348
H12   H     H_    0.274935 0.455892 0.151928 0.143112
H13   H     H_    0.296918 0.796736 0.559804 0.125300
H14   H     H_    0.278355 0.479175 0.101184 0.143408
H15   H     H_    0.279175 0.384263 0.115662 0.158021
H16   H     H_    0.559917 0.224246 0.143304 0.154111
H17   H     H_    0.503452 0.186702 0.180424 0.110112
H18   H     H_    0.481266 0.167717 0.091684 0.156690
H19   H     H_    0.422688 0.130165 0.128885 0.171075
H20   H     H_    0.394447 0.255702 0.153142 0.142364
H21   H     H_    0.369328 0.243412 0.103012 0.163029
H22   H     H_    0.450900 0.293905 0.114991 0.137529
H23   H     H_    0.845028 0.676042 0.150387 0.153767
H24   H     H_    0.250008 0.343791 0.450116 0.109329
H25   H     H_    0.844409 0.597827 0.181178 0.104175
H26   H     H_    0.847614 0.595438 0.091251 0.192598
H27   H     H_    0.844788 0.516130 0.122340 0.146586
H28   H     H_    0.725098 0.560511 0.150413 0.142381
H29   H     H_    0.721368 0.544786 0.098910 0.139574
H30   H     H_    0.727343 0.637009 0.116953 0.157315
H31   H     H_    0.433249 0.777320 0.143834 0.152710
H32   H     H_    0.491439 0.813499 0.180465 0.109519
H33   H     H_    0.513134 0.830665 0.091587 0.161641
H34   H     H_    0.573446 0.866479 0.128402 0.168841
H35   H     H_    0.344451 0.249042 0.450390 0.111364
H36   H     H_    0.595554 0.739160 0.153124 0.141286
H37   H     H_    0.623184 0.751340 0.103362 0.161363
H38   H     H_    0.538903 0.703986 0.114298 0.143904
H39   H     H_    0.689083 0.952833 0.665365 0.114915
H40   H     H_    0.650327 0.985437 0.620000 0.124676
H41   H     H_    0.718334 0.833802 0.634852 0.170887
H42   H     H_    0.675988 0.862386 0.590150 0.197055
H43   H     H_    0.767412 0.962310 0.582956 0.135326
H44   H     H_    0.811612 0.874532 0.587118 0.160847
H45   H     H_    0.810056 0.935646 0.628244 0.143037
H46   H     H_    0.203267 0.702645 0.559801 0.127922
H47   H     H_    0.164261 0.667478 0.646765 0.150201
H48   H     H_    0.084954 0.665547 0.676946 0.106378
H49   H     H_    0.084703 0.649498 0.587343 0.191828
H50   H     H_    0.005036 0.654294 0.618209 0.148874
H51   H     H_    0.040754 0.779855 0.639316 0.147893
H52   H     H_    0.030754 0.773903 0.587280 0.144843
H53   H     H_    0.120990 0.775484 0.608399 0.140376
H54   H     H_    0.284978 0.080299 0.646981 0.151730
H55   H     H_    0.320496 0.024550 0.684538 0.111196
H56   H     H_    0.330736 0.992613 0.596189 0.159445
H57   H     H_    0.625071 0.719405 0.509655 0.141553
H58   H     H_    0.367944 0.935270 0.633771 0.168849
H59   H     H_    0.244290 0.916321 0.661969 0.144650
H60   H     H_    0.248933 0.888032 0.611875 0.143316
H61   H     H_    0.204739 0.972746 0.624366 0.137516
H62   H     H_    0.828064 0.342575 0.650311 0.155424
H63   H     H_    0.904681 0.345332 0.682162 0.105359
H64   H     H_    0.911026 0.345099 0.592300 0.188085
H65   H     H_    0.989423 0.347905 0.624073 0.146629
H66   H     H_    0.951082 0.228215 0.653506 0.141896
H67   H     H_    0.967723 0.222385 0.602120 0.137131
H68   H     H_    0.719997 0.374154 0.482578 0.121136
H69   H     H_    0.874863 0.224566 0.619904 0.162144
H70   H     H_    0.260289 0.550420 0.994559 0.143671
H71   H     H_    0.441782 0.249305 0.023356 0.120466
H72   H     H_    0.773126 0.417825 0.051591 0.097746
H73   H     H_    0.218833 0.124762 0.986750 0.121781
H74   H     H_    0.560715 0.752109 0.027427 0.105478
H75   H     H_    0.748874 0.557721 0.021426 0.120341
H76   H     H_    0.581527 0.226088 0.051280 0.103775
H77   H     H_    0.248413 0.438778 0.027421 0.102631
H78   H     H_    0.449908 0.739823 0.993987 0.144837
H79   H     H_    0.744906 0.064503 0.532583 0.097781
H80   H     H_    0.948918 0.756331 0.506880 0.137312
H81   H     H_    0.361421 0.830014 0.424198 0.133067
H82   H     H_    0.094302 0.288163 0.559605 0.103475
H83   H     H_    0.282882 0.093225 0.558660 0.112689
H84   H     H_    0.856382 0.238615 0.958446 0.109406
H85   H     H_    0.170954 0.638553 0.424194 0.136171
H86   H     H_    0.760565 0.948550 0.498692 0.143342
H87   H     H_    0.940212 0.251528 0.525480 0.118292
H88   H     H_    0.384586 0.520848 0.977690 0.133690
H89   H     H_    0.470555 0.373769 0.042968 0.114038
H90   H     H_    0.665869 0.427696 0.093957 0.099876
H91   H     H_    0.530687 0.626559 0.045135 0.108765
H92   H     H_    0.623840 0.529281 0.040684 0.113346
H93   H     H_    0.570716 0.332635 0.093685 0.091839
H94   H     H_    0.374033 0.467860 0.045873 0.107494
H95   H     H_    0.781479 0.875402 0.987587 0.123158
H96   H     H_    0.479422 0.615762 0.977178 0.134569
H97   H     H_    0.868840 0.037265 0.555002 0.108389
H98   H     H_    0.983085 0.882983 0.498631 0.120678
H99   H     H_    0.319970 0.776417 0.363964 0.139950
H100  H     H_    0.092152 0.190730 0.608079 0.103958
H101  H     H_    0.183945 0.092974 0.606842 0.093823
H102  H     H_    0.225223 0.680340 0.363826 0.113579
H103  H     H_    0.888878 0.978347 0.492557 0.131859
H104  H     H_    0.966828 0.129038 0.549344 0.113557
H105  H     H_    0.428593 0.091857 0.847758 0.170648
H106  H     H_    0.875872 0.781099 0.987771 0.124022
H107  H     H_    0.889466 0.462245 0.847865 0.172357
H108  H     H_    0.575406 0.909199 0.847950 0.163188
H109  H     H_    0.109918 0.542501 0.847562 0.171871
H110  H     H_    0.964228 0.611503 0.347775 0.180049
H111  H     H_    0.421243 0.913017 0.347990 0.155904
H112  H     H_    0.038128 0.388934 0.347656 0.172607
H113  H     H_    0.579249 0.085739 0.347762 0.165531
H114  H     H_    0.063189 0.326251 0.214803 0.166316
H115  H     H_    0.618672 0.141358 0.214456 0.160350
H116  H     H_    0.942202 0.675646 0.215252 0.158674
H117  H     H_    0.761987 0.144059 0.958417 0.109992
H118  H     H_    0.379222 0.860031 0.214645 0.157698
H119  H     H_    0.624335 0.860795 0.714693 0.170116
H120  H     H_    0.170458 0.572995 0.714587 0.166632
H121  H     H_    0.381779 0.140133 0.714618 0.162424
H122  H     H_    0.824760 0.441289 0.715383 0.165459
H123  H     H_    0.721353 0.852896 0.826682 0.157405
H124  H     H_    0.699727 0.939719 0.806306 0.110066
H125  H     H_    0.745922 0.897644 0.741544 0.126033
H126  H     H_    0.814069 0.882706 0.778392 0.098658
H127  H     H_    0.760646 0.806687 0.760737 0.175492
H128  H     H_    0.124677 0.219316 0.986568 0.123966
H129  H     H_    0.210776 0.661146 0.826599 0.162125
H130  H     H_    0.121224 0.669268 0.806691 0.111386
H131  H     H_    0.175038 0.699755 0.741796 0.121277
H132  H     H_    0.212048 0.758757 0.778667 0.102313
H133  H     H_    0.266279 0.683594 0.760403 0.178231
H134  H     H_    0.297087 0.076558 0.804735 0.120314
H135  H     H_    0.277685 0.131176 0.761852 0.121455
H136  H     H_    0.261289 0.240895 0.803604 0.175703
H137  H     H_    0.200242 0.167815 0.817604 0.089541
H138  H     H_    0.280867 0.186479 0.846236 0.163442
H139  H     H_    0.221041 0.871797 0.017434 0.142164
H140  H     H_    0.785989 0.349606 0.826741 0.160328
H141  H     H_    0.873356 0.339438 0.804282 0.108562
H142  H     H_    0.812936 0.314825 0.740507 0.120262
H143  H     H_    0.776997 0.255008 0.777382 0.102797
H144  H     H_    0.724061 0.333080 0.761822 0.180081
H145  H     H_    0.151731 0.283623 0.326528 0.159512
H146  H     H_    0.163253 0.372024 0.305764 0.107784
H147  H     H_    0.190176 0.315274 0.241169 0.120674
H148  H     H_    0.248466 0.276846 0.277982 0.099868
H149  H     H_    0.170652 0.225511 0.260726 0.177915
H150  H     H_    0.625865 0.279589 0.482185 0.120683
H151  H     H_    0.542832 0.214539 0.305253 0.120026
H152  H     H_    0.593097 0.242523 0.262105 0.119747
H153  H     H_    0.699976 0.274857 0.303247 0.172889
H154  H     H_    0.618483 0.323787 0.317890 0.087609
H155  H     H_    0.649941 0.246735 0.346140 0.161173
H156  H     H_    0.837161 0.646222 0.304408 0.122212
H157  H     H_    0.840306 0.705114 0.261900 0.121158
H158  H     H_    0.865062 0.812006 0.304496 0.174635
H159  H     H_    0.780891 0.766482 0.317735 0.097453
H160  H     H_    0.862148 0.753195 0.346735 0.167322
O1    O     O_3   0.000000 0.500000 0.999990 -0.449285
O2    O     O_R   0.000000 0.560750 0.412560 -0.547229
O3    O     O_R   0.439250 1.000000 0.412560 -0.541645
O4    O     O_R   0.000000 0.439250 0.412560 -0.539658
O5    O     O_R   1.000000 0.560690 0.087420 -0.506574
O6    O     O_R   0.439310 0.000000 0.087420 -0.523188
O7    O     O_R   1.000000 0.439310 0.087420 -0.504031
O8    O     O_R   0.560690 0.000000 0.087420 -0.522171
O9    O     O_R   0.500000 0.060690 0.587420 -0.513102
O10   O     O_R   0.939310 0.500000 0.587420 -0.505801
O11   O     O_R   0.500000 0.939310 0.587420 -0.518164
O12   O     O_3   0.500000 1.000000 0.999990 -0.448675
O13   O     O_R   0.060690 0.500000 0.587420 -0.507649
O14   O     O_R   0.853830 0.585440 0.977070 -0.540716
O15   O     O_R   0.414560 0.853830 0.977070 -0.554683
O16   O     O_R   0.146170 0.414560 0.977070 -0.547174
O17   O     O_R   0.585440 0.146170 0.977070 -0.543785
O18   O     O_R   0.146170 0.585440 0.977070 -0.556334
O19   O     O_R   0.585440 0.853830 0.977070 -0.548265
O20   O     O_R   0.853830 0.414560 0.977070 -0.545385
O21   O     O_R   0.414560 0.146170 0.977070 -0.543102
O22   O     O_R   0.353830 0.085440 0.477070 -0.538547
O23   O     O_3   0.500000 0.000000 0.499990 -0.448649
O24   O     O_R   0.914560 0.353830 0.477070 -0.539733
O25   O     O_R   0.646170 0.914560 0.477070 -0.550317
O26   O     O_R   0.085440 0.646170 0.477070 -0.555508
O27   O     O_R   0.646170 0.085440 0.477070 -0.546929
O28   O     O_R   0.085440 0.353830 0.477070 -0.545385
O29   O     O_R   0.353830 0.914560 0.477070 -0.548210
O30   O     O_R   0.914560 0.646170 0.477070 -0.547945
O31   O     O_R   0.085460 0.353830 0.022910 -0.538060
O32   O     O_R   0.646170 0.085460 0.022910 -0.527559
O33   O     O_R   0.914540 0.646170 0.022910 -0.543807
O34   O     O_3   1.000000 0.500000 0.499990 -0.448616
O35   O     O_R   0.353830 0.914540 0.022910 -0.533593
O36   O     O_R   0.914540 0.353830 0.022910 -0.533431
O37   O     O_R   0.353830 0.085460 0.022910 -0.545191
O38   O     O_R   0.085460 0.646170 0.022910 -0.538824
O39   O     O_R   0.646170 0.914540 0.022910 -0.543622
O40   O     O_R   0.585460 0.853830 0.522910 -0.542539
O41   O     O_R   0.146170 0.585460 0.522910 -0.539253
O42   O     O_R   0.414540 0.146170 0.522910 -0.528116
O43   O     O_R   0.853830 0.414540 0.522910 -0.540713
O44   O     O_R   0.414540 0.853830 0.522910 -0.541236
O45   O     O_R   0.060750 0.500000 0.912560 -0.539291
O46   O     O_R   0.853830 0.585460 0.522910 -0.539385
O47   O     O_R   0.585460 0.146170 0.522910 -0.539811
O48   O     O_R   0.146170 0.414540 0.522910 -0.533751
O49   O     O_3   0.633934 0.849225 0.789596 -0.556435
O50   O     O_3   0.185304 0.577718 0.789362 -0.558052
O51   O     O_3   0.375737 0.154810 0.790066 -0.554903
O52   O     O_3   0.811216 0.434237 0.790161 -0.556462
O53   O     O_3   0.068587 0.311693 0.289584 -0.557033
O54   O     O_3   0.632139 0.149053 0.289863 -0.554905
O55   O     O_3   0.939615 0.690052 0.290543 -0.558173
O56   O     O_R   0.500000 0.060750 0.912560 -0.537213
O57   O     O_3   0.368444 0.849615 0.290243 -0.566438
O58   O     O_3   0.063432 0.383523 0.148327 -0.542414
O59   O     O_3   0.567818 0.112886 0.147424 -0.557070
O60   O     O_3   0.941376 0.618911 0.148755 -0.543282
O61   O     O_3   0.429146 0.888935 0.147473 -0.558767
O62   O     O_3   0.592066 0.902760 0.648024 -0.554417
O63   O     O_3   0.114891 0.567211 0.648052 -0.544347
O64   O     O_3   0.396882 0.079765 0.648600 -0.553613
O65   O     O_3   0.881985 0.440564 0.648928 -0.543491
O66   O     O_R   0.939250 0.500000 0.912560 -0.539711
O67   O     O_R   0.500000 0.939250 0.912560 -0.534557
O68   O     O_R   0.560750 1.000000 0.412560 -0.533659
Zn1   Zn    Zn3+2 1.000000 0.586740 0.032740 0.936809
Zn2   Zn    Zn3+2 0.500000 0.913250 0.967240 0.925169
Zn3   Zn    Zn3+2 0.086750 0.500000 0.967240 0.922374
Zn4   Zn    Zn3+2 0.500000 0.086750 0.967240 0.931391
Zn5   Zn    Zn3+2 0.413250 1.000000 0.467240 0.929168
Zn6   Zn    Zn3+2 0.000000 0.413250 0.467240 0.927814
Zn7   Zn    Zn3+2 0.586750 1.000000 0.467240 0.924777
Zn8   Zn    Zn3+2 1.000000 0.586750 0.467240 0.916322
Zn9   Zn    Zn3+2 0.413260 0.000000 0.032740 0.939948
Zn10  Zn    Zn3+2 1.000000 0.413260 0.032740 0.943109
Zn11  Zn    Zn3+2 0.586740 0.000000 0.032740 0.943242
Zn12  Zn    Zn3+2 0.500000 0.086740 0.532740 0.949965
Zn13  Zn    Zn3+2 0.913260 0.500000 0.532740 0.940359
Zn14  Zn    Zn3+2 0.500000 0.913260 0.532740 0.935778
Zn15  Zn    Zn3+2 0.086740 0.500000 0.532740 0.940207
Zn16  Zn    Zn3+2 0.913250 0.500000 0.967240 0.929890

loop_
_geom_bond_atom_site_label_1
_geom_bond_atom_site_label_2
_ccdc_geom_bond_type
C24   C126  A    
C13   C79   A    
C98   H12   S    
C123  C198  A    
O7    Zn10  S    
C208  H90   S    
C55   C56   A    
C169  O11   A    
C114  C115  S    
C164  C169  S    
C68   C75   A    
C37   C178  S    
C179  O37   A    
C86   H144  S    
C93   H159  S    
C122  H66   S    
C67   H57   S    
O27   Zn7   S    
C13   C70   A    
C108  H38   S    
C120  H62   S    
C2    C90   A    
C110  C111  S    
C39   C171  S    
C131  C140  A    
C104  H27   S    
C38   C55   A    
C109  H40   S    
O56   Zn4   S    
C80   H126  S    
C200  H81   S    
C58   H117  S    
C48   C65   A    
C205  H87   S    
C132  O3    A    
C206  H88   S    
C27   C50   A    
C25   C34   A    
C13   C125  A    
O39   Zn11  S    
C18   C195  A    
C8    C16   A    
O22   Zn5   S    
C36   C179  S    
C178  O20   A    
C7    C206  A    
C31   C200  A    
C197  H79   S    
C56   H106  S    
C110  H41   S    
C139  C148  A    
C89   O54   S    
C72   C154  A    
C124  C137  A    
C90   C152  A    
C47   C64   A    
C21   C192  A    
C8    H97   S    
C27   C204  A    
C157  O61   S    
C100  H19   S    
C83   H135  S    
C74   C176  A    
C199  H80   S    
C39   C56   A    
C189  C206  A    
C19   C22   A    
C35   C127  A    
C121  H64   S    
C3    H91   S    
C117  H54   S    
C82   H131  S    
C106  H31   S    
C94   O57   S    
C115  H49   S    
O8    Zn11  S    
C178  O36   A    
C43   C61   A    
C173  O31   A    
C29   C202  A    
C86   H142  S    
C133  C141  A    
C73   H109  S    
C51   C181  S    
C24   C90   A    
C46   C77   A    
C125  C138  A    
C96   H8    S    
C87   H146  S    
C17   C25   A    
C174  O17   A    
C9    C15   A    
C40   C174  S    
C125  O51   S    
C126  O52   S    
C14   C203  A    
O31   Zn10  S    
C188  O46   A    
C184  O47   A    
C124  O50   S    
C127  C131  A    
C191  H72   S    
C180  O42   A    
C20   C21   A    
C23   C36   A    
C106  C107  S    
C102  H22   S    
C105  H29   S    
C97   H10   S    
C107  H33   S    
C136  H119  S    
O45   Zn3   S    
C70   H105  S    
C142  C156  A    
C7    C196  A    
C5    H93   S    
C5    C194  A    
C5    C208  A    
C111  H45   S    
C128  O54   S    
C94   H4    S    
C147  C151  A    
O9    Zn12  S    
C97   C98   S    
C85   C86   S    
C88   H148  S    
C181  O24   A    
C117  O64   S    
C114  O63   S    
C32   C199  A    
C103  O60   S    
O5    Zn1   S    
C84   H137  S    
C115  C116  S    
C60   H139  S    
C184  O27   A    
C83   O51   S    
C144  C150  A    
C52   C60   A    
C21   C38   A    
C107  C108  S    
C172  O15   A    
C204  H86   S    
C34   C175  S    
C1    C165  S    
C89   C91   S    
C50   C67   A    
C137  H120  S    
C1    O45   A    
C61   H150  S    
C193  H75   S    
C38   C177  S    
C112  C154  S    
C96   C97   S    
C194  H76   S    
C50   C182  S    
C196  H78   S    
C147  C160  A    
C134  H116  S    
O12   Zn9   S    
C185  O48   A    
C141  C150  A    
C81   H130  S    
O38   Zn1   S    
C103  H23   S    
C119  H61   S    
C138  H121  S    
C35   C76   A    
C49   C66   A    
C173  O16   A    
C155  O59   S    
C73   C165  A    
C16   C205  A    
C10   C14   A    
C155  C163  A    
C111  H44   S    
C100  H18   S    
O12   Zn2   S    
C29   C30   A    
O43   Zn13  S    
C28   C49   A    
C26   C33   A    
C83   C84   S    
C102  H20   S    
C88   H149  S    
C62   H2    S    
C203  H85   S    
C145  C151  A    
C68   C130  A    
C179  O21   A    
C2    C73   A    
C166  C170  S    
C92   H157  S    
O29   Zn5   S    
C3    C4    A    
C112  O56   A    
C20   C193  A    
C48   C180  S    
C120  C121  S    
C41   C173  S    
C77   H113  S    
C46   C113  A    
O24   Zn6   S    
C28   C203  A    
C113  C150  A    
C158  O62   S    
C177  O39   A    
C148  C152  A    
C175  O38   A    
C53   H73   S    
O32   Zn11  S    
C2    C124  A    
C57   C101  A    
C189  H70   S    
C68   C113  A    
C26   C51   A    
O40   Zn14  S    
C93   H158  S    
C163  C168  S    
C96   O58   S    
C3    C192  A    
C160  O64   S    
C91   H154  S    
C95   H5    S    
C119  H60   S    
C98   H14   S    
C156  O60   S    
C46   C128  A    
O23   Zn12  S    
C131  H114  S    
C19   C40   A    
C129  O55   S    
C190  C207  A    
C99   O59   S    
C109  H39   S    
C19   C194  A    
C71   C165  A    
O20   Zn16  S    
C95   H6    S    
C17   C196  A    
C144  C157  A    
C74   H110  S    
C140  C149  A    
O12   Zn11  S    
C9    C199  A    
C84   H136  S    
C120  O65   S    
C201  H82   S    
C63   H13   S    
C130  C135  A    
C92   O55   S    
C127  O53   S    
C110  H42   S    
C114  H47   S    
C65   H35   S    
C112  O67   A    
C167  O7    A    
C160  C164  A    
C14   H102  S    
O12   Zn4   S    
C89   H152  S    
C175  O18   A    
C96   H9    S    
O33   Zn1   S    
C78   H123  S    
C17   C42   A    
C104  C105  S    
C174  O32   A    
C116  H53   S    
C6    H94   S    
C54   H84   S    
C49   C183  S    
O1    Zn1   S    
C66   H46   S    
C59   H128  S    
C168  O6    A    
O11   Zn14  S    
C171  O33   A    
C47   C185  S    
C140  C153  A    
C135  H118  S    
C63   C66   A    
C103  H25   S    
C106  H32   S    
C143  C176  S    
O47   Zn12  S    
C132  C187  S    
O23   Zn7   S    
C6    C195  A    
C15   C204  A    
C4    C193  A    
O46   Zn13  S    
C86   H143  S    
C93   H160  S    
O44   Zn14  S    
C76   C176  A    
C40   C58   A    
C190  H71   S    
C183  O41   A    
C85   O52   S    
C72   H108  S    
C22   C37   A    
O66   Zn16  S    
C108  H37   S    
C87   H145  S    
O68   Zn7   S    
C134  C142  A    
C137  C146  A    
O21   Zn4   S    
C80   H125  S    
C195  H77   S    
C186  O29   A    
C121  C122  S    
C99   H17   S    
C202  H83   S    
C105  H28   S    
C26   C205  A    
C130  O57   S    
C192  H74   S    
C114  H48   S    
C142  C149  A    
C64   H24   S    
C57   C129  A    
C20   C39   A    
C30   C201  A    
O42   Zn12  S    
C27   C32   A    
C167  O5    A    
C85   H141  S    
C92   H156  S    
C28   C31   A    
C75   C187  A    
C35   C101  A    
C10   C200  A    
C180  O22   A    
O37   Zn9   S    
C153  C162  A    
C64   C65   A    
C207  H89   S    
C109  C110  S    
O23   Zn14  S    
C145  C158  A    
C177  O19   A    
C55   H95   S    
O1    Zn3   S    
C84   H138  S    
C92   C93   S    
C168  O8    A    
C85   H140  S    
C78   C80   S    
C94   C95   S    
C121  H65   S    
C182  O25   A    
C72   C198  A    
C129  C134  A    
C117  H55   S    
C91   H155  S    
C118  H56   S    
C87   C88   S    
C31   C45   A    
C103  C104  S    
O13   Zn15  S    
C159  O63   S    
O34   Zn15  S    
C117  C118  S    
C161  O65   S    
O23   Zn5   S    
C126  C139  A    
C16   H104  S    
C95   H7    S    
C1    O66   A    
C4    H92   S    
C81   C82   S    
C53   C59   A    
C120  H63   S    
C62   C67   A    
C132  O68   A    
C148  C161  A    
O34   Zn8   S    
C82   H132  S    
O18   Zn3   S    
O3    Zn5   S    
O6    Zn9   S    
C45   C186  S    
C10   H99   S    
C111  H43   S    
C43   C184  S    
C80   H127  S    
O2    Zn8   S    
C11   C201  A    
C101  C149  A    
C118  C119  S    
C34   C52   A    
C169  O9    A    
C143  O4    A    
C25   C189  A    
C185  O28   A    
C141  C155  A    
C102  H21   S    
C182  O40   A    
C105  H30   S    
C97   H11   S    
C107  H34   S    
C82   H133  S    
C157  C163  A    
C136  C145  A    
C116  H52   S    
C158  C164  A    
C133  H115  S    
O67   Zn2   S    
C51   C69   A    
C7    H96   S    
C156  C162  A    
C94   H3    S    
C118  H58   S    
C8    C197  A    
C87   O53   S    
O16   Zn3   S    
C186  O44   A    
C106  O61   S    
C181  O43   A    
O36   Zn10  S    
C88   H147  S    
O1    Zn10  S    
C9    H98   S    
C29   C48   A    
C18   C23   A    
C33   C43   A    
C30   C47   A    
C83   H134  S    
C41   C59   A    
C78   O49   S    
C18   C41   A    
C42   C60   A    
C146  C159  A    
C170  O13   A    
C44   C62   A    
O4    Zn6   S    
C45   C63   A    
C116  H51   S    
C57   C74   A    
O26   Zn8   S    
C81   O50   S    
C91   H153  S    
C81   H129  S    
C99   C100  S    
O41   Zn15  S    
C33   C197  A    
C138  C147  A    
C119  H59   S    
C98   H15   S    
C108  H36   S    
C100  C102  S    
C32   C44   A    
O34   Zn13  S    
C6    C207  A    
C36   C53   A    
C42   C172  S    
C44   C188  S    
O48   Zn15  S    
C146  C152  A    
C37   C54   A    
C171  O14   A    
C135  C144  A    
O17   Zn4   S    
C12   C202  A    
C123  O49   S    
O10   Zn13  S    
C122  H69   S    
C79   C151  A    
C54   C58   A    
C61   C69   A    
C69   H68   S    
C99   H16   S    
C11   H100  S    
C70   C154  A    
O34   Zn6   S    
C161  C166  A    
C115  H50   S    
C153  O58   S    
C75   H111  S    
C11   C12   A    
C76   H112  S    
O30   Zn8   S    
C12   H101  S    
C159  C166  A    
C123  C136  A    
O28   Zn6   S    
C22   C191  A    
C143  O2    A    
O19   Zn2   S    
C128  C133  A    
C89   H151  S    
C52   H1    S    
C183  O26   A    
O35   Zn9   S    
C104  H26   S    
O1    Zn16  S    
C78   H124  S    
C191  C208  A    
C23   C190  A    
C77   C187  A    
C122  H67   S    
C162  C167  S    
O14   Zn16  S    
C172  O35   A    
C170  O10   A    
C79   C198  A    
O15   Zn2   S    
C109  O62   S    
C188  O30   A    
C24   C71   A    
C71   H107  S    
O25   Zn7   S    
C139  H122  S    
C15   H103  S    
