data_mof_unit_14513.cif
_audit_creation_date              2012-12-11T15:17:37-0500
_audit_creation_method            fapswitch 2.2
_symmetry_space_group_name_H-M    P1
_symmetry_Int_Tables_number       1
_space_group_crystal_system       triclinic
_cell_length_a                    6.92828
_cell_length_b                    20.100391
_cell_length_c                    22.338097
_cell_angle_alpha                 89.96124
_cell_angle_beta                  90.000038
_cell_angle_gamma                 89.99994
_cell_volume                      3110.82807387

loop_
_atom_site_label
_atom_site_type_symbol
_atom_type_description
_atom_site_fract_x
_atom_site_fract_y
_atom_site_fract_z
_atom_type_partial_charge
O1    O     O_R   0.620180 0.810610 0.187990 -0.542507
O2    O     O_R   0.379820 0.189390 0.812010 -0.542507
O3    O     O_R   0.379820 0.189390 0.687990 -0.539299
O4    O     O_R   0.620180 0.810610 0.312010 -0.539300
O5    O     O_R   0.120180 0.689390 0.312010 -0.542507
O6    O     O_R   0.879820 0.310610 0.687990 -0.542507
O7    O     O_R   0.879820 0.310610 0.812010 -0.539299
O8    O     O_R   0.120180 0.689390 0.187990 -0.539299
O9    O     O_R   0.290420 0.818570 0.311590 -0.542769
O10   O     O_R   0.709580 0.181430 0.688410 -0.542769
O11   O     O_R   0.709580 0.181430 0.811590 -0.537549
O12   O     O_R   0.290420 0.818570 0.188410 -0.537549
O13   O     O_R   0.790420 0.681430 0.188410 -0.542769
O14   O     O_R   0.209580 0.318570 0.811590 -0.542769
O15   O     O_R   0.209580 0.318570 0.688410 -0.537549
O16   O     O_R   0.790420 0.681430 0.311590 -0.537549
C1    C     C_R   0.459390 0.834565 0.332348 0.713374
C2    C     C_R   0.540610 0.165435 0.667652 0.713374
C3    C     C_R   0.540601 0.165289 0.832197 0.712114
C4    C     C_R   0.459399 0.834711 0.167803 0.712114
C5    C     C_R   0.959389 0.665435 0.167652 0.713374
C6    C     C_R   0.040610 0.334565 0.832348 0.713374
C7    C     C_R   0.040601 0.334711 0.667803 0.712114
C8    C     C_R   0.959399 0.665289 0.332197 0.712113
H1    H     H_    0.761478 0.425312 0.648825 0.161886
H2    H     H_    0.238522 0.574688 0.351175 0.161886
H3    H     H_    0.705648 0.567631 0.141795 0.164618
H4    H     H_    0.294352 0.432369 0.858205 0.164618
H5    H     H_    0.261478 0.074689 0.851176 0.161886
H6    H     H_    0.738521 0.925311 0.148824 0.161886
H7    H     H_    0.205644 0.932368 0.358206 0.164618
H8    H     H_    0.794355 0.067632 0.641794 0.164618
H9    H     H_    0.572995 0.600050 0.514545 0.153396
H10   H     H_    0.427005 0.399950 0.485455 0.153396
H11   H     H_    0.596805 0.387833 0.004666 0.150635
H12   H     H_    0.403194 0.612166 0.995334 0.150635
H13   H     H_    0.072996 0.899950 0.985454 0.153397
H14   H     H_    0.927004 0.100050 0.014546 0.153396
H15   H     H_    0.096802 0.112166 0.495335 0.150635
H16   H     H_    0.903198 0.887834 0.504665 0.150635
H17   H     H_    0.296800 0.353259 0.577646 0.118703
H18   H     H_    0.703200 0.646741 0.422354 0.118703
H19   H     H_    0.238607 0.654790 0.083381 0.118098
H20   H     H_    0.761393 0.345210 0.916619 0.118098
H21   H     H_    0.796801 0.146740 0.922354 0.118704
H22   H     H_    0.203199 0.853260 0.077646 0.118704
H23   H     H_    0.738611 0.845211 0.416617 0.118098
H24   H     H_    0.261389 0.154789 0.583383 0.118098
O17   O     O_3   0.453640 0.707610 0.250000 -0.366402
O18   O     O_3   0.546360 0.292390 0.750000 -0.366402
O19   O     O_3   0.953640 0.792390 0.250000 -0.366402
O20   O     O_3   0.046360 0.207610 0.750000 -0.366402
V1    V     V_3+5 0.178800 0.757860 0.250000 1.453913
V2    V     V_3+5 0.821200 0.242140 0.750000 1.453913
V3    V     V_3+5 0.678800 0.742140 0.250000 1.453913
V4    V     V_3+5 0.321200 0.257860 0.750000 1.453913
C9    C     C_R   0.175431 0.387214 0.575063 -0.159362
C10   C     C_R   0.824569 0.612786 0.424936 -0.159361
C11   C     C_R   0.126570 0.617572 0.078122 -0.161712
C12   C     C_R   0.873430 0.382428 0.921878 -0.161711
C13   C     C_R   0.675432 0.112786 0.924936 -0.159362
C14   C     C_R   0.324568 0.887214 0.075064 -0.159362
C15   C     C_R   0.626572 0.882429 0.421878 -0.161711
C16   C     C_R   0.373428 0.117571 0.578122 -0.161710
C17   C     C_R   0.029972 0.384307 0.618722 -0.083831
C18   C     C_R   0.970027 0.615693 0.381278 -0.083831
C19   C     C_R   0.970248 0.616283 0.118166 -0.089839
C20   C     C_R   0.029752 0.383717 0.881834 -0.089839
C21   C     C_R   0.529973 0.115693 0.881278 -0.083831
C22   C     C_R   0.470027 0.884307 0.118722 -0.083831
C23   C     C_R   0.470248 0.883717 0.381833 -0.089839
C24   C     C_R   0.529752 0.116283 0.618166 -0.089839
C25   C     C_R   0.872204 0.428101 0.614821 -0.163179
C26   C     C_R   0.127796 0.571899 0.385179 -0.163179
C27   C     C_R   0.824927 0.568180 0.110614 -0.166176
C28   C     C_R   0.175073 0.431820 0.889386 -0.166175
C29   C     C_R   0.372204 0.071899 0.885179 -0.163179
C30   C     C_R   0.627795 0.928101 0.114821 -0.163179
C31   C     C_R   0.324925 0.931820 0.389387 -0.166177
C32   C     C_R   0.675074 0.068180 0.610613 -0.166177
C33   C     C_R   0.859012 0.475219 0.568206 0.058216
C34   C     C_R   0.140988 0.524781 0.431794 0.058216
C35   C     C_R   0.835499 0.520835 0.064131 0.063267
C36   C     C_R   0.164501 0.479165 0.935868 0.063267
C37   C     C_R   0.359012 0.024781 0.931794 0.058215
C38   C     C_R   0.640988 0.975219 0.068206 0.058215
C39   C     C_R   0.335498 0.979164 0.435869 0.063267
C40   C     C_R   0.664502 0.020836 0.564131 0.063267
C41   C     C_R   0.005364 0.476921 0.523893 0.037567
C42   C     C_R   0.994636 0.523079 0.476107 0.037567
C43   C     C_R   0.993118 0.523259 0.023682 0.045270
C44   C     C_R   0.006882 0.476740 0.976318 0.045270
C45   C     C_R   0.505364 0.023079 0.976107 0.037567
C46   C     C_R   0.494635 0.976921 0.023893 0.037567
C47   C     C_R   0.493118 0.976740 0.476318 0.045271
C48   C     C_R   0.506882 0.023259 0.523682 0.045271
C49   C     C_R   0.163140 0.432636 0.527420 0.090375
C50   C     C_R   0.836860 0.567364 0.472579 0.090375
C51   C     C_R   0.137828 0.572015 0.030698 0.090729
C52   C     C_R   0.862172 0.427985 0.969302 0.090728
C53   C     C_R   0.663141 0.067364 0.972579 0.090375
C54   C     C_R   0.336859 0.932636 0.027421 0.090375
C55   C     C_R   0.637829 0.927986 0.469301 0.090728
C56   C     C_R   0.362171 0.072014 0.530699 0.090728
C57   C     C_R   0.704077 0.520829 0.564597 0.152316
C58   C     C_R   0.295923 0.479171 0.435403 0.152316
C59   C     C_R   0.693747 0.470871 0.057003 0.157780
C60   C     C_R   0.306253 0.529129 0.942997 0.157780
C61   C     C_R   0.204077 0.979171 0.935402 0.152316
C62   C     C_R   0.795923 0.020829 0.064598 0.152316
C63   C     C_R   0.193744 0.029128 0.442998 0.157780
C64   C     C_R   0.806256 0.970872 0.557002 0.157780
C65   C     C_R   0.693590 0.565803 0.516838 -0.182758
C66   C     C_R   0.306410 0.434197 0.483162 -0.182758
C67   C     C_R   0.707620 0.425466 0.009724 -0.180474
C68   C     C_R   0.292380 0.574534 0.990276 -0.180474
C69   C     C_R   0.193590 0.934197 0.983162 -0.182758
C70   C     C_R   0.806410 0.065803 0.016838 -0.182758
C71   C     C_R   0.207617 0.074533 0.490277 -0.180474
C72   C     C_R   0.792383 0.925467 0.509723 -0.180474
I1    I     I_    0.482933 0.527696 0.630343 -0.363037
I2    I     I_    0.517067 0.472303 0.369657 -0.363037
I3    I     I_    0.456537 0.458291 0.116381 -0.363363
I4    I     I_    0.543463 0.541709 0.883619 -0.363363
I5    I     I_    0.982932 0.972304 0.869657 -0.363037
I6    I     I_    0.017067 0.027696 0.130343 -0.363037
I7    I     I_    0.956535 0.041709 0.383620 -0.363364
I8    I     I_    0.043465 0.958291 0.616380 -0.363364

loop_
_geom_bond_atom_site_label_1
_geom_bond_atom_site_label_2
_ccdc_geom_bond_type
O14   V4    S    
C40   C48   A    
C45   C46   A    
C14   C54   A    
C22   C30   A    
C11   C51   A    
C21   C29   A    
C47   C48   A    
C10   C50   A    
C59   I3    S    
C60   C68   A    
C4    C22   S    
C62   C70   A    
C31   C39   A    
C61   C69   A    
O11   C3    A    
O18   V2    S    
C58   C66   A    
C53   C70   A    
C57   C65   A    
C38   C62   A    
C26   C34   A    
C37   C61   A    
H23   C15   S    
H15   C71   S    
H24   C16   S    
C39   C63   A    
C13   C21   A    
C18   C26   A    
C17   C25   A    
C14   C22   A    
O3    C2    A    
C63   C71   A    
C25   C33   A    
H18   C10   S    
C38   C46   A    
C11   C19   A    
C37   C45   A    
C10   C18   A    
C55   C72   A    
C34   C58   A    
C47   C55   A    
C1    C23   S    
C39   C47   A    
H11   C67   S    
C61   I5    S    
H1    C25   S    
O12   V1    S    
H19   C11   S    
C56   C71   A    
C33   C41   A    
C30   C38   A    
O15   C7    A    
C29   C37   A    
O16   C8    A    
C5    C19   S    
O12   C4    A    
C52   C67   A    
C60   I4    S    
H3    C27   S    
C23   C31   A    
O20   V2    S    
C2    C24   S    
C7    C17   S    
C33   C57   A    
C28   C36   A    
O13   C5    A    
C15   C55   A    
C45   C53   A    
C51   C68   A    
C64   C72   A    
C50   C65   A    
O17   V3    S    
O18   V4    S    
C41   C49   A    
O19   V1    S    
H6    C30   S    
C13   C53   A    
C49   C66   A    
O9    V1    S    
H8    C32   S    
O3    V4    S    
C9    C49   A    
C58   I2    S    
O8    C5    A    
C57   I1    S    
C20   C28   A    
H20   C12   S    
O11   V2    S    
C6    C20   S    
C54   C69   A    
C62   I6    S    
O4    C1    A    
O9    C1    A    
H16   C72   S    
H22   C14   S    
O6    V2    S    
C48   C56   A    
O4    V3    S    
C63   I7    S    
C3    C21   S    
C19   C27   A    
H12   C68   S    
C43   C44   A    
C44   C52   A    
O5    V1    S    
C16   C56   A    
O1    C4    A    
O2    C3    A    
C15   C23   A    
C12   C52   A    
O8    V1    S    
H7    C31   S    
C8    C18   S    
H10   C66   S    
O7    C6    A    
C35   C43   A    
H9    C65   S    
C34   C42   A    
C43   C51   A    
O15   V4    S    
O14   C6    A    
O1    V3    S    
O16   V3    S    
H17   C9    S    
C32   C40   A    
O2    V4    S    
C40   C64   A    
C27   C35   A    
O5    C8    A    
O10   C2    A    
O17   V1    S    
O6    C7    A    
H21   C13   S    
H2    C26   S    
H13   C69   S    
C35   C59   A    
C59   C67   A    
O19   V3    S    
C16   C24   A    
O10   V2    S    
C64   I8    S    
H14   C70   S    
C36   C60   A    
H5    C29   S    
C12   C20   A    
C24   C32   A    
C36   C44   A    
O7    V2    S    
O13   V3    S    
C41   C42   A    
C42   C50   A    
O20   V4    S    
C46   C54   A    
C9    C17   A    
H4    C28   S    
