data_mof_unit_42431.cif
_audit_creation_date              2012-12-10T18:05:49-0500
_audit_creation_method            fapswitch 2.2
_symmetry_space_group_name_H-M    P1
_symmetry_Int_Tables_number       1
_space_group_crystal_system       triclinic
_cell_length_a                    12.597041
_cell_length_b                    13.178801
_cell_length_c                    14.90641
_cell_angle_alpha                 92.830293
_cell_angle_beta                  101.87122
_cell_angle_gamma                 82.064019
_cell_volume                      2397.98912214

loop_
_atom_site_label
_atom_site_type_symbol
_atom_type_description
_atom_site_fract_x
_atom_site_fract_y
_atom_site_fract_z
_atom_type_partial_charge
C1    C     C_R   0.439266 0.690780 0.484819 0.829135
C2    C     C_R   0.487597 0.605112 0.815953 0.041721
C3    C     C_R   0.497581 0.510378 0.767792 -0.078794
C4    C     C_R   0.499185 0.504211 0.672328 0.876758
C5    C     C_R   0.498087 0.418150 0.808145 -0.293278
C6    C     C_R   0.720668 0.056569 0.476441 -0.221064
C7    C     C_R   0.598814 0.199898 0.518696 -0.147233
C8    C     C_R   0.294928 0.838644 0.481281 -0.183333
C9    C     C_R   0.263323 0.943622 0.483233 -0.194477
C10   C     C_R   0.339790 0.010203 0.482638 -0.144723
C11   C     C_R   0.449405 0.972297 0.478235 0.093254
C12   C     C_R   0.481669 0.406965 0.083460 -0.013458
C13   C     C_R   0.474171 0.867372 0.457838 0.063951
C14   C     C_R   0.534865 0.034634 0.491223 -0.055814
C15   C     C_R   0.636434 0.995186 0.466920 0.117359
C16   C     C_R   0.561039 0.309141 0.513435 0.925863
C17   C     C_R   0.651690 0.896000 0.431087 -0.210776
C18   C     C_R   0.571193 0.833031 0.425747 -0.186374
C19   C     C_R   0.524443 0.134473 0.529374 0.395768
C20   C     C_R   0.700821 0.159879 0.499808 -0.297351
C21   C     C_R   0.401128 0.799733 0.470722 -0.124328
C22   C     C_R   0.093953 0.336805 0.374665 0.007009
C23   C     C_R   0.466310 0.690524 0.055396 0.484140
C24   C     C_R   0.797779 0.631476 0.609274 -0.016798
C25   C     C_R   0.904658 0.645608 0.647475 -0.295993
C26   C     C_R   0.991707 0.582308 0.619630 0.110916
C27   C     C_R   0.967552 0.517066 0.540002 -0.006183
C28   C     C_R   0.500551 0.496000 0.327342 0.926680
C29   C     C_R   0.857305 0.498872 0.510819 0.211713
C30   C     C_R   0.045402 0.466893 0.489664 -0.045360
C31   C     C_R   0.015909 0.388370 0.423180 0.162809
C32   C     C_R   0.908215 0.366217 0.404249 -0.314530
C33   C     C_R   0.830468 0.422034 0.446093 -0.212550
C34   C     C_R   0.470793 0.694315 0.963142 -0.345992
C35   C     C_R   0.148601 0.497841 0.496655 -0.074289
C36   C     C_R   0.198658 0.365717 0.393493 -0.010561
C37   C     C_R   0.499235 0.403895 0.179746 0.388431
C38   C     C_R   0.496881 0.496057 0.230888 -0.168967
C39   C     C_R   0.484055 0.590170 0.190206 -0.301028
C40   C     C_R   0.476888 0.595105 0.096559 0.019886
C41   C     C_R   0.479877 0.503379 0.043365 -0.083313
C42   C     C_3   0.643235 0.286285 0.236776 0.097957
C43   C     C_3   0.676744 0.180127 0.277357 -0.841585
C44   C     C_3   0.466355 0.135032 0.664175 0.089856
C45   C     C_R   0.481121 0.603653 0.909564 0.031643
C46   C     C_3   0.367658 0.163468 0.708725 -0.855290
C47   C     C_3   0.068295 0.254588 0.301391 -0.436162
C48   C     C_3   0.061819 0.152411 0.343643 -0.334676
C49   C     C_3   0.028915 0.071976 0.269767 -0.894730
C50   C     C_3   0.099182 0.570382 0.689825 -0.420966
C51   C     C_3   0.134894 0.458351 0.718684 -0.320624
C52   C     C_3   0.213852 0.451772 0.811186 -0.875545
C53   C     C_3   0.343939 0.811423 0.107137 0.067106
C54   C     C_3   0.333310 0.871949 0.195343 -0.813078
C55   C     C_3   0.482580 0.705120 0.767053 -0.415720
C56   C     C_R   0.482889 0.508020 0.950360 0.049364
C57   C     C_3   0.594011 0.745009 0.788771 -0.310531
C58   C     C_3   0.590413 0.843596 0.738166 -0.923327
C59   C     C_3   0.434992 0.219528 0.052035 -0.351586
C60   C     C_3   0.520518 0.126312 0.043049 -0.368736
C61   C     C_3   0.498429 0.032997 0.089264 -0.822687
C62   C     C_R   0.488662 0.416360 0.898271 0.108686
C63   C     C_R   0.478390 0.324039 0.934507 -0.269175
C64   C     C_R   0.469677 0.318086 0.025585 0.112883
H1    H     H_    0.726566 0.866547 0.408185 0.147900
H2    H     H_    0.171278 0.565838 0.533586 0.134217
H3    H     H_    0.731167 0.676287 0.634524 0.155743
H4    H     H_    0.918872 0.699866 0.704291 0.142324
H5    H     H_    0.748853 0.403938 0.426752 0.211415
H6    H     H_    0.466393 0.769207 0.935278 0.171484
H7    H     H_    0.503219 0.347402 0.767866 0.151099
H8    H     H_    0.472713 0.256677 0.890038 0.146543
H9    H     H_    0.761562 0.209375 0.496050 0.185703
H10   H     H_    0.684969 0.342365 0.284342 0.135211
H11   H     H_    0.671715 0.285934 0.170722 0.135790
H12   H     H_    0.798483 0.026852 0.458673 0.151953
H13   H     H_    0.676534 0.120041 0.222865 0.238265
H14   H     H_    0.760821 0.174447 0.319541 0.207118
H15   H     H_    0.618533 0.164723 0.319946 0.290808
H16   H     H_    0.536847 0.170242 0.705109 0.129780
H17   H     H_    0.486502 0.050141 0.665058 0.149344
H18   H     H_    0.386338 0.134084 0.779532 0.196449
H19   H     H_    0.346188 0.248021 0.711170 0.263946
H20   H     H_    0.296478 0.128892 0.668680 0.257742
H21   H     H_    0.946132 0.097173 0.228690 0.259313
H22   H     H_    0.088799 0.059052 0.223762 0.262688
H23   H     H_    0.236815 0.788092 0.489386 0.154249
H24   H     H_    0.027224 0.998495 0.302521 0.249629
H25   H     H_    0.143125 0.124420 0.384907 0.221428
H26   H     H_    0.002262 0.161764 0.389875 0.217294
H27   H     H_    0.991203 0.280769 0.252509 0.202255
H28   H     H_    0.133050 0.241744 0.259780 0.195846
H29   H     H_    0.280730 0.497977 0.810622 0.280121
H30   H     H_    0.170510 0.481750 0.866724 0.253855
H31   H     H_    0.248825 0.370758 0.825310 0.252755
H32   H     H_    0.062528 0.421108 0.724229 0.225274
H33   H     H_    0.175842 0.415027 0.666700 0.235140
H34   H     H_    0.310354 0.090803 0.482817 0.191971
H35   H     H_    0.165659 0.603167 0.668108 0.179269
H36   H     H_    0.088280 0.616522 0.752664 0.203453
H37   H     H_    0.295681 0.745795 0.103974 0.133578
H38   H     H_    0.306959 0.861012 0.047569 0.143189
H39   H     H_    0.379475 0.938621 0.202526 0.261489
H40   H     H_    0.245871 0.900055 0.194544 0.207616
H41   H     H_    0.365666 0.822256 0.255468 0.249359
H42   H     H_    0.566900 0.830612 0.662903 0.275023
H43   H     H_    0.530450 0.904216 0.760670 0.257415
H44   H     H_    0.672377 0.869918 0.753912 0.246206
H45   H     H_    0.180371 0.973517 0.488691 0.140419
H46   H     H_    0.619054 0.760227 0.863544 0.222111
H47   H     H_    0.656908 0.686023 0.768192 0.226053
H48   H     H_    0.457714 0.695162 0.691626 0.192259
H49   H     H_    0.417580 0.763269 0.785512 0.188877
H50   H     H_    0.502655 0.049082 0.163645 0.267809
H51   H     H_    0.416173 0.012695 0.057382 0.259785
H52   H     H_    0.560720 0.966837 0.080787 0.268381
H53   H     H_    0.518297 0.106198 0.969483 0.204018
H54   H     H_    0.603963 0.144328 0.073122 0.227803
H55   H     H_    0.413799 0.224267 0.120568 0.252276
H56   H     H_    0.585310 0.757585 0.395031 0.178417
H57   H     H_    0.357247 0.206983 0.004396 0.166577
H58   H     H_    0.261972 0.326612 0.360203 0.143571
H59   H     H_    0.881169 0.308447 0.354222 0.156795
H60   H     H_    0.481964 0.659289 0.232756 0.189578
N1    N     N_R   0.222190 0.444670 0.452360 -0.114875
N2    N     N_R   0.776970 0.554790 0.547140 -0.131079
O1    O     O_R   0.366740 0.627160 0.477250 -0.623359
O2    O     O_3   0.440387 0.171683 0.573921 -0.616773
O3    O     O_3   0.456023 0.780781 0.106316 -0.618005
O4    O     O_R   0.544830 0.662520 0.507680 -0.623766
O5    O     O_R   0.410940 0.482340 0.616930 -0.609491
O6    O     O_R   0.589030 0.517700 0.647360 -0.615602
O7    O     O_R   0.455170 0.337480 0.492320 -0.561394
O8    O     O_R   0.633260 0.372840 0.522750 -0.649017
O9    O     O_R   0.410970 0.482300 0.352640 -0.607709
O10   O     O_R   0.589060 0.517660 0.383070 -0.650169
O11   O     O_3   0.528618 0.312202 0.225178 -0.639579
Zn1   Zn    Zn3+2 0.381090 0.476390 0.479680 0.961972
Zn2   Zn    Zn3+2 0.618910 0.523610 0.520320 0.920963

loop_
_geom_bond_atom_site_label_1
_geom_bond_atom_site_label_2
_ccdc_geom_bond_type
C59   H57   S    
O9    Zn1   S    
C51   H33   S    
C55   H48   S    
C27   C29   A    
C28   O9    A    
C47   H28   S    
C36   N1    A    
C49   H24   S    
C16   O8    A    
C4    O6    A    
C57   H47   S    
C53   C54   S    
C43   H14   S    
C1    C21   S    
C50   H35   S    
C62   C63   A    
C13   C18   A    
C54   H40   S    
C2    C55   S    
C26   C50   S    
C30   C31   A    
C12   C64   A    
C11   C14   A    
C16   O7    A    
C43   H15   S    
C23   C40   A    
C29   C33   A    
C19   O2    S    
C23   O3    S    
C52   H31   S    
C35   N1    A    
C58   H43   S    
C12   C37   A    
C10   H34   S    
C24   H3    S    
C6    C15   A    
C46   H18   S    
C31   C32   A    
C45   C56   A    
C53   H37   S    
C8    C9    A    
C61   H51   S    
C5    C62   A    
C60   H54   S    
O1    Zn1   S    
C9    C10   A    
C34   H6    S    
C33   H5    S    
C51   H32   S    
C22   C47   S    
C59   C60   S    
C37   O11   S    
C29   N2    A    
C42   O11   S    
C24   N2    A    
C32   H59   S    
C25   H4    S    
O10   Zn2   S    
O4    Zn2   S    
C14   C19   A    
C44   C46   S    
C50   C51   S    
C4    O5    A    
C2    C45   A    
C9    H45   S    
N2    Zn2   S    
C42   H10   S    
C22   C31   A    
C51   C52   S    
C49   H21   S    
C54   H39   S    
C44   H16   S    
C24   C25   A    
C1    O4    A    
O8    Zn2   S    
C40   C41   A    
C55   H49   S    
C35   H2    S    
C25   C26   A    
C39   H60   S    
C63   C64   A    
C60   C61   S    
C58   H42   S    
C36   H58   S    
C41   C56   A    
C37   C38   A    
C47   C48   S    
C28   C38   S    
C53   H38   S    
C23   C34   A    
C61   H52   S    
C17   C18   A    
C59   C64   S    
C13   C21   A    
C60   H53   S    
C34   C45   A    
C52   H30   S    
C46   H20   S    
C30   C35   A    
C48   C49   S    
C44   H17   S    
C7    C19   A    
C48   H25   S    
C55   C57   S    
C26   C27   A    
C56   C62   A    
C53   O3    S    
C42   C43   S    
C3    C4    S    
C18   H56   S    
C39   C40   A    
C6    C20   A    
C42   H11   S    
C12   C41   A    
C15   C17   A    
C44   O2    S    
C59   H55   S    
C54   H41   S    
C28   O10   A    
C47   H27   S    
C49   H22   S    
C7    C16   S    
C1    O1    A    
C3    C5    A    
C8    C21   A    
C57   H46   S    
C6    H12   S    
N1    Zn1   S    
C43   H13   S    
C22   C36   A    
C17   H1    S    
C52   H29   S    
C8    H23   S    
C32   C33   A    
O6    Zn2   S    
C5    H7    S    
O5    Zn1   S    
C11   C13   A    
C57   C58   S    
C38   C39   A    
C20   H9    S    
C2    C3    A    
C58   H44   S    
C50   H36   S    
C10   C11   A    
C46   H19   S    
O7    Zn1   S    
C63   H8    S    
C7    C20   A    
C61   H50   S    
C14   C15   A    
C48   H26   S    
C27   C30   A    
