data_mof_unit_65534.cif
_audit_creation_date              2012-12-10T19:21:23-0500
_audit_creation_method            fapswitch 2.2
_symmetry_space_group_name_H-M    P1
_symmetry_Int_Tables_number       1
_space_group_crystal_system       triclinic
_cell_length_a                    15.756192
_cell_length_b                    14.960328
_cell_length_c                    19.241847
_cell_angle_alpha                 89.967203
_cell_angle_beta                  90.019668
_cell_angle_gamma                 89.98059
_cell_volume                      4535.64457866

loop_
_atom_site_label
_atom_site_type_symbol
_atom_type_description
_atom_site_fract_x
_atom_site_fract_y
_atom_site_fract_z
_atom_type_partial_charge
C1    C     C_R   0.337885 0.500012 0.500108 0.916268
C2    C     C_3   0.049133 0.416486 0.538954 -0.378843
C3    C     C_3   0.951159 0.416460 0.538949 -0.390964
C4    C     C_3   0.951080 0.585007 0.536884 -0.390870
C5    C     C_1   0.751103 0.499966 0.500110 -0.176457
C6    C     C_3   0.082512 0.500020 0.500087 0.330024
C7    C     C_3   0.917659 0.499988 0.500094 0.342911
C8    C     C_R   0.499486 0.499999 0.365257 0.859255
C9    C     C_3   0.951063 0.498513 0.424439 -0.390770
C10   C     C_3   0.049036 0.498512 0.424435 -0.391044
C11   C     C_1   0.826348 0.499968 0.500102 -0.115418
C12   C     C_R   0.471110 0.497482 0.070179 0.250408
C13   C     C_1   0.173820 0.500035 0.500087 -0.103615
C14   C     C_1   0.249063 0.500036 0.500093 -0.154653
C15   C     C_3   0.407363 0.052407 0.483203 0.493775
C16   C     C_3   0.407365 0.947677 0.483205 0.493781
C17   C     C_3   0.527232 0.052109 0.569631 -0.345548
C18   C     C_3   0.527234 0.947776 0.569634 -0.345350
C19   C     C_3   0.497630 0.089812 0.498377 0.063509
C20   C     C_3   0.497631 0.910189 0.498380 0.063267
C21   C     C_3   0.558405 0.947828 0.441951 -0.512005
C22   C     C_3   0.558403 0.052208 0.441947 -0.512529
C23   C     C_R   0.494061 0.579383 0.819193 0.606973
C24   C     C_1   0.498161 0.809381 0.498402 0.104183
C25   C     C_1   0.498159 0.190620 0.498399 0.103978
C26   C     C_R   0.662276 0.499988 0.500125 0.913643
C27   C     C_R   0.499321 0.499946 0.634880 0.942515
C28   C     C_R   0.482954 0.580262 0.253680 -0.194735
C29   C     C_R   0.496366 0.418543 0.253690 -0.194180
C30   C     C_R   0.474205 0.579490 0.181975 -0.152714
C31   C     C_R   0.487935 0.417785 0.182036 -0.153225
C32   C     C_R   0.476804 0.498233 0.145743 0.098367
C33   C     C_R   0.493937 0.499760 0.289850 -0.034702
C34   C     C_R   0.464632 0.419665 0.816667 0.605771
C35   C     C_R   0.470170 0.498061 0.930042 0.390849
C36   C     C_R   0.502676 0.579267 0.747465 -0.264889
C37   C     C_R   0.473851 0.419990 0.745072 -0.265454
C38   C     C_R   0.492944 0.499628 0.710209 -0.231411
C39   C     C_R   0.475141 0.499362 0.854382 -0.222157
C40   C     C_3   0.049049 0.585032 0.536869 -0.379098
F1    F     F_    0.350064 0.915433 0.531857 -0.604732
F2    F     F_    0.350063 0.084624 0.531855 -0.604597
F3    F     F_    0.506724 0.657197 0.853938 -0.633993
F4    F     F_    0.444141 0.341655 0.848627 -0.631721
H1    H     H_    0.927390 0.557974 0.395502 0.174306
H2    H     H_    0.927390 0.645920 0.509836 0.176017
H3    H     H_    0.480513 0.643691 0.280724 0.160361
H4    H     H_    0.504521 0.355565 0.280679 0.160075
H5    H     H_    0.484891 0.076872 0.611684 0.227205
H6    H     H_    0.484894 0.922988 0.611688 0.227242
H7    H     H_    0.538784 0.076978 0.389821 0.179168
H8    H     H_    0.538787 0.923140 0.389825 0.179357
H9    H     H_    0.624019 0.076877 0.451398 0.214781
H10   H     H_    0.624021 0.923099 0.451404 0.214895
H11   H     H_    0.386103 0.076471 0.431298 0.013452
H12   H     H_    0.927430 0.437945 0.396968 0.174198
H13   H     H_    0.386108 0.923700 0.431300 0.012922
H14   H     H_    0.466235 0.642499 0.155034 0.159065
H15   H     H_    0.490085 0.354203 0.155224 0.158581
H16   H     H_    0.927476 0.587483 0.591382 0.177780
H17   H     H_    0.927536 0.416092 0.593475 0.177705
H18   H     H_    0.072797 0.354541 0.513416 0.184017
H19   H     H_    0.072639 0.645947 0.509800 0.183649
H20   H     H_    0.072643 0.557959 0.395478 0.176272
H21   H     H_    0.072679 0.437932 0.396979 0.176623
H22   H     H_    0.592278 0.076727 0.581497 0.169578
H23   H     H_    0.592280 0.923098 0.581503 0.169638
H24   H     H_    0.517543 0.641386 0.721194 0.202337
H25   H     H_    0.464874 0.358030 0.716927 0.206943
H26   H     H_    0.072724 0.587538 0.591360 0.181284
H27   H     H_    0.072791 0.416150 0.593484 0.181382
H28   H     H_    0.927546 0.354513 0.513391 0.176089
N1    N     N_R   0.489644 0.422084 0.034325 -0.165730
N2    N     N_R   0.450952 0.572931 0.034818 -0.163965
N3    N     N_R   0.489279 0.422421 0.965441 -0.087661
N4    N     N_R   0.450425 0.573182 0.965870 -0.084441
N5    N     N_1   0.498630 0.731150 0.498610 -0.087103
N6    N     N_1   0.498630 0.268850 0.498610 -0.087262
O1    O     O_R   0.377210 0.574260 0.500070 -0.600302
O2    O     O_R   0.377210 0.425740 0.500070 -0.600602
O3    O     O_R   0.500060 0.574250 0.398210 -0.622184
O4    O     O_R   0.500060 0.425750 0.398210 -0.622164
O5    O     O_R   0.622930 0.574200 0.500080 -0.614363
O6    O     O_R   0.622930 0.425800 0.500080 -0.614054
O7    O     O_R   0.500080 0.574210 0.601940 -0.614054
O8    O     O_R   0.500080 0.425790 0.601940 -0.615727
Zn1   Zn    Zn3+2 0.500090 0.599130 0.500100 0.990741
Zn2   Zn    Zn3+2 0.500090 0.400870 0.500100 0.990143

loop_
_geom_bond_atom_site_label_1
_geom_bond_atom_site_label_2
_ccdc_geom_bond_type
O5    Zn1   S    
C28   H3    S    
C9    H1    S    
C26   O5    A    
C12   N2    A    
C34   C37   A    
O1    Zn1   S    
C4    H2    S    
C7    C11   S    
C35   N3    A    
C17   H22   S    
C40   H19   S    
N2    N4    A    
C8    O4    A    
C5    C11   T    
C3    C7    S    
C21   H10   S    
C23   C39   A    
C27   C38   S    
C15   C16   S    
C29   C33   A    
C23   F3    S    
C31   H15   S    
C27   O7    A    
C15   C19   S    
C20   C24   S    
C13   C14   T    
C9    C10   S    
C8    C33   S    
C3    H17   S    
C21   C22   S    
C12   C32   S    
N1    N3    A    
C2    C6    S    
C4    C7    S    
C22   H9    S    
O7    Zn1   S    
C35   N4    A    
O8    Zn2   S    
C8    O3    A    
C4    C40   S    
C19   C22   S    
C34   F4    S    
C17   H5    S    
C29   H4    S    
C18   H23   S    
C25   N6    T    
C34   C39   A    
C15   H11   S    
C27   O8    A    
C35   C39   S    
C37   C38   A    
C37   H25   S    
C31   C32   A    
C16   C20   S    
C4    H16   S    
C17   C18   S    
C9    H12   S    
O3    Zn1   S    
C40   H26   S    
C28   C33   A    
C1    O1    A    
C6    C40   S    
C2    H27   S    
C18   H6    S    
C10   H21   S    
N6    Zn2   S    
C7    C9    S    
C26   O6    A    
C10   H20   S    
O6    Zn2   S    
C15   F2    S    
C6    C10   S    
C36   H24   S    
C28   C30   A    
C2    C3    S    
O2    Zn2   S    
C6    C13   S    
C30   C32   A    
O4    Zn2   S    
C30   H14   S    
C36   C38   A    
C17   C19   S    
C3    H28   S    
C18   C20   S    
C16   H13   S    
C19   C25   S    
C5    C26   S    
C24   N5    T    
C20   C21   S    
N5    Zn1   S    
C29   C31   A    
C23   C36   A    
C1    O2    A    
C1    C14   S    
C12   N1    A    
C16   F1    S    
C21   H8    S    
C2    H18   S    
C22   H7    S    
