data_mof_unit_25846.cif
_audit_creation_date              2012-12-10T17:55:49-0500
_audit_creation_method            fapswitch 2.2
_symmetry_space_group_name_H-M    P1
_symmetry_Int_Tables_number       1
_space_group_crystal_system       triclinic
_cell_length_a                    11.04033
_cell_length_b                    10.791956
_cell_length_c                    9.573824
_cell_angle_alpha                 90.643695
_cell_angle_beta                  103.524113
_cell_angle_gamma                 90.686985
_cell_volume                      1108.8652051

loop_
_atom_site_label
_atom_site_type_symbol
_atom_type_description
_atom_site_fract_x
_atom_site_fract_y
_atom_site_fract_z
_atom_type_partial_charge
C1    C     C_R   0.499876 0.262297 0.499452 0.788618
C2    C     C_R   0.500123 0.737703 0.500548 0.788618
C3    C     C_R   0.262532 0.500241 0.441177 0.870895
C4    C     C_R   0.737468 0.499758 0.558823 0.870899
C5    C     C_R   0.414127 0.430407 0.047740 0.091925
C6    C     C_R   0.585877 0.569589 0.952261 0.091924
C7    C     C_R   0.415078 0.431052 0.900072 -0.088090
C8    C     C_R   0.584922 0.568949 0.099928 -0.088094
C9    C     C_2   0.126829 0.502513 0.408100 -0.347261
C10   C     C_2   0.873171 0.497481 0.591899 -0.347252
C11   C     C_2   0.067525 0.497790 0.514970 -0.156452
C12   C     C_2   0.932474 0.502197 0.485028 -0.156470
C13   C     C_R   0.549408 0.063507 0.398833 -0.201699
C14   C     C_R   0.450591 0.936493 0.601167 -0.201720
C15   C     C_R   0.549246 0.935269 0.399206 -0.188506
C16   C     C_R   0.450753 0.064731 0.600793 -0.188489
C17   C     C_R   0.500273 0.871603 0.500778 -0.005392
C18   C     C_R   0.499726 0.128397 0.499222 -0.005377
Cu1   Cu    Cu3+1 0.500000 0.500020 0.640660 0.942897
Cu2   Cu    Cu3+1 0.500000 0.499980 0.359340 0.942895
H1    H     H_    0.881239 0.509215 0.373641 0.176937
H2    H     H_    0.118760 0.490767 0.626357 0.176934
H3    H     H_    0.924759 0.490469 0.702964 0.144883
H4    H     H_    0.075241 0.509529 0.297033 0.144861
H5    H     H_    0.347604 0.375597 0.823624 0.131993
H6    H     H_    0.652398 0.624400 0.176377 0.131995
H7    H     H_    0.589990 0.111793 0.321887 0.139209
H8    H     H_    0.410008 0.888207 0.678113 0.139208
H9    H     H_    0.588743 0.886020 0.321522 0.143307
H10   H     H_    0.411256 0.113980 0.678477 0.143306
N1    N     N_R   0.500030 0.500030 0.852080 -0.178122
N2    N     N_R   0.499970 0.499970 0.147920 -0.178124
O1    O     O_R   0.499990 0.319660 0.618740 -0.590151
O2    O     O_R   0.500010 0.680340 0.381260 -0.590146
O3    O     O_R   0.499990 0.319630 0.381170 -0.581729
O4    O     O_R   0.500010 0.680370 0.618830 -0.581743
O5    O     O_R   0.320690 0.500020 0.575130 -0.589960
O6    O     O_R   0.679310 0.499980 0.424870 -0.589965
O7    O     O_R   0.320680 0.499990 0.337560 -0.570347
O8    O     O_R   0.679320 0.500010 0.662440 -0.570331
C19   C     C_R   0.317843 0.351641 0.086987 0.157900
C20   C     C_R   0.195509 0.394732 0.067466 -0.152855
C21   C     C_R   0.100960 0.316151 0.091436 -0.157265
C22   C     C_R   0.127339 0.193524 0.131842 -0.113120
C23   C     C_R   0.247655 0.148571 0.145201 -0.152139
C24   C     C_R   0.341972 0.226680 0.119887 -0.128517
H11   H     H_    0.173722 0.489130 0.034396 0.110041
H12   H     H_    0.007206 0.350216 0.078234 0.118952
H13   H     H_    0.054159 0.132845 0.150581 0.126773
H14   H     H_    0.267491 0.052839 0.173311 0.139732
H15   H     H_    0.433578 0.189847 0.124884 0.117564
C25   C     C_R   0.682187 0.648321 0.913022 0.157889
C26   C     C_R   0.804516 0.605206 0.932595 -0.152877
C27   C     C_R   0.899090 0.683750 0.908621 -0.157279
C28   C     C_R   0.872738 0.806362 0.868147 -0.113122
C29   C     C_R   0.752428 0.851343 0.854738 -0.152163
C30   C     C_R   0.658088 0.773276 0.880068 -0.128478
H16   H     H_    0.826282 0.510817 0.965713 0.110039
H17   H     H_    0.992840 0.649667 0.921871 0.118946
H18   H     H_    0.945936 0.867009 0.849398 0.126775
H19   H     H_    0.732613 0.947065 0.826579 0.139736
H20   H     H_    0.566487 0.810132 0.875036 0.117583

loop_
_geom_bond_atom_site_label_1
_geom_bond_atom_site_label_2
_ccdc_geom_bond_type
C22   H13   S    
C26   H16   S    
C9    H4    S    
C14   H8    S    
C3    C9    S    
C12   H1    S    
C10   H3    S    
C8    H6    S    
C21   H12   S    
C11   H2    S    
Cu1   Cu2   S    
C7    H5    S    
C19   C24   A    
C5    N2    A    
Cu1   N1    S    
C2    O2    A    
C28   C29   A    
C25   C26   A    
C6    N1    A    
C3    O7    A    
C30   H20   S    
C29   H19   S    
C23   C24   A    
C29   C30   A    
C2    C17   S    
C9    C11   D    
C14   C17   A    
C3    O5    A    
C1    C18   S    
C10   C12   D    
C13   C18   A    
C23   H14   S    
C20   H11   S    
C26   C27   A    
C4    O6    A    
C15   H9    S    
C5    C7    A    
C27   H17   S    
C13   C15   A    
C21   C22   A    
Cu2   N2    S    
C14   C16   A    
C7    N1    A    
Cu1   O8    S    
C16   H10   S    
C1    O1    A    
C25   C30   A    
C8    N2    A    
C11   C12   S    
Cu2   O6    S    
C22   C23   A    
C1    O3    A    
C16   C18   A    
C19   C20   A    
Cu2   O2    S    
C2    O4    A    
C15   C17   A    
Cu2   O7    S    
C5    C19   S    
C27   C28   A    
C13   H7    S    
C6    C8    A    
Cu1   O5    S    
C6    C25   S    
Cu1   O4    S    
C28   H18   S    
Cu2   O3    S    
C4    C10   S    
C24   H15   S    
C4    O8    A    
C20   C21   A    
Cu1   O1    S    
