data_mof_unit_13518.cif
_audit_creation_date              2012-12-10T17:12:37-0500
_audit_creation_method            fapswitch 2.2
_symmetry_space_group_name_H-M    P1
_symmetry_Int_Tables_number       1
_space_group_crystal_system       triclinic
_cell_length_a                    23.447286
_cell_length_b                    10.77256
_cell_length_c                    10.052027
_cell_angle_alpha                 92.678676
_cell_angle_beta                  90.067582
_cell_angle_gamma                 90.20142
_cell_volume                      2536.2220595

loop_
_atom_site_label
_atom_site_type_symbol
_atom_type_description
_atom_site_fract_x
_atom_site_fract_y
_atom_site_fract_z
_atom_type_partial_charge
C1    C     C_R   0.501111 0.263112 0.496417 0.911367
C2    C     C_R   0.968645 0.263713 0.510922 0.346432
C3    C     C_R   0.027994 0.260938 0.493787 0.344550
C4    C     C_R   0.059651 0.373086 0.495244 -0.139719
C5    C     C_R   0.030396 0.487880 0.496068 -0.118260
C6    C     C_R   0.061249 0.601031 0.495905 -0.196962
C7    C     C_R   0.031809 0.714857 0.496379 0.398683
C8    C     C_R   0.972795 0.715638 0.477753 0.410114
C9    C     C_R   0.119775 0.375674 0.497848 0.579805
C10   C     C_R   0.120919 0.597008 0.494449 0.614026
C11   C     C_R   0.238591 0.468115 0.379363 -0.165425
C12   C     C_R   0.389448 0.499108 0.499922 0.909080
C13   C     C_R   0.297693 0.472296 0.379560 -0.137131
C14   C     C_R   0.327325 0.494756 0.499646 -0.115090
C15   C     C_R   0.297229 0.511889 0.619668 -0.262966
C16   C     C_R   0.237772 0.505332 0.620105 0.568261
C17   C     C_R   0.208826 0.485804 0.498873 0.195325
C18   C     C_R   0.761949 0.436556 0.395502 0.468050
C19   C     C_R   0.702559 0.430153 0.399100 0.258095
C20   C     C_R   0.672597 0.498288 0.499634 -0.383661
C21   C     C_R   0.702553 0.567405 0.600014 0.324835
C22   C     C_R   0.762011 0.561133 0.604635 0.429249
C23   C     C_R   0.497108 0.737859 0.503628 0.779436
C24   C     C_R   0.791528 0.498953 0.500306 -0.073443
C25   C     C_2   0.483115 0.929849 0.399170 -0.190264
C26   C     C_2   0.484801 0.869800 0.512518 0.346477
C27   C     C_2   0.475041 0.062299 0.406114 0.349323
C28   C     C_2   0.510016 0.133136 0.483950 0.182923
C29   C     C_2   0.545323 0.510958 0.928016 0.568838
C30   C     C_2   0.540066 0.546968 0.074357 0.370788
C31   C     C_R   0.610453 0.498723 0.499905 1.020940
C32   C     C_R   0.881613 0.603970 0.484536 0.631887
C33   C     C_R   0.879196 0.386218 0.518774 0.646270
C34   C     C_R   0.939085 0.378361 0.510422 -0.167889
C35   C     C_R   0.970239 0.490048 0.497526 -0.131139
C36   C     C_R   0.941350 0.604362 0.486134 -0.205268
H1    H     H_    0.490156 0.884351 0.301859 0.186390
H2    H     H_    0.215744 0.452290 0.286378 0.166551
H3    H     H_    0.320084 0.458178 0.285914 0.210060
H4    H     H_    0.319580 0.531731 0.712642 0.214868
N1    N     N_R   0.852411 0.496548 0.501954 -0.322012
N2    N     N_R   0.148197 0.486023 0.496623 -0.352416
N3    N     N_2   0.500610 0.501330 0.852150 0.014694
N4    N     N_2   0.500630 0.501360 0.147810 0.032512
O1    O     O_R   0.499990 0.319060 0.613040 -0.591199
O2    O     O_2   0.847206 0.285695 0.543379 -0.451695
O3    O     O_2   0.150245 0.270323 0.504987 -0.480421
O4    O     O_2   0.151977 0.702437 0.489289 -0.463943
O5    O     O_R   0.500010 0.319100 0.386900 -0.554640
O6    O     O_R   0.416150 0.499940 0.613100 -0.577683
O7    O     O_R   0.416160 0.499980 0.386960 -0.583951
O8    O     O_R   0.499990 0.680900 0.613100 -0.614136
O9    O     O_R   0.500010 0.680940 0.386960 -0.604835
O10   O     O_R   0.583840 0.500020 0.613040 -0.540852
O11   O     O_R   0.583850 0.500060 0.386900 -0.563730
O12   O     O_2   0.852388 0.709625 0.466585 -0.472251
Zn1   Zn    Zn3+2 0.499990 0.499970 0.650990 1.114276
Zn2   Zn    Zn3+2 0.500010 0.500030 0.349010 1.135433
Cl1   Cl    Cl    0.933441 0.119799 0.530554 -0.435414
Cl2   Cl    Cl    0.667536 0.329385 0.281229 -0.517051
O13   O     O_3   0.673951 0.636433 0.698146 -0.543295
C37   C     C_3   0.666862 0.758067 0.654981 -0.085559
H5    H     H_    0.645774 0.814677 0.735568 0.188367
H6    H     H_    0.638951 0.758855 0.565368 0.127265
H7    H     H_    0.708625 0.802897 0.634703 0.198855
O14   O     O_3   0.791684 0.623311 0.706459 -0.544014
C38   C     C_3   0.796009 0.544396 0.813985 -0.222732
H8    H     H_    0.818694 0.456737 0.784607 0.158430
H9    H     H_    0.753304 0.523373 0.855656 0.182678
H10   H     H_    0.821245 0.592644 0.894355 0.180481
O15   O     O_3   0.464859 0.930158 0.629781 -0.598880
C39   C     C_3   0.499601 0.909346 0.741531 -0.061794
H11   H     H_    0.544533 0.885619 0.715636 0.143001
H12   H     H_    0.480421 0.835722 0.801043 0.207343
H13   H     H_    0.500734 0.995827 0.805894 0.202980
Cl3   Cl    Cl    0.414499 0.120329 0.324737 -0.503605
Cl4   Cl    Cl    0.575841 0.080398 0.546486 -0.616904
O16   O     O_3   0.598491 0.495121 0.869806 -0.571014
C40   C     C_3   0.631479 0.411425 0.941087 -0.167192
H14   H     H_    0.606459 0.328679 0.969816 0.177083
H15   H     H_    0.651088 0.459267 0.030021 0.207411
H16   H     H_    0.666747 0.377033 0.875967 0.188957
Cl5   Cl    Cl    0.439207 0.579607 0.905393 -0.510938
Cl6   Cl    Cl    0.586988 0.659901 0.144066 -0.573830
Cl7   Cl    Cl    0.060253 0.114477 0.459716 -0.459247
Cl8   Cl    Cl    0.469032 0.361940 0.091700 -0.438130
O17   O     O_3   0.060350 0.826974 0.512623 -0.513255
C41   C     C_3   0.061000 0.861313 0.649955 -0.008325
H17   H     H_    0.088445 0.944666 0.666219 0.219669
H18   H     H_    0.079421 0.787084 0.710372 0.116252
H19   H     H_    0.017411 0.885758 0.685874 0.166119
O18   O     O_3   0.946015 0.827685 0.459633 -0.505460
C42   C     C_3   0.949113 0.852353 0.323097 -0.014903
H20   H     H_    0.923539 0.936326 0.305171 0.222271
H21   H     H_    0.930829 0.774774 0.259155 0.093103
H22   H     H_    0.993792 0.871647 0.292940 0.172377
O19   O     O_3   0.207249 0.528081 0.736294 -0.605856
C43   C     C_3   0.212977 0.425440 0.817277 -0.247252
H23   H     H_    0.184584 0.439576 0.904830 0.198432
H24   H     H_    0.257313 0.417534 0.855280 0.183936
H25   H     H_    0.199600 0.337294 0.763601 0.192174
O20   O     O_3   0.791629 0.373201 0.294954 -0.520464
C44   C     C_3   0.800249 0.454222 0.190550 -0.242942
H26   H     H_    0.759003 0.485540 0.148790 0.173221
H27   H     H_    0.823587 0.403426 0.109106 0.189722
H28   H     H_    0.826739 0.535877 0.223613 0.149373

loop_
_geom_bond_atom_site_label_1
_geom_bond_atom_site_label_2
_ccdc_geom_bond_type
O17   C41   S    
C42   H20   S    
C26   O15   S    
C10   N2    A    
N3    Cl5   S    
C19   C20   A    
O19   C43   S    
C7    C8    A    
O1    Zn1   S    
C9    N2    A    
C29   C30   S    
C18   C24   A    
C32   C36   A    
C18   C19   A    
C8    C36   A    
C5    C6    A    
C16   O19   S    
C3    Cl7   S    
C15   C16   A    
C34   C35   A    
C18   O20   S    
C23   C26   S    
C17   N2    S    
C22   O14   S    
C37   H6    S    
C25   H1    S    
C7    O17   S    
C29   O16   S    
C35   C36   A    
N4    Zn2   S    
C16   C17   A    
C1    C28   S    
C32   N1    A    
C8    O18   S    
C21   O13   S    
C2    C34   A    
O14   C38   S    
C42   H21   S    
C21   C22   A    
C29   N3    D    
C24   N1    S    
C30   N4    D    
O20   C44   S    
C39   H13   S    
N4    Cl8   S    
C23   O9    A    
C38   H8    S    
C39   H12   S    
C40   H15   S    
C2    Cl1   S    
C39   H11   S    
C25   C26   D    
O5    Zn2   S    
C38   H9    S    
C11   H2    S    
C37   H5    S    
C41   H19   S    
C33   C34   A    
C44   H27   S    
O7    Zn2   S    
C20   C21   A    
C28   Cl4   S    
C41   H18   S    
C9    O3    S    
C42   H22   S    
C43   H24   S    
C10   O4    S    
C20   C31   S    
C22   C24   A    
C27   Cl3   S    
C44   H26   S    
C12   O7    A    
C11   C17   A    
C37   H7    S    
O16   C40   S    
O6    Zn1   S    
C12   C14   S    
C4    C5    A    
C6    C10   A    
C40   H16   S    
C12   O6    A    
O9    Zn2   S    
C6    C7    A    
C19   Cl2   S    
C25   C27   S    
C43   H25   S    
C33   O2    S    
C38   H10   S    
C33   N1    A    
C2    C3    A    
O15   C39   S    
C11   C13   A    
C1    O1    A    
C23   O8    A    
C5    C35   A    
O18   C42   S    
C44   H28   S    
C31   O10   A    
C30   Cl6   S    
O13   C37   S    
C15   H4    S    
C13   H3    S    
O8    Zn1   S    
N3    Zn1   S    
C40   H14   S    
C41   H17   S    
C43   H23   S    
O11   Zn2   S    
C27   C28   D    
C14   C15   A    
C31   O11   A    
C4    C9    A    
C13   C14   A    
C1    O5    A    
C32   O12   S    
C3    C4    A    
O10   Zn1   S    
