data_mof_unit_21363.cif
_audit_creation_date              2012-12-11T14:41:12-0500
_audit_creation_method            fapswitch 2.2
_symmetry_space_group_name_H-M    P1
_symmetry_Int_Tables_number       1
_space_group_crystal_system       triclinic
_cell_length_a                    24.700834
_cell_length_b                    17.49791
_cell_length_c                    15.587465
_cell_angle_alpha                 89.917924
_cell_angle_beta                  129.774763
_cell_angle_gamma                 90.239527
_cell_volume                      5177.85342425

loop_
_atom_site_label
_atom_site_type_symbol
_atom_type_description
_atom_site_fract_x
_atom_site_fract_y
_atom_site_fract_z
_atom_type_partial_charge
C1    C     C_R   0.333754 0.391608 0.198026 -0.149941
C2    C     C_R   0.334742 0.609514 0.197728 -0.127168
C3    C     C_R   0.845879 0.865002 0.227519 -0.137422
C4    C     C_R   0.836535 0.116722 0.205421 -0.134997
C5    C     C_R   0.638615 0.349090 0.842633 -0.132136
C6    C     C_R   0.643432 0.643461 0.849632 0.017015
C7    C     C_R   0.126388 0.827707 0.811779 -0.089440
C8    C     C_R   0.110815 0.188071 0.771651 0.024523
C9    C     C_R   0.656341 0.330518 0.499927 -0.110581
C10   C     C_R   0.685688 0.609766 0.500986 0.066553
C11   C     C_R   0.184053 0.885019 0.498310 -0.039746
C12   C     C_R   0.182176 0.123754 0.501123 0.055545
C13   C     C_R   0.359326 0.316340 0.498286 -0.010610
C14   C     C_R   0.351322 0.676648 0.494909 0.064970
C15   C     C_R   0.841435 0.832574 0.494906 0.021903
C16   C     C_R   0.814898 0.110831 0.495605 0.008725
C17   C     C_3   0.347277 0.240736 0.620010 -0.462691
C18   C     C_3   0.346064 0.809883 0.536819 -0.419156
C19   C     C_3   0.848813 0.726603 0.606866 -0.466191
C20   C     C_3   0.787925 0.244350 0.480965 -0.362210
C21   C     C_3   0.807606 0.664346 0.612205 -0.271573
C22   C     C_3   0.738286 0.303407 0.468409 -0.387454
C23   C     C_3   0.302585 0.181552 0.620853 -0.270421
C24   C     C_3   0.301597 0.869054 0.540673 -0.298078
C25   C     C_3   0.243070 0.298655 0.442877 -0.445651
C26   C     C_3   0.290546 0.706685 0.567297 -0.498869
C27   C     C_3   0.739903 0.805314 0.479671 -0.460934
C28   C     C_3   0.785214 0.163369 0.609673 -0.570782
C29   C     C_3   0.305874 0.179668 0.438544 0.467615
C30   C     C_3   0.233944 0.748407 0.362826 0.515889
C31   C     C_3   0.773841 0.706348 0.396201 0.512369
C32   C     C_3   0.686877 0.148122 0.393920 0.499674
C33   C     C_3   0.314895 0.258982 0.497201 0.214432
C34   C     C_3   0.304852 0.733047 0.487993 0.273722
C35   C     C_3   0.800779 0.769131 0.491354 0.237316
C36   C     C_3   0.768124 0.162899 0.494533 0.288468
C37   C     C_3   0.731046 0.663265 0.500883 0.195278
C38   C     C_3   0.694419 0.267237 0.497156 0.264319
C39   C     C_3   0.231896 0.169719 0.500906 0.204609
C40   C     C_3   0.229369 0.833345 0.493182 0.239267
C41   C     C_3   0.698380 0.743566 0.483917 -0.557412
C42   C     C_3   0.743968 0.226344 0.612549 -0.501381
C43   C     C_3   0.196822 0.248625 0.452577 -0.565602
C44   C     C_3   0.240056 0.760699 0.559608 -0.561571
C45   C     C_R   0.662283 0.379180 0.788957 -0.210762
C46   C     C_R   0.664278 0.618370 0.790679 -0.293238
C47   C     C_R   0.154411 0.865744 0.768685 -0.200184
C48   C     C_R   0.144187 0.144136 0.742944 -0.287195
C49   C     C_3   0.732928 0.643088 0.405785 0.386228
C50   C     C_3   0.644019 0.202633 0.410461 0.333566
C51   C     C_3   0.246000 0.133887 0.425418 0.422256
C52   C     C_3   0.190889 0.808943 0.369747 0.313034
C53   C     C_2   0.669009 0.280396 0.914519 0.198965
C54   C     C_2   0.689287 0.683287 0.956831 0.168664
C55   C     C_2   0.156369 0.757003 0.880772 0.149362
C56   C     C_2   0.131257 0.266639 0.819261 0.115664
C57   C     C_2   0.699567 0.228735 0.892860 -0.176499
C58   C     C_2   0.757206 0.661136 0.031146 -0.199284
C59   C     C_2   0.198893 0.713269 0.874623 -0.169671
C60   C     C_2   0.196265 0.291588 0.863249 -0.169629
C61   C     C_2   0.313095 0.664935 0.027003 -0.206796
C62   C     C_2   0.308244 0.343415 0.021460 -0.212465
C63   C     C_2   0.814169 0.178490 0.038540 -0.217627
C64   C     C_2   0.846343 0.759345 0.117352 -0.212731
C65   C     C_2   0.243520 0.654394 0.957667 -0.124898
C66   C     C_2   0.238044 0.344139 0.958311 -0.123966
C67   C     C_2   0.744539 0.168559 0.971349 -0.135735
C68   C     C_2   0.809932 0.708584 0.126750 -0.116571
C69   C     C_R   0.599273 0.368336 0.406520 -0.133064
C70   C     C_R   0.615988 0.598698 0.408269 -0.275720
C71   C     C_R   0.114955 0.900891 0.407213 -0.195078
C72   C     C_R   0.113914 0.107086 0.407829 -0.238595
C73   C     C_R   0.412332 0.358217 0.591771 -0.133877
C74   C     C_R   0.406138 0.637900 0.590695 -0.208779
C75   C     C_R   0.898306 0.870277 0.589823 -0.139933
C76   C     C_R   0.883233 0.095403 0.588948 -0.100666
C77   C     C_R   0.676122 0.370980 0.593355 0.485161
C78   C     C_R   0.691039 0.594932 0.592507 0.447121
C79   C     C_R   0.190010 0.901333 0.591541 0.496508
C80   C     C_R   0.189549 0.101317 0.592611 0.443380
C81   C     C_R   0.336868 0.358450 0.405887 -0.146291
C82   C     C_R   0.336793 0.640082 0.405107 -0.099186
C83   C     C_R   0.823311 0.872997 0.404874 -0.187011
C84   C     C_R   0.811243 0.099307 0.405227 -0.132981
C85   C     C_R   0.573987 0.383812 0.793901 0.503527
C86   C     C_R   0.576537 0.614376 0.797260 0.480420
C87   C     C_R   0.066379 0.869063 0.775131 0.507817
C88   C     C_R   0.057915 0.141919 0.752424 0.480615
C89   C     C_R   0.424513 0.389880 0.198599 -0.118889
C90   C     C_R   0.427002 0.613148 0.201949 -0.135199
C91   C     C_R   0.938012 0.864004 0.230013 -0.140103
C92   C     C_R   0.927472 0.117653 0.205027 -0.135351
C93   C     C_R   0.354080 0.371278 0.136422 0.141369
C94   C     C_R   0.357027 0.632479 0.139246 0.147405
C95   C     C_R   0.876453 0.826205 0.190157 0.141917
C96   C     C_R   0.858692 0.141559 0.147487 0.139018
H1    H     H_    0.280720 0.394400 0.169055 0.089239
H2    H     H_    0.280996 0.607217 0.166018 0.078968
H3    H     H_    0.794369 0.855226 0.201756 0.085689
H4    H     H_    0.784100 0.119341 0.178991 0.090011
H5    H     H_    0.402340 0.219573 0.670765 0.193734
H6    H     H_    0.360076 0.832407 0.486444 0.220157
H7    H     H_    0.895803 0.701512 0.622727 0.205069
H8    H     H_    0.785607 0.248241 0.407364 0.197469
H9    H     H_    0.833344 0.607882 0.629604 0.223237
H10   H     H_    0.702554 0.325065 0.381073 0.209771
H11   H     H_    0.331858 0.126669 0.654414 0.243537
H12   H     H_    0.293286 0.919193 0.490372 0.247717
H13   H     H_    0.293459 0.203143 0.677795 0.174825
H14   H     H_    0.332539 0.889418 0.627410 0.146220
H15   H     H_    0.808894 0.678305 0.683064 0.189265
H16   H     H_    0.769811 0.352909 0.523870 0.160611
H17   H     H_    0.252015 0.354151 0.485349 0.196856
H18   H     H_    0.340457 0.708187 0.655374 0.195636
H19   H     H_    0.760739 0.846760 0.548852 0.193872
H20   H     H_    0.841955 0.176443 0.677821 0.209707
H21   H     H_    0.698821 0.756367 0.554390 0.198161
H22   H     H_    0.783734 0.265293 0.680407 0.234116
H23   H     H_    0.188858 0.276877 0.507772 0.200002
H24   H     H_    0.261668 0.774047 0.645956 0.205730
H25   H     H_    0.677958 0.638857 0.326569 -0.017195
H26   H     H_    0.623148 0.170938 0.445939 0.020188
H27   H     H_    0.195368 0.137261 0.339150 -0.019259
H28   H     H_    0.139271 0.783430 0.337039 0.000233
H29   H     H_    0.214233 0.313025 0.354376 0.158734
H30   H     H_    0.272282 0.646983 0.554899 0.173961
H31   H     H_    0.705443 0.838273 0.401780 0.194491
H32   H     H_    0.776628 0.107664 0.632415 0.175687
H33   H     H_    0.713629 0.370442 0.813470 0.199981
H34   H     H_    0.716016 0.624822 0.815278 0.153532
H35   H     H_    0.202948 0.852799 0.785385 0.185152
H36   H     H_    0.186295 0.162085 0.744120 0.145519
H37   H     H_    0.642242 0.746026 0.407286 0.181586
H38   H     H_    0.713175 0.201975 0.635719 0.173800
H39   H     H_    0.144079 0.243126 0.368420 0.182137
H40   H     H_    0.188670 0.731743 0.518978 0.173083
H41   H     H_    0.220163 0.613160 0.977583 0.133411
H42   H     H_    0.214208 0.372726 0.988135 0.124866
H43   H     H_    0.721473 0.125922 0.989942 0.152973
H44   H     H_    0.809111 0.711950 0.195259 0.139915
H45   H     H_    0.698976 0.236173 0.823047 0.134989
H46   H     H_    0.775888 0.611904 0.014421 0.141287
H47   H     H_    0.209362 0.727881 0.818780 0.126149
H48   H     H_    0.226889 0.260093 0.847845 0.129049
H49   H     H_    0.336938 0.705709 0.007076 0.142500
H50   H     H_    0.332999 0.315303 0.992256 0.139214
H51   H     H_    0.837518 0.220854 0.019646 0.148520
H52   H     H_    0.848123 0.755626 0.049591 0.140130
H53   H     H_    0.575338 0.361763 0.320004 0.186489
H54   H     H_    0.591787 0.602437 0.321181 0.125806
H55   H     H_    0.090309 0.902153 0.319966 0.158165
H56   H     H_    0.091362 0.110482 0.321372 0.124702
H57   H     H_    0.439058 0.344870 0.677521 0.164458
H58   H     H_    0.430393 0.651371 0.675853 0.139487
H59   H     H_    0.916403 0.865417 0.672841 0.153568
H60   H     H_    0.901313 0.086908 0.672010 0.111934
H61   H     H_    0.293174 0.346949 0.319518 0.113443
H62   H     H_    0.303220 0.656964 0.319642 0.140135
H63   H     H_    0.774760 0.874365 0.321438 0.134023
H64   H     H_    0.765500 0.100503 0.317825 0.151936
H65   H     H_    0.453590 0.391197 0.168434 0.101978
H66   H     H_    0.457685 0.614186 0.174592 0.097000
H67   H     H_    0.972961 0.850694 0.212867 0.095219
H68   H     H_    0.957269 0.120152 0.176151 0.099080
H69   H     H_    0.348736 0.293212 0.661955 0.174134
H70   H     H_    0.396849 0.801358 0.622783 0.157669
H71   H     H_    0.868523 0.766145 0.677104 0.157860
H72   H     H_    0.843119 0.258905 0.555107 0.173331
N1    N     N_R   0.389430 0.421450 0.294590 -0.042402
N2    N     N_R   0.389430 0.578550 0.294590 -0.046272
N3    N     N_R   0.889430 0.921450 0.294590 -0.042850
N4    N     N_R   0.889430 0.078550 0.294590 -0.046113
N5    N     N_R   0.612200 0.424040 0.705410 -0.063562
N6    N     N_R   0.612200 0.575960 0.705410 -0.063442
N7    N     N_R   0.112200 0.924040 0.705410 -0.059387
N8    N     N_R   0.112200 0.075960 0.705410 -0.062968
N9    N     N_R   0.581780 0.422390 0.443390 -0.076092
N10   N     N_R   0.581780 0.577610 0.443390 -0.055742
N11   N     N_R   0.081780 0.922390 0.443390 -0.074426
N12   N     N_R   0.081780 0.077610 0.443390 -0.058620
N13   N     N_R   0.419850 0.423100 0.556610 -0.035816
N14   N     N_R   0.419850 0.576900 0.556610 -0.043111
N15   N     N_R   0.919850 0.923100 0.556610 -0.035706
N16   N     N_R   0.919850 0.076900 0.556610 -0.048361
N17   N     N_R   0.627410 0.423100 0.556610 -0.070063
N18   N     N_R   0.627410 0.576900 0.556610 -0.092755
N19   N     N_R   0.127410 0.923100 0.556610 -0.071944
N20   N     N_R   0.127410 0.076900 0.556610 -0.096057
N21   N     N_R   0.374220 0.422390 0.443390 -0.039214
N22   N     N_R   0.374220 0.577610 0.443390 -0.051404
N23   N     N_R   0.874220 0.922390 0.443390 -0.035232
N24   N     N_R   0.874220 0.077610 0.443390 -0.049763
N25   N     N_R   0.555000 0.424040 0.705410 -0.073871
N26   N     N_R   0.555000 0.575960 0.705410 -0.097446
N27   N     N_R   0.055000 0.924040 0.705410 -0.075320
N28   N     N_R   0.055000 0.075960 0.705410 -0.099509
N29   N     N_R   0.446630 0.421450 0.294590 -0.042771
N30   N     N_R   0.446630 0.578550 0.294590 -0.038018
N31   N     N_R   0.946630 0.921450 0.294590 -0.040694
N32   N     N_R   0.946630 0.078550 0.294590 -0.040198
Ni1   Ni    Ni4+2 0.382890 0.500000 0.370170 0.197785
Ni2   Ni    Ni4+2 0.882890 0.000000 0.370170 0.193847
Ni3   Ni    Ni4+2 0.618740 0.500000 0.629830 0.228303
Ni4   Ni    Ni4+2 0.118740 0.000000 0.629830 0.243244
Ni5   Ni    Ni4+2 0.514090 0.500000 0.370170 0.203289
Ni6   Ni    Ni4+2 0.014090 0.000000 0.370170 0.205488
Ni7   Ni    Ni4+2 0.487550 0.500000 0.629830 0.236916
Ni8   Ni    Ni4+2 0.987550 0.000000 0.629830 0.227856
C97   C     C_3   0.725604 0.731088 0.269428 -0.547580
C98   C     C_3   0.649467 0.760621 0.208414 -0.266895
C99   C     C_3   0.636639 0.843262 0.167182 -0.926901
H73   H     H_    0.658343 0.884768 0.235797 0.246037
H74   H     H_    0.659985 0.854744 0.127176 0.261838
H75   H     H_    0.579064 0.853562 0.104562 0.254802
H76   H     H_    0.612529 0.724269 0.133291 0.203321
H77   H     H_    0.632480 0.754272 0.258218 0.188247
H78   H     H_    0.754054 0.767024 0.252447 0.180685
H79   H     H_    0.718815 0.678224 0.223582 0.189184
C100  C     C_3   0.661449 0.062807 0.377106 -0.569797
C101  C     C_3   0.675208 0.021011 0.476333 -0.294298
C102  C     C_3   0.624502 0.953735 0.436697 -0.890005
H80   H     H_    0.570565 0.975082 0.395264 0.260883
H81   H     H_    0.622662 0.917857 0.376310 0.263519
H82   H     H_    0.641742 0.918051 0.509220 0.248329
H83   H     H_    0.729901 0.998603 0.531662 0.200377
H84   H     H_    0.668083 0.059166 0.525020 0.198661
H85   H     H_    0.603665 0.061927 0.306445 0.202619
H86   H     H_    0.685292 0.028357 0.348968 0.207443
C103  C     C_3   0.293255 0.182309 0.325880 -0.527086
C104  C     C_3   0.220098 0.203655 0.215751 -0.347151
C105  C     C_3   0.221982 0.206962 0.119790 -0.844609
H87   H     H_    0.261162 0.249803 0.137474 0.260644
H88   H     H_    0.235905 0.150228 0.107050 0.266114
H89   H     H_    0.169369 0.223282 0.041740 0.251391
H90   H     H_    0.180049 0.159946 0.192074 0.213296
H91   H     H_    0.202199 0.259642 0.221003 0.195014
H92   H     H_    0.334071 0.219093 0.337089 0.204173
H93   H     H_    0.304376 0.123956 0.312348 0.231931
C106  C     C_3   0.183029 0.678408 0.289444 -0.601434
C107  C     C_3   0.172697 0.615057 0.345762 -0.265845
C108  C     C_3   0.115672 0.558591 0.259678 -0.901359
H94   H     H_    0.064318 0.588113 0.200321 0.266919
H95   H     H_    0.130285 0.531635 0.212533 0.256893
H96   H     H_    0.109806 0.512955 0.302827 0.247761
H97   H     H_    0.222269 0.582258 0.402847 0.208071
H98   H     H_    0.156232 0.639735 0.391213 0.203848
H99   H     H_    0.130190 0.701795 0.219853 0.194749
H100  H     H_    0.197764 0.650483 0.243625 0.204979
O1    O     O_3   0.369064 0.138083 0.513281 -0.731707
H101  H     H_    0.407945 0.167647 0.525559 0.307462
O2    O     O_3   0.255150 0.781100 0.305009 -0.757801
H102  H     H_    0.213871 0.784568 0.224162 0.324950
O3    O     O_3   0.834182 0.672189 0.420852 -0.740981
H103  H     H_    0.859224 0.711322 0.411428 0.308331
O4    O     O_3   0.674141 0.170664 0.294918 -0.775159
H104  H     H_    0.626573 0.153380 0.228366 0.335093
O5    O     O_3   0.763569 0.570505 0.425751 -0.722783
H105  H     H_    0.750072 0.552474 0.353929 0.329556
O6    O     O_3   0.585863 0.232209 0.306842 -0.775961
H106  H     H_    0.548565 0.192239 0.269456 0.306352
O7    O     O_3   0.263632 0.056441 0.451780 -0.724147
H107  H     H_    0.257844 0.033460 0.388109 0.335342
O8    O     O_3   0.178397 0.873910 0.305523 -0.744532
H108  H     H_    0.136572 0.862230 0.227086 0.301949
C109  C     C_3   0.670558 0.272156 0.013486 -0.374809
C110  C     C_3   0.603293 0.234599 0.981764 -0.261460
C111  C     C_3   0.602175 0.147885 0.970436 -0.884988
H109  H     H_    0.599745 0.132231 0.899058 0.263000
H110  H     H_    0.649361 0.122080 0.048632 0.249474
H111  H     H_    0.554600 0.124202 0.954245 0.250386
H112  H     H_    0.600055 0.247926 0.048078 0.211989
H113  H     H_    0.555445 0.257879 0.902092 0.216680
H114  H     H_    0.717488 0.240178 0.083322 0.196017
H115  H     H_    0.677880 0.329535 0.049806 0.137513
C112  C     C_3   0.660777 0.754263 0.971363 -0.381788
C113  C     C_3   0.649032 0.818213 0.893534 -0.265997
C114  C     C_3   0.627091 0.892689 0.914291 -0.921012
H116  H     H_    0.670577 0.914894 0.999105 0.254088
H117  H     H_    0.615125 0.936147 0.852328 0.256977
H118  H     H_    0.579296 0.883560 0.905742 0.269245
H119  H     H_    0.607176 0.800722 0.805165 0.198761
H120  H     H_    0.698439 0.828594 0.906989 0.207505
H121  H     H_    0.610309 0.740213 0.952785 0.218922
H122  H     H_    0.697229 0.774958 0.058386 0.189454
C115  C     C_3   0.141070 0.735053 0.958094 -0.400256
C116  C     C_3   0.083317 0.672999 0.903508 -0.266871
C117  C     C_3   0.060468 0.656645 0.972289 -0.950766
H123  H     H_    0.104556 0.630564 0.053044 0.263247
H124  H     H_    0.043513 0.710033 0.987417 0.263359
H125  H     H_    0.015614 0.615702 0.926637 0.263914
H126  H     H_    0.036506 0.690519 0.818242 0.188808
H127  H     H_    0.102742 0.619078 0.894410 0.199357
H128  H     H_    0.189427 0.714283 0.039617 0.185115
H129  H     H_    0.126391 0.785997 0.981176 0.208246
C118  C     C_3   0.080509 0.314734 0.820833 -0.364982
C119  C     C_3   0.011858 0.329999 0.701895 -0.232751
C120  C     C_3   0.960348 0.376578 0.703449 -0.903092
H130  H     H_    0.984329 0.432200 0.746200 0.263273
H131  H     H_    0.911952 0.387917 0.616510 0.255124
H132  H     H_    0.945402 0.344465 0.747131 0.265759
H133  H     H_    0.985645 0.275598 0.657027 0.216008
H134  H     H_    0.024106 0.362108 0.654502 0.192793
H135  H     H_    0.069066 0.285569 0.870926 0.224684
H136  H     H_    0.102984 0.371433 0.859571 0.168148
O9    O     O_3   0.742511 0.379405 0.694072 -0.802090
H137  H     H_    0.774312 0.388632 0.676892 0.318511
O10   O     O_3   0.752254 0.571834 0.693898 -0.790958
H138  H     H_    0.738934 0.542047 0.731997 0.332959
O11   O     O_3   0.249858 0.908593 0.701371 -0.790150
H139  H     H_    0.291170 0.895806 0.708343 0.314251
O12   O     O_3   0.252069 0.083828 0.696095 -0.779498
H140  H     H_    0.240481 0.056405 0.738227 0.345493
O13   O     O_3   0.543135 0.395568 0.841304 -0.809677
H141  H     H_    0.579429 0.388847 0.922659 0.315820
O14   O     O_3   0.548009 0.605758 0.848818 -0.787108
H142  H     H_    0.510717 0.566128 0.806586 0.327433
O15   O     O_3   0.034480 0.869102 0.821572 -0.799949
H143  H     H_    0.024212 0.815406 0.825734 0.301781
O16   O     O_3   0.023269 0.155449 0.792877 -0.797469
H144  H     H_    0.012781 0.104602 0.807224 0.310395

loop_
_geom_bond_atom_site_label_1
_geom_bond_atom_site_label_2
_ccdc_geom_bond_type
C15   C75   A    
C55   C59   D    
C51   H27   S    
C88   N28   A    
C70   H54   S    
C7    C55   S    
C8    C56   S    
C18   H70   S    
C116  H126  S    
N13   Ni7   S    
C22   C38   S    
C29   C33   S    
C16   C84   A    
C26   H30   S    
C28   H20   S    
C4    C96   A    
C112  C113  S    
C88   O16   S    
C46   N6    A    
C104  H91   S    
C78   N18   A    
C65   H41   S    
C19   H71   S    
C6    C54   S    
N7    N27   A    
C43   H23   S    
O2    H102  S    
C24   H14   S    
C30   C34   S    
C61   C94   S    
C27   C35   S    
C63   C96   S    
C47   H35   S    
C106  H100  S    
C26   H18   S    
C13   C33   S    
C103  C104  S    
C45   N5    A    
C73   N13   A    
C31   C97   S    
C23   H11   S    
C9    C77   A    
C81   N21   A    
C11   C79   A    
C119  C120  S    
C13   C73   A    
N6    N26   A    
C107  H97   S    
C68   H44   S    
C103  H92   S    
C52   O8    S    
N5    Ni3   S    
C42   H38   S    
C97   H78   S    
C87   N27   A    
C22   H10   S    
C52   H28   S    
C113  H120  S    
C53   C109  S    
C32   O4    S    
C105  H89   S    
N10   N18   A    
C61   C65   D    
C1    C93   A    
C62   C93   S    
C110  H113  S    
N14   N22   A    
C86   N26   A    
C27   H19   S    
C39   C51   S    
C25   C43   S    
C41   H37   S    
C10   C78   A    
C26   C44   S    
C86   O14   S    
C119  H134  S    
N26   Ni7   S    
O1    H101  S    
C17   C23   S    
C90   H66   S    
C18   C24   S    
C64   C68   D    
C19   C21   S    
N7    Ni4   S    
C110  H112  S    
O3    H103  S    
C82   H62   S    
C111  H111  S    
C98   H76   S    
C92   C96   A    
C30   O2    S    
C74   H58   S    
O5    H105  S    
C18   H6    S    
C19   C35   S    
C61   H49   S    
C49   O5    S    
N27   Ni8   S    
C100  H86   S    
C67   H43   S    
C5    C85   A    
C59   H47   S    
C114  H116  S    
C64   H52   S    
C120  H131  S    
C27   H31   S    
C63   H51   S    
C101  C102  S    
N1    N29   A    
C71   H55   S    
C62   C66   D    
C2    C94   A    
N20   Ni4   S    
C8    C88   A    
C29   O1    S    
N28   Ni8   S    
C102  H80   S    
C75   H59   S    
C66   H42   S    
C49   H25   S    
C117  H124  S    
C97   C98   S    
C80   N20   A    
C101  H84   S    
N4    Ni2   S    
C109  H114  S    
C22   H16   S    
C72   N12   A    
C118  H135  S    
C29   C51   S    
C30   C52   S    
C4    N4    A    
C16   C76   A    
C79   O11   S    
C14   C34   S    
C3    C95   A    
C111  H109  S    
C32   C36   S    
C74   N14   A    
C89   N29   A    
C6    C86   A    
C116  H127  S    
C108  H96   S    
N3    Ni2   S    
C4    H4    S    
C29   C103  S    
C59   C65   S    
C107  C108  S    
N18   Ni3   S    
N4    N32   A    
C37   C41   S    
C11   C40   S    
C91   C95   A    
C3    H3    S    
C40   C44   S    
C99   H75   S    
C113  C114  S    
C62   H50   S    
C114  H118  S    
C41   H21   S    
C92   N32   A    
C47   N7    A    
O4    H104  S    
C25   C33   S    
C48   N8    A    
C44   H40   S    
C45   H33   S    
N25   Ni7   S    
N8    Ni4   S    
N29   Ni5   S    
C106  C107  S    
C50   H26   S    
C84   H64   S    
O8    H108  S    
C51   O7    S    
C83   N23   A    
C9    C69   A    
C102  H82   S    
C85   O13   S    
C11   C71   A    
N11   N19   A    
C44   H24   S    
C13   C81   A    
C55   C115  S    
N9    N17   A    
C106  H99   S    
C25   H29   S    
N12   N20   A    
C69   N9    A    
N13   N21   A    
C77   O9    S    
C72   H56   S    
C115  H129  S    
N16   N24   A    
C24   H12   S    
C12   C72   A    
C60   C66   S    
O14   H142  S    
N30   Ni5   S    
C107  H98   S    
C91   H67   S    
C17   C33   S    
C31   C49   S    
C89   H65   S    
C21   H15   S    
C90   C94   A    
C23   H13   S    
C81   H61   S    
C31   O3    S    
O10   H138  S    
C100  C101  S    
C53   C57   D    
C42   H22   S    
C15   C83   A    
C5    C45   A    
C76   H60   S    
N31   Ni6   S    
C56   C60   D    
C7    C47   A    
C8    C48   A    
C46   H34   S    
C115  C116  S    
C25   H17   S    
C37   C49   S    
C58   H46   S    
C99   H73   S    
C87   O15   S    
C117  H125  S    
C104  H90   S    
C105  H88   S    
C2    N2    A    
C20   H8    S    
C10   C70   A    
C58   C68   S    
C20   C22   S    
N5    N25   A    
C31   C35   S    
C14   C82   A    
C14   C74   A    
C118  C119  S    
N16   Ni8   S    
C57   H45   S    
C69   H53   S    
N17   Ni3   S    
C12   C39   S    
C17   H69   S    
C60   H48   S    
C111  H110  S    
O13   H141  S    
O7    H107  S    
C98   H77   S    
N19   Ni4   S    
N9    Ni5   S    
C7    C87   A    
C104  C105  S    
N1    Ni1   S    
O16   H144  S    
C20   C36   S    
C21   C37   S    
C28   C36   S    
O9    H137  S    
C113  H119  S    
C48   H36   S    
C100  H85   S    
C103  H93   S    
C21   H9    S    
C78   O10   S    
O12   H140  S    
C77   N17   A    
C120  H130  S    
C30   C106  S    
C75   N15   A    
O11   H139  S    
C16   C36   S    
C79   N19   A    
C10   C37   S    
C97   H79   S    
C5    C53   S    
C38   C42   S    
C116  C117  S    
C50   O6    S    
N10   Ni5   S    
C108  H94   S    
N14   Ni7   S    
C71   N11   A    
C17   H5    S    
C9    C38   S    
N2    Ni1   S    
N3    N31   A    
C19   H7    S    
C26   C34   S    
C117  H123  S    
C54   C112  S    
N23   Ni2   S    
C109  C110  S    
C91   N31   A    
C92   H68   S    
N11   Ni6   S    
C28   H32   S    
C82   N22   A    
C89   C93   A    
N15   Ni8   S    
C57   C67   S    
N12   Ni6   S    
C15   C35   S    
C119  H133  S    
C20   H72   S    
C63   C67   D    
C80   O12   S    
C1    H1    S    
C70   N10   A    
C39   C43   S    
C1    N1    A    
N21   Ni1   S    
C40   C52   S    
C108  H95   S    
C27   C41   S    
N8    N28   A    
C43   H39   S    
C112  H122  S    
C18   C34   S    
C32   C50   S    
C56   C118  S    
C99   H74   S    
C114  H117  S    
C120  H132  S    
C115  H128  S    
O6    H106  S    
N2    N30   A    
C112  H121  S    
C54   C58   D    
N32   Ni6   S    
C6    C46   A    
C64   C95   S    
N15   N23   A    
N22   Ni1   S    
C38   C50   S    
C90   N30   A    
C102  H81   S    
C3    N3    A    
C23   C39   S    
C12   C80   A    
C28   C42   S    
N6    Ni3   S    
C24   C40   S    
C101  H83   S    
C84   N24   A    
C85   N25   A    
O15   H143  S    
C32   C100  S    
C110  C111  S    
C109  H115  S    
C83   H63   S    
C2    H2    S    
C98   C99   S    
C73   H57   S    
C105  H87   S    
N24   Ni2   S    
C76   N16   A    
C118  H136  S    
