data_mof_unit_48621.cif
_audit_creation_date              2012-12-10T19:11:31-0500
_audit_creation_method            fapswitch 2.2
_symmetry_space_group_name_H-M    P1
_symmetry_Int_Tables_number       1
_space_group_crystal_system       triclinic
_cell_length_a                    7.780948
_cell_length_b                    9.096662
_cell_length_c                    17.432054
_cell_angle_alpha                 89.982075
_cell_angle_beta                  84.991744
_cell_angle_gamma                 89.999041
_cell_volume                      1229.14143404

loop_
_atom_site_label
_atom_site_type_symbol
_atom_type_description
_atom_site_fract_x
_atom_site_fract_y
_atom_site_fract_z
_atom_type_partial_charge
C1    C     C_R   0.499998 0.779986 0.500009 0.844479
C2    C     C_R   0.500002 0.220014 0.499991 0.844494
C3    C     C_1   0.499999 0.934635 0.500004 -0.152432
C4    C     C_1   0.500001 0.065364 0.499997 -0.152443
C5    C     C_R   0.475739 0.500103 0.650508 0.791517
C6    C     C_R   0.524262 0.499918 0.349492 0.791498
C7    C     C_R   0.460265 0.504558 0.735252 -0.113756
C8    C     C_R   0.539743 0.495562 0.264750 -0.113761
C9    C     C_R   0.611771 0.484920 0.772256 -0.203783
C10   C     C_R   0.388242 0.515275 0.227749 -0.203802
C11   C     C_R   0.610383 0.498801 0.851336 -0.124629
C12   C     C_R   0.389637 0.501519 0.148664 -0.124617
C13   C     C_R   0.456292 0.531090 0.895583 0.159561
C14   C     C_R   0.543730 0.469276 0.104415 0.159550
C15   C     C_R   0.304646 0.552714 0.859826 -0.197892
C16   C     C_R   0.695372 0.447594 0.140171 -0.197912
C17   C     C_R   0.303224 0.536739 0.780192 0.003123
C18   C     C_R   0.696791 0.463446 0.219807 0.003068
C19   C     C_2   0.449547 0.541662 0.979519 -0.207141
C20   C     C_2   0.550484 0.458760 0.020477 -0.207134
Cu1   Cu    Cu3+1 0.330920 0.500000 0.500000 1.053840
Cu2   Cu    Cu3+1 0.669080 0.500000 0.500000 1.053836
H1    H     H_    0.185559 0.577389 0.894562 0.142209
H2    H     H_    0.814459 0.422959 0.105431 0.142251
H3    H     H_    0.269167 0.513922 0.122627 0.142085
H4    H     H_    0.730857 0.486451 0.877370 0.142084
H5    H     H_    0.733073 0.459612 0.739877 0.204363
H6    H     H_    0.266938 0.540546 0.260132 0.204361
H7    H     H_    0.644509 0.384237 0.991951 0.154352
H8    H     H_    0.355518 0.616181 0.008044 0.154350
N1    N     N_1   0.923170 0.500000 0.500010 -0.020431
N2    N     N_1   0.076830 0.500000 0.499990 -0.020439
O1    O     O_R   0.357240 0.711600 0.500000 -0.578046
O2    O     O_R   0.642760 0.288400 0.500000 -0.578045
O3    O     O_R   0.642760 0.711600 0.500000 -0.574231
O4    O     O_R   0.357240 0.288400 0.500000 -0.574224
O5    O     O_R   0.340660 0.500000 0.613590 -0.554485
O6    O     O_R   0.659340 0.500000 0.386410 -0.554468
O7    O     O_R   0.626230 0.500000 0.613600 -0.587450
O8    O     O_R   0.373770 0.500000 0.386400 -0.587438
C21   C     C_2   0.864857 0.445609 0.252130 0.834457
O9    O     O_2   0.925654 0.546774 0.287156 -0.586590
O10   O     O_R   0.958075 0.315495 0.238631 -0.761424
H9    H     H_    0.071479 0.315871 0.263170 0.332355
C22   C     C_2   0.135165 0.554513 0.747857 0.834329
O11   O     O_2   0.074340 0.453242 0.712899 -0.586583
O12   O     O_R   0.042001 0.684711 0.761256 -0.761337
H10   H     H_    0.928587 0.684259 0.736718 0.332332

loop_
_geom_bond_atom_site_label_1
_geom_bond_atom_site_label_2
_ccdc_geom_bond_type
C2    C4    S    
O10   H9    S    
C6    O6    A    
C5    O5    A    
C21   O10   S    
C21   O9    D    
C19   C20   D    
C12   H3    S    
C2    O2    A    
C15   H1    S    
C1    O1    A    
C16   H2    S    
Cu1   O4    S    
C22   O11   D    
Cu2   O3    S    
C9    C11   A    
C1    O3    A    
Cu1   O8    S    
C10   C12   A    
Cu2   O7    S    
C16   C18   A    
C12   C14   A    
C6    O8    A    
C20   H7    S    
C13   C15   A    
Cu2   O2    S    
Cu1   N2    S    
C14   C16   A    
Cu1   O1    S    
Cu2   N1    S    
C13   C19   S    
C10   H6    S    
C3    C4    T    
Cu2   O6    S    
C7    C9    A    
C11   C13   A    
Cu1   O5    S    
C9    H5    S    
C14   C20   S    
C8    C10   A    
C22   O12   S    
C18   C21   S    
C2    O4    A    
C15   C17   A    
C5    O7    A    
C5    C7    S    
C6    C8    S    
C11   H4    S    
C1    C3    S    
Cu1   Cu2   S    
C19   H8    S    
N1    N2    T    
C8    C18   A    
O12   H10   S    
C17   C22   S    
C7    C17   A    
