data_mof_unit_8382.cif
_audit_creation_date              2012-12-10T17:04:37-0500
_audit_creation_method            fapswitch 2.2
_symmetry_space_group_name_H-M    P1
_symmetry_Int_Tables_number       1
_space_group_crystal_system       triclinic
_cell_length_a                    15.006707
_cell_length_b                    10.73876
_cell_length_c                    10.026696
_cell_angle_alpha                 90.001217
_cell_angle_beta                  89.34859
_cell_angle_gamma                 90.306056
_cell_volume                      1615.70891769

loop_
_atom_site_label
_atom_site_type_symbol
_atom_type_description
_atom_site_fract_x
_atom_site_fract_y
_atom_site_fract_z
_atom_type_partial_charge
C1    C     C_R   0.498852 0.262625 0.499797 0.937700
C2    C     C_R   0.186120 0.473432 0.381957 -0.242445
C3    C     C_R   0.230714 0.497493 0.500979 -0.091868
C4    C     C_R   0.326656 0.499522 0.500542 0.899333
C5    C     C_R   0.183909 0.519706 0.619572 -0.253209
C6    C     C_2   0.509107 0.933198 0.386977 -0.163531
C7    C     C_2   0.514530 0.868570 0.500200 -0.336763
C8    C     C_2   0.513933 0.067294 0.388592 -0.156726
C9    C     C_2   0.493337 0.130732 0.499200 -0.329584
C10   C     C_2   0.536660 0.586272 0.924706 -0.150814
C11   C     C_2   0.553640 0.569046 0.072029 0.100774
C12   C     C_R   0.906459 0.522063 0.619158 0.132831
C13   C     C_R   0.503113 0.737267 0.499931 0.935180
C14   C     C_R   0.673330 0.499922 0.499530 0.887857
C15   C     C_R   0.814306 0.523956 0.617878 -0.259105
C16   C     C_R   0.769224 0.499159 0.499359 -0.069582
C17   C     C_R   0.815727 0.472287 0.381566 -0.246713
C18   C     C_R   0.907881 0.472062 0.380523 0.086727
C19   C     C_R   0.953620 0.496333 0.499771 0.060047
C20   C     C_3   0.636200 0.627719 0.132167 -0.315730
C21   C     C_3   0.692425 0.711113 0.038835 -0.453388
C22   C     C_3   0.776212 0.757634 0.108549 -0.863678
C23   C     C_R   0.954538 0.447419 0.262191 -0.302578
C24   C     C_3   0.117980 0.290898 0.122174 -0.798736
C25   C     C_R   0.047462 0.445614 0.260752 0.213119
C26   C     C_R   0.093662 0.470553 0.379881 0.073622
C27   C     C_R   0.046357 0.495164 0.499752 0.013687
C28   C     C_R   0.091758 0.519564 0.619772 0.139083
C29   C     C_R   0.044483 0.544345 0.737895 -0.219210
C30   C     C_R   0.951982 0.545729 0.737596 -0.225363
H1    H     H_    0.777852 0.544920 0.709138 0.157206
H2    H     H_    0.223808 0.456813 0.290990 0.194599
H3    H     H_    0.219071 0.538812 0.711325 0.163730
H4    H     H_    0.079078 0.563306 0.830041 0.141693
H5    H     H_    0.916105 0.565420 0.829605 0.144464
H6    H     H_    0.500486 0.887881 0.291028 0.172250
H7    H     H_    0.758024 0.812628 0.198585 0.265763
H8    H     H_    0.818434 0.677851 0.138356 0.261210
H9    H     H_    0.815375 0.818058 0.039466 0.253980
H10   H     H_    0.713303 0.657820 0.948758 0.229221
H11   H     H_    0.652735 0.793123 0.008004 0.225950
H12   H     H_    0.529612 0.911016 0.595473 0.149058
H13   H     H_    0.616957 0.684032 0.220103 0.238066
H14   H     H_    0.679455 0.550250 0.163364 0.212596
H15   H     H_    0.062341 0.454784 0.056017 0.223246
H16   H     H_    0.057098 0.231931 0.115080 0.244548
H17   H     H_    0.158800 0.258563 0.207072 0.249389
H18   H     H_    0.157920 0.280240 0.028996 0.240800
H19   H     H_    0.532585 0.114025 0.296182 0.171020
H20   H     H_    0.469991 0.087185 0.590720 0.148129
H21   H     H_    0.561328 0.668985 0.874436 0.163357
H22   H     H_    0.484666 0.418750 0.898741 0.163044
H23   H     H_    0.444148 0.467283 0.103989 0.154986
H24   H     H_    0.780493 0.449806 0.291071 0.149939
H25   H     H_    0.918839 0.428734 0.170820 0.147502
N1    N     N_2   0.500970 0.501330 0.852150 -0.206813
N2    N     N_2   0.500990 0.501360 0.147810 -0.220203
N3    N     N_2   0.093728 0.420171 0.139075 -0.318050
O1    O     O_R   0.499990 0.319060 0.613040 -0.619505
O2    O     O_R   0.500010 0.319100 0.386900 -0.613514
O3    O     O_R   0.367830 0.499950 0.613080 -0.616325
O4    O     O_R   0.367860 0.499990 0.386940 -0.624138
O5    O     O_R   0.499990 0.680900 0.613100 -0.620462
O6    O     O_R   0.500010 0.680940 0.386960 -0.628247
O7    O     O_R   0.632140 0.500010 0.613060 -0.617335
O8    O     O_R   0.632170 0.500050 0.386920 -0.646245
Zn1   Zn    Zn3+2 0.499980 0.499970 0.650990 0.939702
Zn2   Zn    Zn3+2 0.500020 0.500030 0.349010 0.924447

loop_
_geom_bond_atom_site_label_1
_geom_bond_atom_site_label_2
_ccdc_geom_bond_type
O8    Zn2   S    
C29   H4    S    
C15   H1    S    
C6    C7    D    
C4    O4    A    
C9    H20   S    
N1    Zn1   S    
C19   C27   A    
O3    Zn1   S    
O1    Zn1   S    
C13   O5    A    
C12   C15   A    
O4    Zn2   S    
C3    C5    A    
C24   H16   S    
C24   H17   S    
C23   C25   A    
C2    C3    A    
C14   O8    A    
C1    C9    S    
C2    C26   A    
C21   C22   S    
C23   H25   S    
C24   H18   S    
C13   O6    A    
C26   C27   A    
C29   C30   A    
C21   H10   S    
C30   H5    S    
C21   H11   S    
C10   H21   S    
C8    H19   S    
C12   C19   A    
C2    H2    S    
C28   C29   A    
C20   H14   S    
C14   O7    A    
C6    H6    S    
C17   C18   A    
C14   C16   S    
C1    O1    A    
H15   N3    S    
O5    Zn1   S    
C11   C20   S    
C7    H12   S    
C10   C11   S    
C22   H9    S    
N2    Zn2   S    
C18   C23   A    
C5    C28   A    
O6    Zn2   S    
C7    C13   S    
C20   H13   S    
C10   N1    D    
C20   C21   S    
O2    Zn2   S    
C24   N3    S    
C18   C19   A    
C25   N3    S    
C1    O2    A    
C27   C28   A    
C17   H24   S    
H23   N2    S    
C16   C17   A    
C6    C8    S    
C12   C30   A    
C25   C26   A    
C11   N2    D    
C22   H7    S    
C4    O3    A    
C15   C16   A    
C3    C4    S    
H22   N1    S    
C5    H3    S    
C8    C9    D    
O7    Zn1   S    
C22   H8    S    
