data_mof_unit_6721.cif
_audit_creation_date              2012-12-10T16:53:57-0500
_audit_creation_method            fapswitch 2.2
_symmetry_space_group_name_H-M    P1
_symmetry_Int_Tables_number       1
_space_group_crystal_system       triclinic
_cell_length_a                    7.76475
_cell_length_b                    8.594136
_cell_length_c                    10.611817
_cell_angle_alpha                 91.320089
_cell_angle_beta                  85.146612
_cell_angle_gamma                 93.798512
_cell_volume                      703.943150626

loop_
_atom_site_label
_atom_site_type_symbol
_atom_type_description
_atom_site_fract_x
_atom_site_fract_y
_atom_site_fract_z
_atom_type_partial_charge
C1    C     C_R   0.545227 0.794543 0.492540 0.989300
C2    C     C_3   0.312498 0.519155 0.940783 -0.390206
C3    C     C_3   0.311256 0.519069 0.083808 -0.398486
C4    C     C_3   0.563190 0.344358 0.921127 -0.403660
C5    C     C_3   0.620137 0.637872 0.923241 -0.417102
C6    C     C_3   0.499559 0.500397 0.878949 0.190891
C7    C     C_3   0.497191 0.500377 0.121694 0.189404
C8    C     C_3   0.561539 0.344162 0.065801 -0.408446
C9    C     C_3   0.618471 0.638163 0.067930 -0.392776
C10   C     C_2   0.566446 0.958210 0.489964 -0.452389
C11   C     C_2   0.428759 0.042166 0.477518 0.255797
C12   C     C_R   0.500547 0.500318 0.742351 0.827083
C13   C     C_R   0.453761 0.205480 0.496373 0.827479
C14   C     C_R   0.498770 0.500005 0.257832 0.823717
H1    H     H_    0.222611 0.421854 0.910005 0.178090
H2    H     H_    0.477920 0.244731 0.888679 0.155597
H3    H     H_    0.475412 0.244480 0.104049 0.156407
H4    H     H_    0.755040 0.627209 0.880734 0.175754
H5    H     H_    0.576108 0.750539 0.892283 0.155138
H6    H     H_    0.573388 0.750881 0.107692 0.160815
H7    H     H_    0.192131 0.057421 0.428716 0.330506
H8    H     H_    0.261804 0.630379 0.123356 0.187338
H9    H     H_    0.752892 0.628290 0.094648 0.181602
H10   H     H_    0.696964 0.328089 0.878519 0.178952
H11   H     H_    0.694606 0.327296 0.092459 0.179013
H12   H     H_    0.693705 0.009871 0.508569 0.145985
H13   H     H_    0.014190 0.382433 0.404531 0.179954
H14   H     H_    0.985827 0.617572 0.595468 0.194277
H15   H     H_    0.263233 0.630546 0.911496 0.175439
H16   H     H_    0.221300 0.421635 0.121762 0.170723
N1    N     N_2   0.950330 0.457950 0.465890 -0.173241
N2    N     N_2   0.049670 0.542050 0.534110 -0.161008
O1    O     O_R   0.389250 0.738570 0.508370 -0.530472
O2    O     O_R   0.678390 0.711620 0.486510 -0.635097
O3    O     O_R   0.355430 0.513500 0.696140 -0.632666
O4    O     O_R   0.644580 0.486550 0.674270 -0.631942
O5    O     O_R   0.321610 0.288380 0.513490 -0.634008
O6    O     O_R   0.610750 0.261430 0.491630 -0.630633
O7    O     O_R   0.355420 0.513450 0.325730 -0.630860
O8    O     O_R   0.644570 0.486500 0.303860 -0.629447
O9    O     O_3   0.271603 0.975064 0.442524 -0.746269
Zn1   Zn    Zn3+2 0.306940 0.517990 0.514600 0.959233
Zn2   Zn    Zn3+2 0.693060 0.482010 0.485400 0.930214

loop_
_geom_bond_atom_site_label_1
_geom_bond_atom_site_label_2
_ccdc_geom_bond_type
C4    H2    S    
C3    H16   S    
C5    C9    S    
C5    H5    S    
C12   O4    A    
C9    H6    S    
C13   O5    A    
C8    H3    S    
H14   N2    S    
C4    C8    S    
C10   H12   S    
C2    C3    S    
C1    O1    A    
C7    C8    S    
C12   O3    A    
C2    H1    S    
C11   C13   S    
C13   O6    A    
C2    C6    S    
N1    Zn2   S    
C2    H15   S    
H7    O9    S    
O1    Zn1   S    
C1    O2    A    
C11   O9    S    
O7    Zn1   S    
C3    C7    S    
O8    Zn2   S    
H13   N1    S    
C6    C12   S    
C5    C6    S    
C4    H10   S    
C10   C11   D    
O2    Zn2   S    
C8    H11   S    
O6    Zn2   S    
C4    C6    S    
O5    Zn1   S    
C7    C9    S    
O3    Zn1   S    
N2    Zn1   S    
C9    H9    S    
O4    Zn2   S    
C5    H4    S    
C14   O7    A    
C14   O8    A    
C7    C14   S    
C1    C10   S    
N1    N2    D    
C3    H8    S    
