data_mof_unit_47978.cif
_audit_creation_date              2012-12-10T20:25:44-0500
_audit_creation_method            fapswitch 2.2
_symmetry_space_group_name_H-M    P1
_symmetry_Int_Tables_number       1
_space_group_crystal_system       triclinic
_cell_length_a                    8.650333
_cell_length_b                    10.73318
_cell_length_c                    10.036301
_cell_angle_alpha                 90.249787
_cell_angle_beta                  97.889693
_cell_angle_gamma                 90.107621
_cell_volume                      922.994035839

loop_
_atom_site_label
_atom_site_type_symbol
_atom_type_description
_atom_site_fract_x
_atom_site_fract_y
_atom_site_fract_z
_atom_type_partial_charge
C1    C     C_R   0.497946 0.260490 0.500048 0.842762
C2    C     C_R   0.432869 0.405361 0.920103 0.055209
C3    C     C_3   0.276320 0.344505 0.888982 -0.066089
C4    C     C_R   0.202022 0.501779 0.464903 0.930552
C5    C     C_3   0.278540 0.334209 0.044596 0.208073
C6    C     C_R   0.493963 0.738855 0.498626 0.868400
C7    C     C_R   0.797920 0.501516 0.535098 0.957897
C8    C     C_2   0.036997 0.503076 0.446214 -0.390811
C9    C     C_2   0.962747 0.505506 0.553696 -0.391837
C10   C     C_R   0.621366 0.062939 0.566826 0.062630
C11   C     C_R   0.494076 0.127815 0.500888 -0.100109
C12   C     C_R   0.367304 0.934747 0.425006 -0.212323
C13   C     C_R   0.365542 0.063866 0.432177 -0.212647
C14   C     C_3   0.704128 0.672199 0.893955 -0.400477
C15   C     C_3   0.875290 0.645132 0.942771 -0.941964
C16   C     C_3   0.273456 0.222002 0.806361 -0.340291
C17   C     C_3   0.157515 0.225215 0.677049 -0.833197
C18   C     C_3   0.137931 0.403340 0.090785 -0.430520
C19   C     C_3   0.979101 0.349155 0.034319 -0.951603
C20   C     C_3   0.304419 0.204030 0.112371 -0.346760
C21   C     C_3   0.462126 0.140097 0.104579 -0.880787
C22   C     C_3   0.894886 0.073810 0.889578 -0.813271
C23   C     C_R   0.493473 0.870695 0.494128 -0.062814
C24   C     C_R   0.619581 0.934054 0.561758 0.061955
C25   C     C_3   0.674870 0.918473 0.705767 -0.505480
C26   C     C_3   0.673349 0.057745 0.716190 0.038013
C27   C     C_R   0.431140 0.406174 0.058868 0.125077
C28   C     C_R   0.587621 0.581882 0.084683 -0.148576
C29   C     C_R   0.593467 0.580009 0.942698 0.209064
H1    H     H_    0.976639 0.500527 0.343775 0.182558
H2    H     H_    0.911827 0.560839 0.891430 0.285603
H3    H     H_    0.947941 0.724029 0.915636 0.247725
H4    H     H_    0.896883 0.633902 0.053623 0.264065
H5    H     H_    0.693842 0.673964 0.784969 0.278876
H6    H     H_    0.677192 0.765634 0.932347 0.186360
H7    H     H_    0.049595 0.274462 0.693150 0.245187
H8    H     H_    0.207967 0.272813 0.595912 0.264812
H9    H     H_    0.127404 0.128711 0.642205 0.254709
H10   H     H_    0.389400 0.203022 0.779863 0.219951
H11   H     H_    0.243660 0.140145 0.863386 0.209225
H12   H     H_    0.191767 0.414801 0.841871 0.165466
H13   H     H_    0.963595 0.343163 0.923069 0.277605
H14   H     H_    0.965482 0.256518 0.079381 0.261549
H15   H     H_    0.884980 0.408081 0.065391 0.275276
H16   H     H_    0.140435 0.389444 0.198531 0.249403
H17   H     H_    0.142492 0.504420 0.068280 0.214653
H18   H     H_    0.486291 0.129039 0.999885 0.234334
H19   H     H_    0.559168 0.193831 0.162001 0.276290
H20   H     H_    0.461130 0.046015 0.150003 0.258695
H21   H     H_    0.296791 0.218685 0.219454 0.218565
H22   H     H_    0.208353 0.138989 0.076668 0.187321
H23   H     H_    0.022769 0.509528 0.656093 0.174005
H24   H     H_    0.824720 0.204777 0.743272 0.232719
H25   H     H_    0.007416 0.121099 0.914298 0.249054
H26   H     H_    0.919018 0.972511 0.895988 0.249686
H27   H     H_    0.816577 0.099519 0.964294 0.238394
H28   H     H_    0.261048 0.112679 0.390773 0.128891
H29   H     H_    0.267413 0.885060 0.373166 0.144682
H30   H     H_    0.583273 0.877301 0.759241 0.186662
H31   H     H_    0.791200 0.873071 0.719830 0.212476
H32   H     H_    0.587638 0.092018 0.779360 0.126845
H33   H     H_    0.654821 0.649878 0.148457 0.162185
N1    N     N_R   0.498950 0.499140 0.142680 -0.136449
N2    N     N_R   0.498950 0.499180 0.857030 -0.135324
N3    N     N_2   0.826419 0.109536 0.755562 -0.271149
O1    O     O_R   0.500020 0.316790 0.614690 -0.627595
O2    O     O_R   0.500000 0.316760 0.385350 -0.614158
O3    O     O_R   0.271760 0.500010 0.587850 -0.604543
O4    O     O_R   0.271740 0.499970 0.358500 -0.649422
O5    O     O_R   0.500000 0.683240 0.614650 -0.648257
O6    O     O_R   0.499980 0.683210 0.385310 -0.618032
O7    O     O_R   0.728260 0.500030 0.641500 -0.638051
O8    O     O_R   0.728240 0.499990 0.412150 -0.606891
Zn1   Zn    Zn3+2 0.500010 0.500020 0.653130 0.925288
Zn2   Zn    Zn3+2 0.499990 0.499980 0.346870 0.930682

loop_
_geom_bond_atom_site_label_1
_geom_bond_atom_site_label_2
_ccdc_geom_bond_type
C14   H5    S    
C22   H27   S    
C23   C24   A    
C18   H16   S    
C22   N3    S    
C15   H2    S    
C2    C27   A    
C25   H31   S    
H24   N3    S    
C1    C11   S    
C19   H13   S    
C5    C27   S    
C19   H15   S    
C4    C8    S    
C21   H19   S    
C12   H29   S    
C10   C26   S    
C21   H20   S    
C1    O1    A    
C29   N2    A    
C8    H1    S    
C15   H3    S    
C7    O8    A    
C5    C20   S    
C17   H8    S    
C20   C21   S    
O6    Zn2   S    
C12   C13   A    
C11   C13   A    
C12   C23   A    
C6    O5    A    
C22   H26   S    
C9    H23   S    
C27   N1    A    
C14   C29   S    
C16   H11   S    
C6    C23   S    
C18   H17   S    
O7    Zn1   S    
C4    O4    A    
C1    O2    A    
C26   H32   S    
C19   H14   S    
O4    Zn2   S    
C20   H22   S    
C2    C3    S    
C17   H9    S    
C17   H7    S    
C6    O6    A    
C13   H28   S    
C10   C11   A    
O8    Zn2   S    
C16   H10   S    
O3    Zn1   S    
O1    Zn1   S    
C28   N1    A    
C3    C5    S    
C7    O7    A    
O2    Zn2   S    
C24   C25   S    
N1    Zn2   S    
C22   H25   S    
C18   C19   S    
C14   H6    S    
C7    C9    S    
N2    Zn1   S    
O5    Zn1   S    
C28   C29   A    
C20   H21   S    
C5    C18   S    
C25   H30   S    
C10   C24   A    
C25   C26   S    
C14   C15   S    
C26   N3    S    
C4    O3    A    
C15   H4    S    
C3    H12   S    
C3    C16   S    
C16   C17   S    
C2    N2    A    
C8    C9    D    
C21   H18   S    
C28   H33   S    
