data_mof_unit_27674.cif
_audit_creation_date              2012-12-10T18:09:54-0500
_audit_creation_method            fapswitch 2.2
_symmetry_space_group_name_H-M    P1
_symmetry_Int_Tables_number       1
_space_group_crystal_system       triclinic
_cell_length_a                    10.704087
_cell_length_b                    12.764647
_cell_length_c                    13.311437
_cell_angle_alpha                 82.989436
_cell_angle_beta                  94.459265
_cell_angle_gamma                 102.927564
_cell_volume                      1757.04665006

loop_
_atom_site_label
_atom_site_type_symbol
_atom_type_description
_atom_site_fract_x
_atom_site_fract_y
_atom_site_fract_z
_atom_type_partial_charge
C1    C     C_R   0.478751 0.440955 0.689875 0.915108
C2    C     C_R   0.476512 0.462122 0.967645 0.147543
C3    C     C_R   0.453161 0.486128 0.863454 0.077160
C4    C     C_R   0.741504 0.500312 0.504176 0.935239
C5    C     C_R   0.486003 0.544616 0.030742 -0.083742
C6    C     C_R   0.504037 0.653856 0.990081 0.015440
C7    C     C_R   0.461650 0.674797 0.888369 0.115528
C8    C     C_R   0.425592 0.588584 0.828957 -0.223936
C9    C     C_R   0.463932 0.519898 0.132308 0.295112
C10   C     C_R   0.569781 0.703389 0.160663 -0.054200
C11   C     C_R   0.461474 0.408487 0.797749 -0.072302
C12   C     C_3   0.119686 0.497016 0.503075 -0.119505
C13   C     C_R   0.268441 0.073333 0.396983 0.023831
C14   C     C_R   0.663770 0.802992 0.625617 0.262481
C15   C     C_R   0.702191 0.909130 0.651790 0.010799
C16   C     C_R   0.512746 0.559979 0.309027 0.956817
C17   C     C_R   0.638892 0.988360 0.605844 -0.239019
C18   C     C_R   0.535284 0.962372 0.535303 -0.025810
C19   C     C_R   0.499494 0.853456 0.509980 0.171954
C20   C     C_R   0.464766 0.040353 0.489285 -0.028022
C21   C     C_R   0.346294 0.002990 0.436745 0.121771
C22   C     C_R   0.310504 0.896815 0.416401 -0.252209
C23   C     C_3   0.059336 0.517647 0.393205 0.160388
C24   C     C_R   0.393421 0.828089 0.439803 0.070923
C25   C     C_R   0.505649 0.153580 0.492425 -0.065486
C26   C     C_R   0.315806 0.183732 0.398313 0.178911
C27   C     C_R   0.257596 0.498850 0.499685 0.957830
C28   C     C_3   0.904621 0.394498 0.567868 0.128810
C29   C     C_3   0.046097 0.387627 0.556666 0.206642
C30   C     C_3   0.913848 0.503410 0.396224 -0.465967
C31   C     C_3   0.962169 0.601176 0.554727 0.246266
C32   C     C_3   0.878066 0.501197 0.506666 -0.114153
C33   C     C_3   0.101978 0.589530 0.564519 -0.483008
C34   C     C_R   0.554684 0.734574 0.055504 0.378357
C35   C     C_R   0.515311 0.595930 0.199915 -0.191154
C36   C     C_R   0.474791 0.304380 0.837879 -0.116028
C37   C     C_R   0.491677 0.279626 0.941767 -0.116101
C38   C     C_R   0.497472 0.358749 0.006024 -0.097829
Cl1   Cl    Cl    0.612326 0.871243 0.008297 -0.625866
Cl2   Cl    Cl    0.332556 0.412502 0.161466 -0.594223
Cl3   Cl    Cl    0.858709 0.382903 0.696992 -0.567780
Cl4   Cl    Cl    0.126428 0.346518 0.674258 -0.549149
Cl5   Cl    Cl    0.092317 0.435790 0.303528 -0.596568
Cl6   Cl    Cl    0.952560 0.728543 0.481999 -0.652139
H1    H     H_    0.843005 0.322966 0.535282 0.123401
H2    H     H_    0.593910 0.188627 0.532094 0.145851
H3    H     H_    0.669108 0.068436 0.629708 0.170273
H4    H     H_    0.045178 0.323230 0.507078 0.152505
H5    H     H_    0.862985 0.426740 0.365876 0.218508
H6    H     H_    0.930134 0.604359 0.631530 0.168780
H7    H     H_    0.130894 0.571856 0.645859 0.220088
H8    H     H_    0.732075 0.806592 0.203927 0.240957
H9    H     H_    0.594902 0.846500 0.219557 0.226410
H10   H     H_    0.345286 0.772469 0.825731 0.196876
H11   H     H_    0.494617 0.803750 0.782488 0.193955
H12   H     H_    0.164373 0.668554 0.538119 0.231683
H13   H     H_    0.294365 0.329780 0.341889 0.312748
H14   H     H_    0.199885 0.234635 0.284889 0.228970
H15   H     H_    0.075341 0.063140 0.390189 0.230243
H16   H     H_    0.137137 0.056475 0.277408 0.202188
H17   H     H_    0.709805 0.713106 0.752609 0.188038
H18   H     H_    0.823446 0.745605 0.666187 0.221010
H19   H     H_    0.875271 0.997581 0.693564 0.227709
H20   H     H_    0.768378 0.965558 0.785412 0.246977
H21   H     H_    0.400488 0.782093 0.302599 0.187355
H22   H     H_    0.283673 0.705436 0.370572 0.173926
H23   H     H_    0.881896 0.570098 0.346245 0.219406
H24   H     H_    0.097483 0.602196 0.362144 0.165767
H25   H     H_    0.480155 0.244008 0.788748 0.176365
H26   H     H_    0.521921 0.339453 0.085549 0.172067
H27   H     H_    0.507021 0.200617 0.972175 0.176625
H28   H     H_    0.378815 0.604188 0.755431 0.179885
H29   H     H_    0.225898 0.870195 0.367943 0.205140
N1    N     N_R   0.433240 0.222190 0.444680 -0.129955
N2    N     N_R   0.566070 0.776970 0.554790 -0.133355
N3    N     N_3   0.638012 0.779957 0.226979 -0.387654
N4    N     N_3   0.442516 0.779496 0.847603 -0.374691
N5    N     N_3   0.235322 0.254882 0.356922 -0.376310
N6    N     N_3   0.141245 0.032042 0.355207 -0.430908
N7    N     N_3   0.724786 0.720407 0.675141 -0.368060
N8    N     N_3   0.804410 0.935595 0.726623 -0.440068
N9    N     N_3   0.379540 0.745229 0.375675 -0.350786
O1    O     O_R   0.468120 0.366740 0.627160 -0.595103
O2    O     O_R   0.510770 0.544830 0.662520 -0.631814
O3    O     O_R   0.663880 0.410950 0.482330 -0.644193
O4    O     O_R   0.706530 0.589040 0.517700 -0.554790
O5    O     O_R   0.489230 0.455170 0.337480 -0.611389
O6    O     O_R   0.531880 0.633260 0.372840 -0.573585
O7    O     O_R   0.293470 0.410960 0.482300 -0.586639
O8    O     O_R   0.336120 0.589050 0.517670 -0.646877
Zn1   Zn    Zn3+2 0.471520 0.381090 0.476390 0.996439
Zn2   Zn    Zn3+2 0.528480 0.618910 0.523610 0.993319

loop_
_geom_bond_atom_site_label_1
_geom_bond_atom_site_label_2
_ccdc_geom_bond_type
N1    Zn1   S    
C38   H26   S    
H16   N6    S    
O5    Zn1   S    
C29   Cl4   S    
C1    C11   S    
C13   N6    S    
O3    Zn1   S    
C7    C8    A    
C15   N8    S    
C1    O2    A    
C12   C23   S    
C26   N5    S    
H19   N8    S    
H18   N7    S    
C28   C29   S    
C18   C19   A    
C16   C35   S    
C5    C6    A    
C12   C29   S    
C4    O4    A    
C20   C25   A    
H17   N7    S    
C28   Cl3   S    
C23   Cl5   S    
C27   O8    A    
C25   N1    A    
C24   N9    S    
C10   N3    S    
O6    Zn2   S    
C16   O5    A    
C31   C33   S    
C27   O7    A    
C10   C35   A    
C14   N7    S    
O7    Zn1   S    
C30   H23   S    
C7    N4    S    
H10   N4    S    
C33   H12   S    
C21   C22   A    
C28   H1    S    
C8    H28   S    
C31   Cl6   S    
C12   C27   S    
C34   Cl1   S    
C23   C30   S    
C28   C32   S    
C3    C8    A    
H15   N6    S    
C4    O3    A    
C29   H4    S    
C9    Cl2   S    
C6    C34   A    
C11   C36   A    
C23   H24   S    
C5    C9    A    
C37   C38   A    
H22   N9    S    
C2    C38   A    
O8    Zn2   S    
C31   C32   S    
C17   C18   A    
C13   C21   A    
C10   C34   A    
C4    C32   S    
N2    Zn2   S    
C30   H5    S    
C37   H27   S    
C22   C24   A    
C13   C26   A    
H9    N3    S    
C33   H7    S    
C31   H6    S    
C36   H25   S    
C16   O6    A    
C15   C17   A    
C36   C37   A    
H13   N5    S    
C17   H3    S    
H8    N3    S    
C6    C7    A    
C1    O1    A    
O1    Zn1   S    
C14   N2    A    
C19   N2    A    
C19   C24   A    
O4    Zn2   S    
C30   C32   S    
H21   N9    S    
H11   N4    S    
C26   N1    A    
C2    C3    A    
C18   C20   A    
H20   N8    S    
C3    C11   A    
H14   N5    S    
C2    C5    A    
C20   C21   A    
C9    C35   A    
C14   C15   A    
O2    Zn2   S    
C22   H29   S    
C12   C33   S    
C25   H2    S    
