data_mof_unit_54102.cif
_audit_creation_date              2012-12-10T18:10:19-0500
_audit_creation_method            fapswitch 2.2
_symmetry_space_group_name_H-M    P1
_symmetry_Int_Tables_number       1
_space_group_crystal_system       triclinic
_cell_length_a                    11.464183
_cell_length_b                    9.909095
_cell_length_c                    16.065924
_cell_angle_alpha                 91.310019
_cell_angle_beta                  88.568109
_cell_angle_gamma                 88.902751
_cell_volume                      1823.68188081

loop_
_atom_site_label
_atom_site_type_symbol
_atom_type_description
_atom_site_fract_x
_atom_site_fract_y
_atom_site_fract_z
_atom_type_partial_charge
C1    C     C_R   0.260338 0.502924 0.504636 0.830308
C2    C     C_3   0.632175 0.477405 0.944807 -0.214837
C3    C     C_3   0.643355 0.461642 0.047021 -0.263742
C4    C     C_1   0.489594 0.512629 0.825920 0.140316
C5    C     C_1   0.509481 0.495446 0.178190 0.028374
C6    C     C_1   0.503856 0.496073 0.253052 -0.021983
C7    C     C_3   0.051941 0.631211 0.565240 -0.187533
C8    C     C_3   0.072195 0.371746 0.544966 -0.162177
C9    C     C_3   0.920893 0.638359 0.534615 -0.059559
C10   C     C_3   0.933406 0.380867 0.550207 -0.059012
C11   C     C_3   0.074293 0.520767 0.417820 -0.312752
C12   C     C_3   0.120339 0.508997 0.509972 -0.151093
C13   C     C_3   0.878882 0.498386 0.497811 -0.074293
C14   C     C_R   0.500149 0.498723 0.341896 0.802737
C15   C     C_3   0.941130 0.482539 0.410845 -0.324581
C16   C     C_3   0.604794 0.076489 0.459960 0.076876
C17   C     C_3   0.600159 0.916090 0.453412 0.067539
C18   C     C_3   0.493716 0.083773 0.590249 -0.016327
C19   C     C_3   0.497982 0.916625 0.590152 -0.029199
C20   C     C_3   0.402399 0.081909 0.454179 0.065009
C21   C     C_3   0.394345 0.921181 0.462759 0.138016
C22   C     C_R   0.739553 0.498682 0.497493 0.783183
C23   C     C_R   0.497311 0.501812 0.659199 0.845109
C24   C     C_3   0.469936 0.643467 0.059676 -0.275770
C25   C     C_3   0.421771 0.395012 0.052931 -0.317455
C26   C     C_3   0.402787 0.405290 0.955929 0.015454
C27   C     C_3   0.458443 0.658485 0.961677 -0.046981
C28   C     C_1   0.491480 0.507651 0.749945 0.048842
C29   C     C_3   0.515918 0.497599 0.085886 -0.055392
C30   C     C_3   0.495578 0.512759 0.919497 -0.099329
Cu1   Cu    Cu3+1 0.499860 0.642410 0.500040 1.057172
Cu2   Cu    Cu3+1 0.499860 0.357590 0.500040 1.039700
H1    H     H_    0.085892 0.624854 0.396409 0.238150
H2    H     H_    0.129385 0.463944 0.371079 0.220772
H3    H     H_    0.898032 0.544912 0.363619 0.191533
H4    H     H_    0.932770 0.377546 0.386687 0.243898
H5    H     H_    0.674293 0.092052 0.500444 0.168144
H6    H     H_    0.679219 0.878988 0.480354 0.193407
H7    H     H_    0.322393 0.126844 0.479109 0.183047
H8    H     H_    0.319858 0.910293 0.505519 0.173401
H9    H     H_    0.379870 0.646056 0.086744 0.180556
H10   H     H_    0.341927 0.435488 0.085819 0.179103
H11   H     H_    0.861935 0.670746 0.587074 0.229252
H12   H     H_    0.899828 0.399064 0.614675 0.207691
N1    N     N_3   0.500250 0.143650 0.501830 -0.281756
N2    N     N_3   0.500250 0.856350 0.501830 -0.278239
O1    O     O_R   0.317570 0.620260 0.500050 -0.547043
O2    O     O_R   0.317570 0.379740 0.500050 -0.580021
O3    O     O_R   0.499890 0.620310 0.379470 -0.537565
O4    O     O_R   0.499890 0.379690 0.379470 -0.546787
O5    O     O_R   0.682190 0.620260 0.500020 -0.539572
O6    O     O_R   0.682190 0.379740 0.500020 -0.561669
O7    O     O_R   0.499870 0.620210 0.620600 -0.566183
O8    O     O_R   0.499870 0.379790 0.620600 -0.562953
C31   C     C_2   0.335711 0.709527 0.939227 0.882397
O9    O     O_2   0.263068 0.744711 0.992956 -0.534376
O10   O     O_R   0.308080 0.724663 0.855549 -0.666411
H13   H     H_    0.226299 0.762767 0.848454 0.389188
C32   C     C_2   0.273890 0.442670 0.939918 0.859232
O11   O     O_2   0.198218 0.439265 0.994982 -0.515642
O12   O     O_R   0.239762 0.472312 0.859562 -0.735614
H14   H     H_    0.152996 0.492975 0.856381 0.369761
I1    I     I_    0.894866 0.800450 0.443446 -0.228579
I2    I     I_    0.875538 0.180419 0.530819 -0.148878
I3    I     I_    0.688350 0.175859 0.354026 -0.167778
I4    I     I_    0.629991 0.843983 0.324701 -0.134063
C33   C     C_2   0.586864 0.139044 0.650150 0.951799
O13   O     O_2   0.689253 0.109565 0.639512 -0.592275
O14   O     O_R   0.555814 0.205399 0.725169 -0.689274
H15   H     H_    0.626274 0.238803 0.755088 0.351166
C34   C     C_2   0.599058 0.863545 0.642177 0.945384
O15   O     O_2   0.682223 0.801383 0.611410 -0.585480
O16   O     O_R   0.598524 0.892527 0.727523 -0.695286
H16   H     H_    0.675437 0.867535 0.753368 0.356091
I5    I     I_    0.379873 0.146548 0.326645 -0.096443
I6    I     I_    0.319221 0.818901 0.353292 -0.102582
I7    I     I_    0.334871 0.156868 0.650780 -0.146929
I8    I     I_    0.349874 0.832059 0.664797 -0.107024
C35   C     C_2   0.423972 0.251060 0.084835 0.996245
O17   O     O_2   0.348654 0.217762 0.135114 -0.519816
O18   O     O_R   0.504352 0.153664 0.053905 -0.658512
H17   H     H_    0.492919 0.062352 0.079578 0.371590
C36   C     C_2   0.522199 0.764564 0.104631 0.966588
O19   O     O_2   0.462646 0.827727 0.157015 -0.539188
O20   O     O_R   0.634638 0.808190 0.085298 -0.665848
H18   H     H_    0.656629 0.891078 0.119133 0.375911
I9    I     I_    0.390223 0.212318 0.887786 -0.070980
I10   I     I_    0.540110 0.839933 0.913045 -0.110100
C37   C     C_2   0.740897 0.543503 0.088245 0.914073
O21   O     O_2   0.841415 0.531979 0.060595 -0.482551
O22   O     O_R   0.722586 0.610200 0.165248 -0.757971
H19   H     H_    0.796162 0.651490 0.187507 0.365996
C38   C     C_2   0.688067 0.321020 0.075344 0.944758
O23   O     O_2   0.771215 0.264280 0.039367 -0.457312
O24   O     O_R   0.656702 0.271467 0.153038 -0.695825
H20   H     H_    0.685423 0.332832 0.198981 0.309980
C39   C     C_2   0.708959 0.590863 0.907451 0.927335
O25   O     O_2   0.757616 0.674917 0.950249 -0.487518
O26   O     O_R   0.720135 0.601204 0.820725 -0.743600
H21   H     H_    0.771577 0.678127 0.803305 0.358043
C40   C     C_2   0.680471 0.347190 0.899008 0.864581
O27   O     O_2   0.765945 0.350293 0.851638 -0.523262
O28   O     O_R   0.636064 0.220984 0.916869 -0.664912
H22   H     H_    0.680149 0.143683 0.886956 0.382572
C41   C     C_2   0.099998 0.771211 0.556260 0.946214
O29   O     O_2   0.148301 0.802987 0.492115 -0.578622
O30   O     O_R   0.071736 0.870799 0.617349 -0.676594
H23   H     H_    0.114449 0.957381 0.609131 0.402359
C42   C     C_2   0.116009 0.247891 0.490778 0.918354
O31   O     O_2   0.137455 0.141907 0.524766 -0.601574
O32   O     O_R   0.111863 0.244595 0.404009 -0.759332
H24   H     H_    0.125457 0.150727 0.378789 0.375847
C43   C     C_2   0.049220 0.616089 0.661236 0.839453
O33   O     O_2   0.134345 0.646552 0.701621 -0.512457
O34   O     O_R   0.948571 0.576993 0.704677 -0.772282
H25   H     H_    0.960736 0.569978 0.766737 0.371865
C44   C     C_2   0.113091 0.347726 0.633389 0.848389
O35   O     O_2   0.062185 0.268398 0.678337 -0.479911
O36   O     O_R   0.210317 0.414416 0.663157 -0.749508
H26   H     H_    0.226183 0.392738 0.722802 0.395353

loop_
_geom_bond_atom_site_label_1
_geom_bond_atom_site_label_2
_ccdc_geom_bond_type
C31   O9    D    
C38   O23   D    
Cu2   N1    S    
C19   C34   S    
O24   H20   S    
C24   C27   S    
C44   O36   S    
C39   O25   D    
C19   N2    S    
O20   H18   S    
C41   O30   S    
C21   I6    S    
C17   I4    S    
C40   O27   D    
C36   O19   D    
C24   C36   S    
C43   O33   D    
C42   O32   S    
C5    C6    T    
C27   C31   S    
C14   O3    A    
O34   H25   S    
C18   C19   S    
O16   H16   S    
C15   H3    S    
C3    C29   S    
C9    C13   S    
C24   C29   S    
Cu2   O6    S    
C39   O26   S    
C11   C15   S    
Cu1   Cu2   S    
C2    C39   S    
C16   C17   S    
Cu1   N2    S    
O30   H23   S    
C7    C41   S    
C37   O22   S    
C26   C32   S    
C20   N1    S    
C16   H5    S    
O12   H14   S    
C32   O11   D    
C38   O24   S    
Cu1   O1    S    
C27   C30   S    
C24   H9    S    
Cu2   O2    S    
O14   H15   S    
C1    C12   S    
Cu1   O3    S    
Cu2   O8    S    
C4    C28   T    
C8    C44   S    
C23   O7    A    
C5    C29   S    
C25   C29   S    
C7    C12   S    
C32   O12   S    
C9    H11   S    
C10   H12   S    
C33   O13   D    
C11   H1    S    
C17   N2    S    
O22   H19   S    
C34   O16   S    
C20   H7    S    
C1    O1    A    
C2    C40   S    
C18   C33   S    
O18   H17   S    
C20   I5    S    
C33   O14   S    
C16   N1    S    
C19   I8    S    
C6    C14   S    
O26   H21   S    
C8    C12   S    
C3    C38   S    
C23   C28   S    
Cu1   O7    S    
Cu2   O4    S    
C8    C42   S    
C8    C10   S    
C36   O20   S    
C26   C30   S    
C31   O10   S    
C18   N1    S    
C15   H4    S    
C23   O8    A    
C22   O6    A    
C21   N2    S    
C7    C9    S    
O32   H24   S    
C9    I1    S    
C11   H2    S    
C10   I2    S    
Cu1   O5    S    
C10   C13   S    
C25   C35   S    
C25   H10   S    
O36   H26   S    
C1    O2    A    
C41   O29   D    
C35   O18   S    
C2    C30   S    
C3    C37   S    
C7    C43   S    
C13   C15   S    
C2    C3    S    
C25   C26   S    
C34   O15   D    
C44   O35   D    
O10   H13   S    
C14   O4    A    
C21   H8    S    
C26   I9    S    
C18   I7    S    
C13   C22   S    
C17   H6    S    
C27   I10   S    
C35   O17   D    
C20   C21   S    
C40   O28   S    
O28   H22   S    
C16   I3    S    
C37   O21   D    
C42   O31   D    
C4    C30   S    
C11   C12   S    
C22   O5    A    
C43   O34   S    
