data_mof_unit_12977.cif
_audit_creation_date              2012-12-10T16:50:08-0500
_audit_creation_method            fapswitch 2.2
_symmetry_space_group_name_H-M    P1
_symmetry_Int_Tables_number       1
_space_group_crystal_system       triclinic
_cell_length_a                    7.838348
_cell_length_b                    8.555628
_cell_length_c                    10.62193
_cell_angle_alpha                 91.382235
_cell_angle_beta                  85.397181
_cell_angle_gamma                 93.229972
_cell_volume                      708.765009484

loop_
_atom_site_label
_atom_site_type_symbol
_atom_type_description
_atom_site_fract_x
_atom_site_fract_y
_atom_site_fract_z
_atom_type_partial_charge
C1    C     C_R   0.544976 0.794212 0.503022 0.881653
C2    C     C_R   0.440472 0.643384 0.940234 0.099522
C3    C     C_R   0.506855 0.515181 0.870924 -0.126980
C4    C     C_R   0.573353 0.389989 0.927425 -0.216983
C5    C     C_R   0.570301 0.385824 0.056063 0.282909
C6    C     C_R   0.498842 0.508946 0.128113 -0.145499
C7    C     C_2   0.566223 0.955896 0.527845 0.098050
C8    C     C_2   0.435086 0.042302 0.504930 -0.414298
C9    C     C_R   0.502156 0.504763 0.738961 0.875692
C10   C     C_R   0.455588 0.205878 0.507684 1.020717
C11   C     C_R   0.499051 0.501481 0.260692 0.922091
C12   C     C_R   0.383014 0.775209 0.881166 -0.188789
C13   C     C_R   0.314392 0.898229 0.952923 -0.127126
C14   C     C_R   0.305499 0.894031 0.084032 0.363093
C15   C     C_R   0.368858 0.768369 0.143680 -0.178496
C16   C     C_R   0.434894 0.640020 0.072252 0.006641
H1    H     H_    0.623740 0.293025 0.871053 0.202846
H2    H     H_    0.991257 0.633687 0.580861 0.205172
H3    H     H_    0.391177 0.785134 0.779581 0.163261
H4    H     H_    0.268458 0.997038 0.906365 0.179607
H5    H     H_    0.365615 0.773733 0.245468 0.172694
H6    H     H_    0.317263 0.992693 0.468840 0.186544
N1    N     N_2   0.950330 0.457950 0.466250 -0.065176
N2    N     N_2   0.049670 0.542050 0.533750 -0.128381
O1    O     O_R   0.389250 0.738570 0.508280 -0.651595
O2    O     O_R   0.678390 0.711630 0.486650 -0.590714
O3    O     O_R   0.355400 0.513470 0.694050 -0.615039
O4    O     O_R   0.644540 0.486530 0.672420 -0.608120
O5    O     O_R   0.321610 0.288370 0.513350 -0.640102
O6    O     O_R   0.610750 0.261430 0.491720 -0.566370
O7    O     O_R   0.355460 0.513470 0.327580 -0.638570
O8    O     O_R   0.644600 0.486530 0.305950 -0.581820
Zn1   Zn    Zn3+2 0.306930 0.517990 0.514440 0.967638
Zn2   Zn    Zn3+2 0.693070 0.482010 0.485560 1.023959
Br1   Br    Br    0.205015 0.059658 0.181931 -0.535912
Br2   Br    Br    0.659887 0.205463 0.127676 -0.459979
Br3   Br    Br    0.762681 0.025052 0.618395 -0.517211
C17   C     C_3   0.008595 0.313556 0.411051 -0.337261
H7    H     H_    0.025882 0.229444 0.485937 0.220842
H8    H     H_    0.908363 0.260946 0.352753 0.229861
H9    H     H_    0.124276 0.333064 0.346772 0.231629

loop_
_geom_bond_atom_site_label_1
_geom_bond_atom_site_label_2
_ccdc_geom_bond_type
C8    H6    S    
N1    N2    D    
O7    Zn1   S    
C3    C9    S    
N1    C17   S    
C2    C16   A    
C10   O6    A    
N2    Zn1   S    
N1    Zn2   S    
C2    C12   A    
C2    C3    A    
C7    Br3   S    
C11   O7    A    
C7    C8    D    
C13   C14   A    
O3    Zn1   S    
C1    O1    A    
C5    C6    A    
C10   O5    A    
C17   H7    S    
H2    N2    S    
C4    H1    S    
C12   H3    S    
C17   H8    S    
C11   O8    A    
C6    C11   S    
C1    O2    A    
O6    Zn2   S    
O4    Zn2   S    
C3    C4    A    
C5    Br2   S    
O5    Zn1   S    
C15   H5    S    
C12   C13   A    
C9    O3    A    
C17   H9    S    
C8    C10   S    
C14   Br1   S    
C14   C15   A    
C13   H4    S    
C1    C7    S    
C6    C16   A    
O2    Zn2   S    
C15   C16   A    
C9    O4    A    
O1    Zn1   S    
C4    C5    A    
O8    Zn2   S    
