data_mof_unit_9112.cif
_audit_creation_date              2013-03-05T16:14:06-0500
_audit_creation_method            fapswitch 2.2
_symmetry_space_group_name_H-M    P1
_symmetry_Int_Tables_number       1
_space_group_crystal_system       triclinic
_cell_length_a                    8.460298
_cell_length_b                    17.483302
_cell_length_c                    23.19083
_cell_angle_alpha                 101.468411
_cell_angle_beta                  90.28819
_cell_angle_gamma                 98.943276
_cell_volume                      3318.60163278

loop_
_atom_site_label
_atom_site_type_symbol
_atom_site_description
_atom_site_fract_x
_atom_site_fract_y
_atom_site_fract_z
_atom_type_partial_charge
P1    P     P_3+3 0.055640 0.433080 0.366120 0.637392
O1    O     O_2   0.889310 0.456460 0.358460 -0.384417
O2    O     O_3   0.129890 0.457280 0.429550 -0.319457
O3    O     O_3   0.674650 0.600620 0.400940 -0.419157
O4    O     O_2   0.787843 0.547170 0.297356 -0.314390
O5    O     O_3   0.016362 0.329623 0.339608 -0.481170
O6    O     O_3   0.707510 0.687912 0.310086 -0.493996
H1    H     H_    0.773919 0.742286 0.396525 0.118893
C1    C     C_3   0.711428 0.828397 0.349793 -0.115492
H2    H     H_    0.838861 0.849628 0.343150 0.103981
P2    P     P_3+3 0.671420 0.681950 0.554390 0.581500
P3    P     P_3+3 0.144102 0.743524 0.439379 0.480795
O7    O     O_2   0.849130 0.693580 0.537840 -0.336088
O8    O     O_3   0.093680 0.641380 0.431770 -0.362686
O9    O     O_2   0.017100 0.778626 0.479335 -0.373602
O10   O     O_3   0.693391 0.721477 0.630722 -0.585901
O11   O     O_3   0.115770 0.778938 0.374809 -0.586424
C2    C     C_3   0.125537 0.722021 0.323087 0.272540
H3    H     H_    0.045236 0.665833 0.325131 0.135389
C3    C     C_3   0.068196 0.755196 0.270549 0.056954
H4    H     H_    0.947525 0.769724 0.279141 0.145427
C4    C     C_3   0.109834 0.717200 0.641703 0.641762
H5    H     H_    0.988033 0.688044 0.625466 0.071126
C5    C     C_3   0.090153 0.792069 0.688453 -0.081265
H6    H     H_    0.996390 0.772045 0.718004 0.187384
Ba1   Ba    Ba6+2 0.857050 0.537370 0.474190 1.720859
C6    C     C_3   0.984784 0.285143 0.383214 0.474563
H7    H     H_    0.861418 0.288331 0.397957 0.046185
H8    H     H_    0.076691 0.303901 0.419308 0.174865
C7    C     C_3   0.989010 0.198503 0.357139 -0.916033
H9    H     H_    0.903701 0.177757 0.318620 0.263737
H10   H     H_    0.954248 0.162436 0.390807 0.211276
H11   H     H_    0.111330 0.189994 0.343103 0.276749
C8    C     C_3   0.612521 0.669134 0.662653 0.591779
H12   H     H_    0.504393 0.637159 0.637827 0.072565
C9    C     C_3   0.553975 0.712581 0.721063 -0.117504
H13   H     H_    0.510505 0.669434 0.749088 0.114821
H14   H     H_    0.450447 0.739462 0.710790 0.140391
P4    P     P_3+3 0.134070 0.566990 0.633890 0.599202
O12   O     O_2   0.300380 0.543560 0.641570 -0.394063
O13   O     O_3   0.059830 0.542790 0.570460 -0.270327
O14   O     O_3   0.515070 0.399440 0.599070 -0.271386
O15   O     O_3   0.186954 0.667220 0.667735 -0.637678
P5    P     P_3+3 0.057694 0.256269 0.559950 0.512845
O16   O     O_3   0.612780 0.404640 0.465950 -0.306866
O17   O     O_3   0.096040 0.358680 0.568240 -0.354295
O18   O     O_2   0.152937 0.219012 0.508124 -0.383624
O19   O     O_3   0.129457 0.226164 0.621062 -0.451647
Ba2   Ba    Ba6+2 0.332790 0.462700 0.525820 1.753470
P6    P     P_3+3 0.655126 0.592653 0.325018 0.506920
C10   C     C_3   0.686386 0.743992 0.361125 0.236605
H15   H     H_    0.563904 0.731921 0.376761 0.026787
H16   H     H_    0.679400 0.868535 0.389770 0.090214
O20   O     O_3   0.576930 0.595420 0.534060 -0.353394
C11   C     C_3   0.505510 0.277607 0.326320 0.712123
C12   C     C_3   0.502015 0.208700 0.273056 -0.810972
H17   H     H_    0.398496 0.161775 0.275143 0.249656
H18   H     H_    0.492969 0.229413 0.231018 0.255782
H19   H     H_    0.613331 0.182299 0.273095 0.226964
P7    P     P_3+3 0.522228 0.303527 0.448732 0.524515
O21   O     O_2   0.340570 0.306450 0.462190 -0.321810
O22   O     O_3   0.534138 0.246506 0.376771 -0.646115
C13   C     C_3   0.072272 0.269248 0.672052 0.467175
H20   H     H_    0.139969 0.330473 0.682032 0.103987
H21   H     H_    0.942245 0.270860 0.667565 0.021388
C14   C     C_3   0.097408 0.228985 0.722917 -0.856349
H22   H     H_    0.219313 0.213544 0.722404 0.281109
H23   H     H_    0.082397 0.268892 0.765392 0.232803
H24   H     H_    0.009957 0.173586 0.718601 0.263159
P8    P     P_3+3 0.553332 0.413257 0.676143 0.518528
C15   C     C_3   0.588474 0.280786 0.709421 0.778080
H25   H     H_    0.712333 0.311089 0.706065 -0.122386
O23   O     O_2   0.434620 0.467968 0.703320 -0.404989
O24   O     O_3   0.470354 0.325493 0.698104 -0.563729
C16   C     C_3   0.568772 0.266641 0.772865 -0.621271
H26   H     H_    0.444808 0.238260 0.778524 0.205319
H27   H     H_    0.587988 0.324461 0.804078 0.214425
H28   H     H_    0.026981 0.299073 0.027100 0.178863
H29   H     H_    0.953461 0.299091 0.925693 0.173960
C17   C     C_R   0.338876 0.518668 0.332816 -0.460495
C18   C     C_R   0.135503 0.565312 0.946752 -0.083826
C19   C     C_R   0.090579 0.564460 0.887327 0.557745
O25   O     O_2   0.114933 0.625701 0.868676 -0.544890
N1    N     N_R   0.016914 0.495210 0.850661 -0.167626
C20   C     C_R   0.990704 0.425620 0.872140 0.504015
O26   O     O_2   0.930013 0.364135 0.839713 -0.634403
C21   C     C_R   0.034164 0.424559 0.931170 -0.038368
C22   C     C_R   0.105568 0.494992 0.968825 -0.003885
C23   C     C_R   0.208767 0.635026 0.984906 -0.100210
C24   C     C_R   0.250017 0.635038 0.043534 -0.026003
C25   C     C_R   0.219062 0.565397 0.066364 -0.071207
C26   C     C_R   0.147469 0.495046 0.028741 -0.014228
C27   C     C_R   0.007631 0.354452 0.953493 -0.112440
C28   C     C_R   0.050078 0.354413 0.012018 -0.082935
C29   C     C_R   0.119593 0.424577 0.050598 -0.088793
C30   C     C_R   0.162019 0.425732 0.110318 0.627795
N2    N     N_R   0.223310 0.496236 0.148539 -0.160337
C31   C     C_R   0.257941 0.564899 0.125933 0.622447
C32   C     C_2   0.806622 0.467889 0.772043 -0.282535
C33   C     C_3   0.759092 0.464975 0.708438 0.259259
C34   C     C_1   0.030824 0.510201 0.687515 0.314150
C35   C     C_2   0.078030 0.521135 0.744654 -0.247474
C36   C     C_2   0.962546 0.495313 0.790277 0.205199
C37   C     C_R   0.416244 0.531529 0.234467 -0.214065
C38   C     C_R   0.454664 0.542585 0.294592 0.214086
C39   C     C_R   0.185415 0.480212 0.312149 0.193534
C40   C     C_R   0.143994 0.470483 0.250534 0.276832
C41   C     C_R   0.260251 0.498733 0.211265 -0.002246
O27   O     O_2   0.146046 0.363705 0.127911 -0.523532
O28   O     O_2   0.323194 0.626106 0.157675 -0.543650
C42   C     C_2   0.901823 0.457225 0.670509 -0.188416
H30   H     H_    0.305792 0.690234 0.071122 0.195108
H31   H     H_    0.507782 0.550652 0.205631 0.210098
H32   H     H_    0.234158 0.690137 0.969592 0.183693
H33   H     H_    0.201932 0.544693 0.758042 0.177714
H34   H     H_    0.717557 0.451474 0.802673 0.150583
H35   H     H_    0.370921 0.527572 0.379174 0.187352
H36   H     H_    0.917911 0.398068 0.649867 0.062934
C43   C     C_2   0.458940 0.724483 0.481383 -0.461843
C44   C     C_3   0.340531 0.780630 0.479465 0.446496
C45   C     C_2   0.418911 0.861035 0.474894 -0.301048
C46   C     C_2   0.565797 0.887319 0.500584 0.083172
C47   C     C_2   0.654243 0.829043 0.523356 -0.134304
C48   C     C_1   0.589971 0.751960 0.515544 0.352317
C49   C     C_R   0.781762 0.144493 0.537014 -0.173125
C50   C     C_R   0.846031 0.223711 0.540873 0.057988
C51   C     C_R   0.602161 0.247198 0.497658 0.202648
C52   C     C_R   0.536278 0.167447 0.494194 -0.209519
C53   C     C_R   0.625465 0.115480 0.514084 0.121818
C54   C     C_2   0.640352 0.971632 0.505323 -0.187821
C55   C     C_2   0.553650 0.031256 0.509225 -0.036893
C56   C     C_R   0.754629 0.276353 0.523490 -0.037849
H37   H     H_    0.423921 0.018531 0.508609 0.146148
H38   H     H_    0.854890 0.106375 0.552143 0.165101
H39   H     H_    0.769726 0.984325 0.505721 0.118946
H40   H     H_    0.352506 0.898177 0.455136 0.161964
H41   H     H_    0.420104 0.144696 0.472387 0.163750
H42   H     H_    0.435515 0.664049 0.456682 0.145421
N3    N     N_3   0.236162 0.824389 0.725039 -0.179668
H43   H     H_    0.314696 0.860954 0.703724 0.217166
H44   H     H_    0.204959 0.860719 0.763395 0.168016
N4    N     N_R   0.035950 0.853845 0.662442 0.244010
O29   O     O_R   0.122005 0.886080 0.624596 -0.364106
O30   O     O_R   0.919313 0.887924 0.686091 -0.324255
N5    N     N_R   0.716545 0.613962 0.671781 0.167828
O31   O     O_R   0.818540 0.632255 0.716400 -0.463293
O32   O     O_R   0.744322 0.562212 0.626082 -0.397815
N6    N     N_R   0.675717 0.774938 0.753475 0.287856
O33   O     O_R   0.759278 0.760371 0.796135 -0.312610
O34   O     O_R   0.665198 0.848124 0.752558 -0.310935
N7    N     N_R   0.355533 0.308583 0.328194 0.211758
O35   O     O_R   0.264118 0.294973 0.280702 -0.377174
O36   O     O_R   0.345560 0.370634 0.368225 -0.444391
N8    N     N_3   0.633649 0.339997 0.318990 -0.183925
H45   H     H_    0.638791 0.384929 0.356178 0.163846
H46   H     H_    0.740157 0.317259 0.316476 0.158858
N9    N     N_R   0.612970 0.834736 0.299666 0.285121
O37   O     O_R   0.640731 0.799369 0.246695 -0.299272
O38   O     O_R   0.509855 0.883459 0.306916 -0.391730
N10   N     N_R   0.053901 0.696604 0.215274 0.261537
O39   O     O_R   0.084877 0.719302 0.165796 -0.345606
O40   O     O_R   0.970576 0.627095 0.213405 -0.342621
N11   N     N_R   0.565701 0.205262 0.667134 0.213518
O41   O     O_R   0.674899 0.159831 0.662808 -0.467343
O42   O     O_R   0.441420 0.184944 0.630964 -0.338024
N12   N     N_3   0.680449 0.218077 0.789493 -0.159626
H47   H     H_    0.792589 0.233910 0.772967 0.195905
H48   H     H_    0.639156 0.158721 0.770895 0.203612
N13   N     N_R   0.986973 0.432233 0.228046 0.266040
O43   O     O_R   0.906594 0.463404 0.193342 -0.338921
O44   O     O_R   0.935787 0.360170 0.233697 -0.321848
N14   N     N_3   0.290744 0.708167 0.315412 -0.164287
H49   H     H_    0.299072 0.672940 0.273935 0.165078
H50   H     H_    0.315250 0.674060 0.345447 0.040902
N15   N     N_3   0.793775 0.858879 0.561110 -0.119546
H51   H     H_    0.762172 0.901399 0.595633 0.205415
H52   H     H_    0.880490 0.887762 0.537554 0.162150
N16   N     N_R   0.823583 0.357104 0.524926 0.240226
O45   O     O_R   0.920941 0.375907 0.485650 -0.398264
O46   O     O_R   0.778750 0.414362 0.561739 -0.335585
N17   N     N_3   0.175136 0.827494 0.264433 -0.132058
H53   H     H_    0.176807 0.869361 0.303607 0.160679
H54   H     H_    0.124531 0.852162 0.232629 0.167071
N18   N     N_R   0.205245 0.735222 0.593143 0.212299
O47   O     O_R   0.339726 0.783785 0.604429 -0.462205
O48   O     O_R   0.194350 0.679208 0.546713 -0.394460

loop_
_geom_bond_atom_site_label_1
_geom_bond_atom_site_label_2
_geom_bond_distance
_ccdc_geom_bond_type
C49   H38   1.081199 S    
C11   N8    1.449794 S    
C14   H23   1.108477 S    
C21   C22   1.406991 A    
C13   H21   1.109693 S    
O16   P7    1.779487 S    
N9    O37   1.300976 A    
C31   O28   1.220963 D    
C6    H8    1.103554 S    
N3    H44   1.046022 S    
N13   O43   1.300501 A    
P1    O1    1.544039 D    
C32   C36   1.366027 D    
C29   C30   1.424424 A    
C1    C10   1.532685 S    
C24   H30   1.083103 S    
C11   C12   1.541039 S    
C52   C53   1.408498 A    
N2    C31   1.394373 Am   
O2    Ba2   2.786905 S    
C47   C48   1.348623 D    
P4    O13   1.548524 S    
C43   C48   1.327235 D    
N18   O47   1.300818 A    
O17   Ba2   2.808157 S    
P5    C50   1.816985 S    
C34   C35   1.349870 D    
C15   N11   1.465054 S    
C42   H36   1.079315 S    
C9    H13   1.112579 S    
N11   O42   1.300713 A    
N6    O34   1.300683 A    
H29   C27   1.083272 S    
N5    O31   1.300479 A    
C7    H9    1.110719 S    
C8    N5    1.446723 S    
C14   H24   1.110597 S    
C39   C40   1.439878 A    
O12   Ba2   2.810389 S    
C11   O22   1.419270 S    
C17   C39   1.400568 A    
O14   P8    1.776523 S    
C12   H17   1.111408 S    
P7    O22   1.777741 S    
C8    H12   1.090207 S    
C51   C56   1.396056 A    
C4    N18   1.445761 S    
C35   H33   1.084669 S    
Ba1   O16   2.832135 S    
O10   C8    1.390612 S    
P3    C44   1.859097 S    
N2    C41   1.476998 S    
C9    N6    1.460009 S    
P2    C48   1.865218 S    
C5    N4    1.466607 S    
P3    O11   1.759077 S    
P8    O24   1.756724 S    
P6    C38   1.849652 S    
N7    O35   1.303002 A    
C1    N9    1.458682 S    
C12   H18   1.111609 S    
C1    H2    1.106270 S    
N8    H46   1.037342 S    
O5    C6    1.396288 S    
P1    C39   1.895715 S    
C18   C23   1.408343 A    
C37   C41   1.412419 A    
N17   H54   1.045959 S    
C14   H22   1.105495 S    
C13   C14   1.518688 S    
N9    O38   1.300200 A    
Ba2   O20   2.831354 S    
C6    C7    1.521259 S    
N12   H48   1.045337 S    
N13   O44   1.299481 A    
N12   H47   1.042967 S    
C35   C36   1.530039 S    
Ba1   O20   2.965598 S    
O13   Ba2   2.969569 S    
C37   C38   1.398561 A    
N5    O32   1.297801 A    
N14   H50   1.042051 S    
P4    C34   1.878200 S    
C20   C21   1.420116 A    
C5    N3    1.465236 S    
N3    H43   1.044688 S    
O3    Ba1   2.782269 S    
C15   C16   1.545327 S    
Ba2   O21   2.845744 S    
P1    O5    1.768880 S    
C18   C22   1.411527 A    
N16   O45   1.287877 A    
N1    C20   1.391310 Am   
N15   H52   1.044110 S    
Ba1   Ba2   4.641606 S    
C32   H34   1.083485 S    
C2    H3    1.113618 S    
O19   C13   1.401649 S    
P4    O15   1.758627 S    
P5    O17   1.740673 S    
P2    Ba1   3.421877 S    
N17   H53   1.045722 S    
C17   C38   1.396065 A    
C26   C29   1.410562 A    
C18   C19   1.424317 A    
C10   H15   1.102738 S    
O3    P6    1.743306 S    
P7    O21   1.576364 D    
P1    O2    1.548555 S    
N10   O40   1.299259 A    
C16   H26   1.108528 S    
P2    O10   1.765230 S    
C47   N15   1.431340 S    
N15   H51   1.045180 S    
P3    O9    1.542283 D    
O16   Ba2   2.964724 S    
C40   C41   1.441370 A    
C30   N2    1.391447 Am   
O8    Ba1   2.807429 S    
P8    O23   1.544745 D    
O11   C2    1.409858 S    
C45   C46   1.347792 D    
O1    Ba1   2.810048 S    
C27   C28   1.402365 A    
C22   C26   1.432065 A    
C5    H6    1.111764 S    
C16   H27   1.108614 S    
H1    C10   1.110764 S    
N8    H45   1.040353 S    
P2    O20   1.576886 S    
C52   H41   1.083254 S    
P4    Ba2   3.407432 S    
C54   H39   1.082091 S    
P3    O8    1.743366 S    
C19   N1    1.388504 Am   
P1    Ba1   3.406794 S    
C4    C5    1.556212 S    
O7    Ba1   2.845506 S    
C1    H16   1.108294 S    
C51   C52   1.405209 A    
C25   C26   1.406154 A    
N4    O30   1.299156 A    
C44   C45   1.482307 S    
C40   N13   1.436000 S    
C23   H32   1.083124 S    
C7    H11   1.109513 S    
C4    H5    1.104512 S    
C43   H42   1.084842 S    
O2    Ba1   2.968704 S    
O6    P6    1.758238 S    
C13   H20   1.112174 S    
C55   H37   1.084876 S    
C25   C31   1.420487 A    
C20   O26   1.219740 D    
C15   O24   1.414305 S    
N16   O46   1.286959 A    
C43   C44   1.513857 S    
P5    O18   1.542638 D    
C11   N7    1.452586 S    
C2    N14   1.461002 S    
C34   C42   1.319326 D    
C30   O27   1.221326 D    
C12   H19   1.111441 S    
N10   O39   1.301733 A    
P8    C33   1.907113 S    
C9    H14   1.102354 S    
C54   C55   1.354182 D    
C46   C47   1.524448 S    
O6    C10   1.410441 S    
C15   H25   1.108792 S    
C32   C33   1.515851 S    
C7    H10   1.110954 S    
P2    O7    1.546250 D    
C24   C25   1.410655 A    
C49   C50   1.392094 A    
H28   C28   1.083114 S    
C21   C27   1.410207 A    
C17   H35   1.082094 S    
P7    C51   1.832560 S    
C37   H31   1.082753 S    
C8    C9    1.540055 S    
N18   O48   1.295586 A    
C16   N12   1.462271 S    
C2    C3    1.555258 S    
N6    O33   1.300969 A    
N7    O36   1.294077 A    
C45   H40   1.084619 S    
C28   C29   1.408933 A    
O4    P6    1.544861 D    
N11   O41   1.300712 A    
C50   C56   1.404704 A    
O14   Ba2   2.781756 S    
N14   H49   1.043135 S    
P4    O12   1.544329 D    
C49   C53   1.402043 A    
C3    H4    1.099551 S    
C33   C42   1.504788 S    
C19   O25   1.221648 D    
C3    N10   1.464560 S    
C6    H7    1.106085 S    
N1    C36   1.472197 S    
N4    O29   1.301355 A    
C23   C24   1.401952 A    
C46   C54   1.492848 S    
C4    O15   1.391679 S    
P5    O19   1.743992 S    
Ba1   O13   2.786289 S    
C56   N16   1.435152 S    
C3    N17   1.467444 S    
C53   C55   1.485032 S    
