data_mof_unit_42901.cif
_audit_creation_date              2012-12-11T14:08:03-0500
_audit_creation_method            fapswitch 2.2
_symmetry_space_group_name_H-M    P1
_symmetry_Int_Tables_number       1
_space_group_crystal_system       triclinic
_cell_length_a                    10.922441
_cell_length_b                    10.975978
_cell_length_c                    18.661091
_cell_angle_alpha                 89.706082
_cell_angle_beta                  89.243243
_cell_angle_gamma                 59.915886
_cell_volume                      1935.63445281

loop_
_atom_site_label
_atom_site_type_symbol
_atom_type_description
_atom_site_fract_x
_atom_site_fract_y
_atom_site_fract_z
_atom_type_partial_charge
C1    C     C_R   0.236218 0.645480 0.608828 0.571399
C2    C     C_3   0.708659 0.528341 0.801411 -0.306052
C3    C     C_3   0.693453 0.674310 0.814198 0.052070
C4    C     C_3   0.666030 0.643281 0.678716 0.030159
C5    C     C_3   0.795041 0.663346 0.689099 0.010840
C6    C     C_3   0.690318 0.510872 0.721696 -0.281563
C7    C     C_2   0.673188 0.159323 0.671737 -0.065896
C8    C     C_2   0.689203 0.168988 0.828196 -0.102633
C9    C     C_2   0.801422 0.122594 0.783621 -0.163664
C10   C     C_2   0.782403 0.154354 0.706602 -0.157350
C11   C     C_2   0.181359 0.661941 0.681788 -0.085427
C12   C     C_R   0.650914 0.618322 0.603262 0.603957
C13   C     C_2   0.196551 0.662392 0.839415 -0.119356
C14   C     C_2   0.195995 0.560036 0.800762 -0.177321
C15   C     C_2   0.224030 0.547731 0.723531 -0.179483
C16   C     C_2   0.622842 0.616432 0.311979 -0.135794
C17   C     C_2   0.627868 0.656681 0.156480 -0.082908
C18   C     C_2   0.687507 0.528897 0.188178 0.142395
C19   C     C_2   0.658262 0.513609 0.263823 -0.141665
C20   C     C_2   0.674997 0.138834 0.333199 -0.105154
C21   C     C_2   0.649813 0.146089 0.179121 -0.076685
C22   C     C_2   0.610409 0.073639 0.222693 -0.156476
C23   C     C_R   0.627729 0.228215 0.602246 0.568014
C24   C     C_2   0.594147 0.099023 0.299158 -0.156915
C25   C     C_2   0.187397 0.662520 0.326465 -0.080680
C26   C     C_2   0.183863 0.643724 0.172804 -0.102002
C27   C     C_2   0.238153 0.712551 0.205635 -0.157514
C28   C     C_2   0.262553 0.696971 0.281525 -0.150370
C29   C     C_R   0.703129 0.102985 0.897752 0.563063
C30   C     C_R   0.720390 0.687024 0.889671 0.546319
C31   C     C_R   0.119679 0.706283 0.907505 0.543343
C32   C     C_R   0.674928 0.105278 0.105054 0.576127
C33   C     C_R   0.691100 0.686799 0.094134 0.568954
C34   C     C_R   0.225011 0.648541 0.400432 0.558459
C35   C     C_R   0.099629 0.705042 0.110413 0.554684
C36   C     C_R   0.614730 0.587851 0.387294 0.563832
C37   C     C_R   0.621544 0.223197 0.397235 0.556319
C38   C     C_3   0.542265 0.790734 0.789468 0.164548
C39   C     C_3   0.528846 0.771515 0.708925 -0.171360
C40   C     C_3   0.807578 0.687340 0.769021 -0.176190
Cr1   Cr    Cr6+3 0.393010 0.398050 0.501480 1.038422
Cr2   Cr    Cr6+3 0.398820 0.707980 0.501630 1.034903
Cr3   Cr    Cr6+3 0.708140 0.393940 0.496850 1.036186
Cr4   Cr    Cr6+3 0.937950 0.938450 0.008940 1.053924
Cr5   Cr    Cr6+3 0.626180 0.937030 0.994750 1.023680
Cr6   Cr    Cr6+3 0.937790 0.625760 0.001410 1.050473
H1    H     H_    0.787262 0.415526 0.701914 0.140097
H2    H     H_    0.915436 0.607727 0.786711 0.109135
H3    H     H_    0.892850 0.565889 0.671601 0.149397
H4    H     H_    0.908267 0.055517 0.802907 0.149928
H5    H     H_    0.857342 0.176277 0.679016 0.141675
H6    H     H_    0.582803 0.236986 0.808489 0.097912
H7    H     H_    0.604396 0.128117 0.698772 0.151407
H8    H     H_    0.166583 0.488050 0.824951 0.143881
H9    H     H_    0.280349 0.442237 0.700964 0.152434
H10   H     H_    0.233155 0.729316 0.815651 0.090552
H11   H     H_    0.463832 0.771914 0.819324 0.077503
H12   H     H_    0.123028 0.767398 0.704323 0.120826
H13   H     H_    0.681985 0.409915 0.282084 0.145352
H14   H     H_    0.539054 0.746845 0.182107 0.054746
H15   H     H_    0.601487 0.720788 0.296706 0.103259
H16   H     H_    0.582979 0.998345 0.201549 0.152362
H17   H     H_    0.504293 0.099937 0.325414 0.166866
H18   H     H_    0.676777 0.221982 0.199130 0.131413
H19   H     H_    0.769912 0.129012 0.308042 0.121143
H20   H     H_    0.248374 0.795420 0.179024 0.161086
H21   H     H_    0.437044 0.755282 0.701185 0.085123
H22   H     H_    0.337181 0.726174 0.301509 0.148915
H23   H     H_    0.184022 0.553506 0.197207 0.119234
H24   H     H_    0.110830 0.634014 0.308728 0.104104
H25   H     H_    0.506166 0.868173 0.678733 0.193452
H26   H     H_    0.796711 0.792545 0.777839 0.194971
H27   H     H_    0.814634 0.442683 0.818401 0.152940
H28   H     H_    0.627891 0.517572 0.833452 0.116855
H29   H     H_    0.599630 0.492621 0.714580 0.124813
O1    O     O_R   0.507110 0.256280 0.580300 -0.511375
O2    O     O_R   0.524640 0.695370 0.425100 -0.491083
O3    O     O_R   0.735890 0.504390 0.415980 -0.477830
O4    O     O_R   0.690560 0.277820 0.422350 -0.516163
O5    O     O_3   0.499990 0.499990 0.499980 -0.289808
O6    O     O_R   0.089190 0.825870 0.932320 -0.525509
O7    O     O_R   0.819070 0.053960 0.931440 -0.495130
O8    O     O_R   0.607070 0.076440 0.916460 -0.506708
O9    O     O_R   0.647110 0.806550 0.917690 -0.471724
O10   O     O_R   0.837080 0.593860 0.915300 -0.532404
O11   O     O_R   0.064770 0.636080 0.932550 -0.503691
O12   O     O_R   0.280830 0.527190 0.577940 -0.493980
O13   O     O_R   0.068250 0.829200 0.092940 -0.503558
O14   O     O_R   0.799650 0.057040 0.080330 -0.459427
O15   O     O_R   0.586130 0.079760 0.077080 -0.521859
O16   O     O_R   0.627700 0.809630 0.066580 -0.520850
O17   O     O_R   0.816140 0.597180 0.075920 -0.444374
O18   O     O_R   0.045360 0.639170 0.081440 -0.492923
O19   O     O_3   0.833980 0.833750 0.001700 -0.263482
O20   O     O_R   0.261360 0.738990 0.584270 -0.518428
O21   O     O_R   0.532590 0.694780 0.574370 -0.496939
O22   O     O_R   0.744470 0.503750 0.577000 -0.518328
O23   O     O_R   0.698520 0.277230 0.571620 -0.503906
O24   O     O_R   0.498530 0.256920 0.419280 -0.504005
O25   O     O_R   0.272880 0.527780 0.428680 -0.490023
O26   O     O_R   0.252780 0.739630 0.423250 -0.514443
O27   O     O_3   0.520249 0.928731 0.800545 -0.545734
C41   C     C_3   0.382460 0.022785 0.827825 0.031733
H30   H     H_    0.383267 0.117218 0.848179 0.172095
H31   H     H_    0.354389 0.977726 0.874604 0.123947
C42   C     C_3   0.269451 0.071383 0.769533 -0.298455
H32   H     H_    0.302305 0.111867 0.722761 0.175613
H33   H     H_    0.257580 0.981559 0.751716 0.144507
C43   C     C_3   0.125716 0.187220 0.797172 -0.480783
H34   H     H_    0.089731 0.148454 0.843386 0.159044
H35   H     H_    0.046530 0.219421 0.753932 0.141224
H36   H     H_    0.132064 0.280748 0.813990 0.142683
Br1   Br    Br    0.824368 0.356993 0.141097 -0.517164
Br2   Br    Br    0.787133 0.814964 0.630618 -0.561752

loop_
_geom_bond_atom_site_label_1
_geom_bond_atom_site_label_2
_ccdc_geom_bond_type
C1    O12   A    
C7    C10   D    
Cr2   O5    S    
C5    Br2   S    
C1    C11   S    
Cr3   O23   S    
C23   O1    A    
Cr1   O5    S    
C6    H29   S    
Cr5   O8    S    
C25   C28   D    
C37   O4    A    
C26   C27   D    
Cr2   O21   S    
C8    C29   S    
C28   H22   S    
C29   O8    A    
Cr4   O7    S    
C36   O2    A    
C33   O16   A    
C38   C39   S    
Cr6   O17   S    
C42   H32   S    
Cr5   O19   S    
Cr3   O4    S    
C18   C19   S    
C21   H18   S    
C11   C15   D    
C32   O15   A    
C20   C24   D    
C3    C38   S    
C8    C9    D    
C34   O25   A    
Cr1   O24   S    
C13   C14   D    
C4    C12   S    
C11   H12   S    
C9    C10   S    
C8    H6    S    
C2    H28   S    
C25   C34   S    
C13   H10   S    
C31   O11   A    
C21   C22   D    
C5    H3    S    
C2    C6    S    
C17   C33   S    
C10   H5    S    
C18   Br1   S    
C35   O18   A    
Cr1   O12   S    
C21   C32   S    
C34   O26   A    
C6    H1    S    
Cr2   O20   S    
C20   H19   S    
C4    C6    S    
Cr4   O6    S    
C43   H36   S    
C19   H13   S    
Cr3   O5    S    
Cr3   O3    S    
C15   H9    S    
C3    C30   S    
C22   H16   S    
C38   H11   S    
C35   O13   A    
C32   O14   A    
Cr6   O19   S    
C4    C39   S    
C1    O20   A    
C17   C18   D    
Cr1   O25   S    
C41   H31   S    
C30   O10   A    
Cr5   O15   S    
C12   O22   A    
C2    H27   S    
C14   H8    S    
C3    C40   S    
C24   H17   S    
C22   C24   S    
C33   O17   A    
Cr5   O9    S    
C16   H15   S    
C7    H7    S    
Cr2   O26   S    
C37   O24   A    
C40   H2    S    
C40   H26   S    
C39   H21   S    
C13   C31   S    
C9    H4    S    
Cr3   O22   S    
C4    C5    S    
C31   O6    A    
Cr6   O10   S    
C43   H35   S    
C2    C3    S    
C29   O7    A    
C38   O27   S    
C27   H20   S    
C36   O3    A    
C43   H34   S    
C16   C36   S    
Cr1   O1    S    
C20   C37   S    
Cr6   O18   S    
C42   H33   S    
C16   C19   D    
C7    C23   S    
C41   C42   S    
C30   O9    A    
O27   C41   S    
Cr5   O16   S    
Cr4   O19   S    
C17   H14   S    
C26   C35   S    
C23   O23   A    
Cr2   O2    S    
C5    C40   S    
C41   H30   S    
C26   H23   S    
C39   H25   S    
C14   C15   S    
C12   O21   A    
C25   H24   S    
Cr6   O11   S    
Cr4   O13   S    
Cr4   O14   S    
C27   C28   S    
C42   C43   S    
