data_mof_unit_59586.cif
_audit_creation_date              2012-12-10T19:10:25-0500
_audit_creation_method            fapswitch 2.2
_symmetry_space_group_name_H-M    P1
_symmetry_Int_Tables_number       1
_space_group_crystal_system       triclinic
_cell_length_a                    10.65529
_cell_length_b                    9.850688
_cell_length_c                    15.689104
_cell_angle_alpha                 88.349782
_cell_angle_beta                  90.116635
_cell_angle_gamma                 90.466563
_cell_volume                      1646.01852471

loop_
_atom_site_label
_atom_site_type_symbol
_atom_type_description
_atom_site_fract_x
_atom_site_fract_y
_atom_site_fract_z
_atom_type_partial_charge
C1    C     C_R   0.258154 0.499931 0.500616 0.892226
C2    C     C_3   0.623221 0.486596 0.956591 0.862118
C3    C     C_3   0.612636 0.493060 0.055300 -0.597957
C4    C     C_1   0.493045 0.494124 0.825543 0.135890
C5    C     C_1   0.476174 0.503813 0.174846 0.197595
C6    C     C_1   0.485879 0.503865 0.249999 -0.009027
C7    C     C_3   0.074163 0.650061 0.500667 -0.463246
C8    C     C_3   0.073379 0.426705 0.583530 -0.468972
C9    C     C_3   0.930959 0.651819 0.500263 0.237752
C10   C     C_3   0.928391 0.428902 0.584404 0.244055
C11   C     C_3   0.071027 0.428394 0.422202 -0.392060
C12   C     C_3   0.121719 0.501089 0.501676 0.044815
C13   C     C_3   0.878756 0.502282 0.501035 -0.016244
C14   C     C_R   0.497573 0.501430 0.338596 0.927447
C15   C     C_3   0.927303 0.429472 0.421329 -0.429970
C16   C     C_3   0.375278 0.076872 0.522853 -0.226786
C17   C     C_3   0.371818 0.917741 0.509074 -0.303355
C18   C     C_3   0.528690 0.088441 0.411934 0.310306
C19   C     C_3   0.564124 0.934018 0.420387 0.235752
C20   C     C_3   0.589125 0.077667 0.562509 -0.369897
C21   C     C_3   0.572437 0.916100 0.571866 -0.319365
C22   C     C_R   0.742116 0.500734 0.500522 0.906032
C23   C     C_R   0.500214 0.498300 0.661384 0.878828
C24   C     C_3   0.420867 0.637548 0.042521 0.237272
C25   C     C_3   0.405946 0.370232 0.050085 0.248539
C26   C     C_3   0.404874 0.374199 0.950860 0.060541
C27   C     C_3   0.420087 0.628498 0.943838 0.008927
C28   C     C_1   0.497032 0.494766 0.750223 -0.147525
C29   C     C_3   0.472610 0.501640 0.083281 -0.194390
C30   C     C_3   0.487455 0.495937 0.917219 0.000068
H1    H     H_    0.321601 0.623046 0.919850 0.187527
H2    H     H_    0.308143 0.390504 0.925873 0.172085
H3    H     H_    0.107741 0.478795 0.362792 0.212203
H4    H     H_    0.102152 0.320978 0.423695 0.211516
H5    H     H_    0.892852 0.480149 0.361657 0.199793
H6    H     H_    0.891077 0.323407 0.419580 0.193426
H7    H     H_    0.296359 0.125413 0.488346 0.220532
H8    H     H_    0.312384 0.891927 0.453963 0.203192
H9    H     H_    0.355234 0.096679 0.591029 0.150187
H10   H     H_    0.325619 0.866819 0.565049 0.169541
H11   H     H_    0.687264 0.103309 0.543725 0.184862
H12   H     H_    0.666148 0.867391 0.575959 0.186995
H13   H     H_    0.574511 0.123571 0.625577 0.224277
H14   H     H_    0.524986 0.889276 0.633329 0.203205
H15   H     H_    0.613008 0.145356 0.388444 0.089109
H16   H     H_    0.666570 0.937636 0.435660 0.103632
H17   H     H_    0.466496 0.283697 0.070910 0.202271
H18   H     H_    0.488524 0.719191 0.059791 0.177603
H19   H     H_    0.667124 0.580766 0.079829 0.202804
H20   H     H_    0.657246 0.401783 0.085780 0.247809
H21   H     H_    0.112021 0.707382 0.443969 0.215435
H22   H     H_    0.108430 0.320504 0.586672 0.201633
H23   H     H_    0.108878 0.702862 0.558114 0.160371
H24   H     H_    0.110415 0.477678 0.640930 0.153610
H25   H     H_    0.899803 0.700686 0.559714 0.125439
H26   H     H_    0.898442 0.488679 0.639888 0.126883
N1    N     N_3   0.499750 0.138610 0.498180 -0.121067
N2    N     N_3   0.499750 0.861390 0.498180 -0.108056
O1    O     O_R   0.314910 0.616040 0.499980 -0.652340
O2    O     O_R   0.314910 0.383960 0.499980 -0.595386
O3    O     O_R   0.500120 0.616090 0.377110 -0.581931
O4    O     O_R   0.500120 0.383910 0.377110 -0.560112
O5    O     O_R   0.685320 0.616040 0.499960 -0.579894
O6    O     O_R   0.685320 0.383960 0.499960 -0.610779
O7    O     O_R   0.500110 0.615990 0.622830 -0.623674
O8    O     O_R   0.500110 0.384010 0.622830 -0.613108
Zn1   Zn    Zn3+2 0.500150 0.654960 0.499960 0.976106
Zn2   Zn    Zn3+2 0.500150 0.345040 0.499960 0.984438
O9    O     O_3   0.885571 0.732615 0.431453 -0.697562
H27   H     H_    0.924118 0.701726 0.377993 0.371294
O10   O     O_3   0.878091 0.297090 0.597167 -0.739315
H28   H     H_    0.913473 0.237724 0.553421 0.342925
S1    S     S_3+6 0.404027 0.123403 0.331089 0.078872
O11   O     O_2   0.466123 0.160937 0.247706 -0.208044
O12   O     O_2   0.319583 0.003615 0.318209 -0.316438
O13   O     O_3   0.307148 0.249962 0.355120 -0.565842
H29   H     H_    0.240450 0.247956 0.311165 0.389290
S2    S     S_3+6 0.590191 0.862064 0.315975 0.109446
O14   O     O_2   0.651840 0.971107 0.261311 -0.232471
O15   O     O_2   0.683141 0.748443 0.322719 -0.271480
O16   O     O_3   0.461429 0.811449 0.262719 -0.435020
H30   H     H_    0.397158 0.787324 0.305947 0.381180
S3    S     S_3+6 0.271664 0.697845 0.080633 0.086867
O17   O     O_2   0.259863 0.677760 0.175528 -0.246476
O18   O     O_2   0.264332 0.847284 0.059252 -0.241374
O19   O     O_3   0.151248 0.619627 0.032587 -0.502179
H31   H     H_    0.074890 0.659035 0.057536 0.402251
S4    S     S_3+6 0.254047 0.323207 0.094825 0.073147
O20   O     O_2   0.225531 0.400499 0.173444 -0.276299
O21   O     O_2   0.149846 0.344937 0.031313 -0.246344
O22   O     O_3   0.258196 0.156707 0.121424 -0.454627
H32   H     H_    0.178354 0.137651 0.151881 0.402276
O23   O     O_3   0.448329 0.250521 0.919779 -0.700045
H33   H     H_    0.381660 0.181668 0.931897 0.378151
O24   O     O_3   0.476911 0.744486 0.905753 -0.742666
H34   H     H_    0.418070 0.820935 0.912914 0.380895
O25   O     O_3   0.702256 0.591477 0.923450 -0.727689
H35   H     H_    0.683455 0.677358 0.952010 0.370386
O26   O     O_3   0.677804 0.361212 0.937474 -0.661263
H36   H     H_    0.702300 0.364999 0.876423 0.368647

loop_
_geom_bond_atom_site_label_1
_geom_bond_atom_site_label_2
_ccdc_geom_bond_type
O8    Zn2   S    
C26   H2    S    
O23   H33   S    
S1    O11   D    
C27   O24   S    
O24   H34   S    
C24   C27   S    
O16   H30   S    
C3    H19   S    
C19   H16   S    
O6    Zn2   S    
C23   O8    A    
C24   S3    S    
C9    O9    S    
C1    O1    A    
C5    C6    T    
S2    O15   D    
C14   O4    A    
O25   H35   S    
C18   C19   S    
C3    C29   S    
C9    C13   S    
C24   C29   S    
O1    Zn1   S    
C22   O5    A    
C11   C15   S    
S3    O17   D    
C2    O25   S    
C16   C17   S    
O7    Zn1   S    
C9    H25   S    
C10   H26   S    
C8    H22   S    
C16   H7    S    
C17   H8    S    
C10   O10   S    
C26   O23   S    
C27   C30   S    
S1    O12   D    
C1    C12   S    
C15   H5    S    
C4    C28   T    
C3    H20   S    
C20   H11   S    
C5    C29   S    
C19   N2    S    
C25   C29   S    
C7    C12   S    
O5    Zn1   S    
C27   H1    S    
C24   H18   S    
C11   H3    S    
O13   H29   S    
C1    O2    A    
C8    H24   S    
O22   H32   S    
O19   H31   S    
C25   C26   S    
C14   O3    A    
C25   S4    S    
C17   H10   S    
C19   S2    S    
C6    C14   S    
C21   H14   S    
O3    Zn1   S    
C18   N1    S    
O26   H36   S    
S4    O22   S    
C8    C12   S    
C23   C28   S    
S4    O20   D    
S3    O18   D    
S4    O21   D    
C2    O26   S    
C26   C30   S    
C18   S1    S    
C13   C15   S    
S1    O13   S    
C7    H23   S    
N1    Zn2   S    
C18   H15   S    
C15   H6    S    
C20   H13   S    
C7    C9    S    
C25   H17   S    
S2    O14   D    
C11   H4    S    
C10   C13   S    
C11   C12   S    
C17   N2    S    
O4    Zn2   S    
C2    C30   S    
C23   O7    A    
C2    C3    S    
C7    H21   S    
C21   N2    S    
S2    O16   S    
C13   C22   S    
C16   N1    S    
O9    H27   S    
C16   H9    S    
C22   O6    A    
C21   H12   S    
N2    Zn1   S    
O10   H28   S    
S3    O19   S    
C20   C21   S    
O2    Zn2   S    
C8    C10   S    
C20   N1    S    
C4    C30   S    
