data_mof_unit_55688.cif
_audit_creation_date              2012-12-10T19:05:17-0500
_audit_creation_method            fapswitch 2.2
_symmetry_space_group_name_H-M    P1
_symmetry_Int_Tables_number       1
_space_group_crystal_system       triclinic
_cell_length_a                    9.54599
_cell_length_b                    10.893809
_cell_length_c                    17.326026
_cell_angle_alpha                 90.763551
_cell_angle_beta                  85.94389
_cell_angle_gamma                 90.358439
_cell_volume                      1797.07335886

loop_
_atom_site_label
_atom_site_type_symbol
_atom_type_description
_atom_site_fract_x
_atom_site_fract_y
_atom_site_fract_z
_atom_type_partial_charge
C1    C     C_R   0.500096 0.737026 0.502264 0.827328
C2    C     C_R   0.345184 0.532161 0.774663 -0.243811
C3    C     C_R   0.406064 0.546750 0.149346 -0.180948
C4    C     C_R   0.401514 0.532409 0.228706 -0.201155
C5    C     C_R   0.655646 0.528824 0.223190 -0.223473
C6    C     C_R   0.661040 0.540499 0.142907 0.381582
C7    C     C_R   0.535177 0.545894 0.105141 0.087203
C8    C     C_2   0.433787 0.500235 0.981176 -0.136285
C9    C     C_2   0.538438 0.547667 0.020092 -0.152596
C10   C     C_R   0.525962 0.520238 0.266135 -0.102721
C11   C     C_R   0.381165 0.936209 0.498308 0.014329
C12   C     C_R   0.481709 0.496747 0.649975 0.875573
C13   C     C_R   0.500511 0.868993 0.508660 -0.153830
C14   C     C_R   0.621496 0.934346 0.527332 -0.211444
C15   C     C_R   0.621635 0.063513 0.530220 0.375348
C16   C     C_R   0.500888 0.129476 0.510394 -0.184894
C17   C     C_R   0.381971 0.059979 0.497547 -0.036695
C18   C     C_3   0.234623 0.066129 0.474827 0.215412
C19   C     C_3   0.234231 0.924293 0.475745 0.223406
C20   C     C_R   0.934332 0.469884 0.434339 0.242430
C21   C     C_R   0.918009 0.540350 0.562624 0.036274
C22   C     C_R   0.066552 0.539084 0.562940 0.067519
C23   C     C_R   0.499756 0.262526 0.503402 0.849673
C24   C     C_R   0.082099 0.474240 0.433554 0.180445
C25   C     C_3   0.097260 0.358949 0.387330 -0.547178
C26   C     C_3   0.938150 0.348206 0.393374 0.239126
C27   C     C_R   0.518156 0.504692 0.350147 0.806210
C28   C     C_R   0.470391 0.492410 0.734739 -0.191242
C29   C     C_R   0.581168 0.449202 0.776913 0.385534
C30   C     C_R   0.567330 0.452486 0.857269 -0.206957
C31   C     C_R   0.444026 0.495960 0.896636 -0.001838
C32   C     C_R   0.331030 0.533020 0.855161 0.434015
Cu1   Cu    Cu3+1 0.359330 0.500020 0.500000 1.007709
Cu2   Cu    Cu3+1 0.640670 0.499980 0.500000 1.029631
H1    H     H_    0.715392 0.885699 0.540499 0.217753
H2    H     H_    0.228583 0.101704 0.415516 0.021962
H3    H     H_    0.228313 0.881145 0.417550 0.061755
H4    H     H_    0.856713 0.572572 0.613588 0.180575
H5    H     H_    0.115195 0.569558 0.614321 0.161857
H6    H     H_    0.143732 0.375545 0.327721 0.206043
H7    H     H_    0.299857 0.531536 0.260647 0.174293
H8    H     H_    0.149845 0.287743 0.418685 0.217367
H9    H     H_    0.895431 0.273637 0.431913 0.162642
H10   H     H_    0.752797 0.524889 0.251600 0.231320
H11   H     H_    0.631275 0.583668 0.988003 0.217422
H12   H     H_    0.307644 0.558316 0.123028 0.184100
H13   H     H_    0.258540 0.564484 0.743380 0.204932
H14   H     H_    0.339514 0.462761 0.010810 0.194400
H15   H     H_    0.652564 0.419136 0.889312 0.210766
N1    N     N_R   0.852130 0.499070 0.499500 -0.226344
N2    N     N_R   0.148040 0.499110 0.499500 -0.187317
O1    O     O_R   0.381190 0.680360 0.500000 -0.556024
O2    O     O_R   0.618770 0.680320 0.499990 -0.597041
O3    O     O_R   0.367430 0.500040 0.613600 -0.590696
O4    O     O_R   0.605020 0.500000 0.613590 -0.546251
O5    O     O_R   0.381230 0.319680 0.500010 -0.557936
O6    O     O_R   0.618810 0.319640 0.500000 -0.543894
O7    O     O_R   0.394980 0.500000 0.386410 -0.600462
O8    O     O_R   0.632570 0.499960 0.386400 -0.564961
Cl1   Cl    Cl    0.736498 0.384157 0.733228 -0.495387
Cl2   Cl    Cl    0.827330 0.543380 0.091787 -0.585801
Cl3   Cl    Cl    0.772044 0.134913 0.563795 -0.462843
Cl4   Cl    Cl    0.125187 0.141131 0.549022 -0.428216
Cl5   Cl    Cl    0.121913 0.854452 0.549997 -0.510599
O9    O     O_3   0.880642 0.354000 0.320701 -0.565846
C33   C     C_3   0.869845 0.233652 0.290203 0.051102
H16   H     H_    0.794584 0.177742 0.327417 0.146012
H17   H     H_    0.974280 0.187893 0.285260 0.155829
C34   C     C_3   0.815852 0.238506 0.209825 -0.707229
H18   H     H_    0.885342 0.297862 0.171945 0.286723
H19   H     H_    0.814375 0.144636 0.184118 0.209750
H20   H     H_    0.707355 0.275203 0.213358 0.239764
Cl6   Cl    Cl    0.172783 0.586172 0.902181 -0.513202

loop_
_geom_bond_atom_site_label_1
_geom_bond_atom_site_label_2
_ccdc_geom_bond_type
C10   C27   S    
C25   H8    S    
C34   H20   S    
C33   H17   S    
C8    H14   S    
C9    H11   S    
C29   C30   A    
C2    H13   S    
Cu1   N2    S    
C2    C28   A    
C3    H12   S    
C3    C7    A    
C31   C32   A    
Cu1   O7    S    
C19   Cl5   S    
Cu1   O3    S    
C33   C34   S    
C26   O9    S    
Cu1   O5    S    
C33   H16   S    
Cu2   O4    S    
C27   O8    A    
C13   C14   A    
Cu1   O1    S    
C29   Cl1   S    
C11   C13   A    
C30   C31   A    
C11   C19   S    
C30   H15   S    
C6    C7    A    
C20   C26   S    
C12   C28   S    
Cu2   O6    S    
C23   O6    A    
C22   H5    S    
C6    Cl2   S    
C5    C10   A    
C28   C29   A    
C5    H10   S    
C26   H9    S    
Cu1   Cu2   S    
C16   C23   S    
C21   N1    A    
C34   H18   S    
O9    C33   S    
C25   H6    S    
C17   C18   S    
C5    C6    A    
C20   C24   A    
C1    O1    A    
C12   O3    A    
C18   Cl4   S    
Cu2   N1    S    
C24   N2    A    
C1    C13   S    
C4    H7    S    
C4    C10   A    
C3    C4    A    
C12   O4    A    
C7    C9    S    
C14   H1    S    
Cu2   O8    S    
C24   C25   S    
Cu2   O2    S    
C2    C32   A    
C18   C19   S    
C23   O5    A    
C32   Cl6   S    
C34   H19   S    
C1    O2    A    
C14   C15   A    
C16   C17   A    
C20   N1    A    
C19   H3    S    
C25   C26   S    
C21   C22   A    
C8    C31   S    
C18   H2    S    
C15   Cl3   S    
C22   N2    A    
C11   C17   A    
C21   H4    S    
C15   C16   A    
C8    C9    D    
C27   O7    A    
