data_mof_unit_28923.cif
_audit_creation_date              2012-12-10T18:48:39-0500
_audit_creation_method            fapswitch 2.2
_symmetry_space_group_name_H-M    P1
_symmetry_Int_Tables_number       1
_space_group_crystal_system       triclinic
_cell_length_a                    15.179418
_cell_length_b                    15.176465
_cell_length_c                    9.850305
_cell_angle_alpha                 89.743589
_cell_angle_beta                  89.974162
_cell_angle_gamma                 90.68566
_cell_volume                      2269.02834158

loop_
_atom_site_label
_atom_site_type_symbol
_atom_type_description
_atom_site_fract_x
_atom_site_fract_y
_atom_site_fract_z
_atom_type_partial_charge
C1    C     C_R   0.119839 0.380047 0.500117 0.889987
C2    C     C_R   0.969985 0.428341 0.928670 -0.043812
C3    C     C_R   0.970195 0.428239 0.072388 -0.054297
C4    C     C_R   0.029807 0.571760 0.927612 -0.054262
C5    C     C_R   0.530015 0.071659 0.071330 -0.043812
C6    C     C_R   0.469978 0.928344 0.928670 -0.043729
C7    C     C_R   0.470193 0.928240 0.072388 -0.054262
C8    C     C_R   0.529805 0.071761 0.927612 -0.054297
C9    C     C_R   0.725459 0.339400 0.497866 -0.053350
C10   C     C_R   0.274518 0.660596 0.502591 -0.053299
C11   C     C_R   0.160608 0.774456 0.503197 -0.058096
C12   C     C_R   0.880161 0.619954 0.499883 0.889921
C13   C     C_R   0.839392 0.225568 0.496346 -0.058032
C14   C     C_R   0.185735 0.249429 0.604044 -0.048088
C15   C     C_R   0.814121 0.750432 0.395746 -0.048134
C16   C     C_R   0.750033 0.685600 0.604261 -0.053880
C17   C     C_R   0.250109 0.314544 0.395950 -0.053829
C18   C     C_R   0.225481 0.839404 0.497409 -0.053299
C19   C     C_R   0.774540 0.160600 0.502134 -0.053350
C20   C     C_R   0.660608 0.274431 0.503654 -0.058032
C21   C     C_R   0.339392 0.725544 0.496803 -0.058096
C22   C     C_R   0.685879 0.749568 0.604254 -0.048134
C23   C     C_R   0.880233 0.380344 0.499767 0.892706
C24   C     C_R   0.314265 0.250571 0.395956 -0.048088
C25   C     C_R   0.249891 0.185456 0.604050 -0.053829
C26   C     C_R   0.749967 0.814400 0.395739 -0.053880
C27   C     C_R   0.185977 0.685924 0.501810 -0.129201
C28   C     C_R   0.814008 0.314092 0.498190 -0.129203
C29   C     C_R   0.813817 0.686228 0.499860 -0.123376
C30   C     C_R   0.186183 0.313773 0.500141 -0.123322
C31   C     C_R   0.685992 0.185908 0.501810 -0.129203
C32   C     C_R   0.314023 0.814076 0.498190 -0.129201
C33   C     C_R   0.313817 0.186227 0.499859 -0.123322
C34   C     C_R   0.119746 0.619676 0.500233 0.892691
C35   C     C_R   0.686182 0.813772 0.500140 -0.123376
C36   C     C_1   0.700976 0.431169 0.483946 0.186598
C37   C     C_1   0.298958 0.568839 0.516926 0.186672
C38   C     C_1   0.068901 0.798759 0.517991 0.177319
C39   C     C_1   0.931086 0.201313 0.481139 0.177405
C40   C     C_1   0.117664 0.245759 0.708351 0.237468
C41   C     C_1   0.882039 0.753977 0.291192 0.237773
C42   C     C_1   0.747543 0.617780 0.709609 0.239095
C43   C     C_1   0.252729 0.382517 0.290848 0.238830
C44   C     C_1   0.201042 0.931161 0.483074 0.186672
C45   C     C_R   0.619839 0.880046 0.500117 0.889921
C46   C     C_1   0.799024 0.068831 0.516054 0.186598
C47   C     C_1   0.568914 0.298687 0.518861 0.177405
C48   C     C_1   0.431099 0.701241 0.482008 0.177319
C49   C     C_1   0.617960 0.746023 0.708808 0.237773
C50   C     C_1   0.382336 0.254241 0.291649 0.237468
C51   C     C_1   0.247271 0.117483 0.709152 0.238830
C52   C     C_1   0.752457 0.882220 0.290391 0.239095
C53   C     C_R   0.380161 0.119953 0.499883 0.889987
C54   C     C_R   0.380254 0.880324 0.499767 0.892691
C55   C     C_R   0.619767 0.119655 0.500233 0.892706
C56   C     C_R   0.030022 0.571656 0.071330 -0.043729
H1    H     H_    0.054342 0.628929 0.125019 0.150606
H2    H     H_    0.945675 0.371063 0.874981 0.150625
H3    H     H_    0.946520 0.370662 0.126918 0.142937
H4    H     H_    0.053483 0.629336 0.873082 0.142914
H5    H     H_    0.554325 0.128937 0.125019 0.150625
H6    H     H_    0.445658 0.871071 0.874981 0.150606
H7    H     H_    0.446517 0.870664 0.126918 0.142914
H8    H     H_    0.553479 0.129338 0.873081 0.142937
N1    N     N_R   1.000000 0.500000 0.857200 -0.088803
N2    N     N_1   0.935844 0.757360 0.207989 -0.205860
N3    N     N_1   0.745421 0.564005 0.793317 -0.179594
N4    N     N_1   0.254951 0.436416 0.207335 -0.179619
N5    N     N_1   0.180668 0.003874 0.469734 -0.191279
N6    N     N_1   0.819444 0.996108 0.529066 -0.191329
N7    N     N_1   0.496253 0.318867 0.532875 -0.192519
N8    N     N_1   0.503771 0.681013 0.468320 -0.192549
N9    N     N_1   0.564156 0.742640 0.792011 -0.205860
N10   N     N_1   0.436266 0.257716 0.208646 -0.205824
N11   N     N_1   0.245048 0.063584 0.792665 -0.179619
N12   N     N_R   0.000000 0.500000 0.142800 -0.088811
N13   N     N_1   0.754578 0.935994 0.206682 -0.179594
N14   N     N_R   0.500000 1.000000 0.857200 -0.088811
N15   N     N_R   0.500000 0.000000 0.142800 -0.088803
N16   N     N_1   0.680556 0.503891 0.470934 -0.191329
N17   N     N_1   0.319332 0.496126 0.530266 -0.191279
N18   N     N_1   0.996229 0.818987 0.531680 -0.192549
N19   N     N_1   0.003747 0.181133 0.467125 -0.192519
N20   N     N_1   0.063734 0.242284 0.791354 -0.205824
O1    O     O_R   0.091610 0.408380 0.614620 -0.612906
O2    O     O_R   0.408390 0.091620 0.385380 -0.612906
O3    O     O_R   0.408390 0.091620 0.614620 -0.615379
O4    O     O_R   0.591610 0.908380 0.385380 -0.615437
O5    O     O_R   0.408390 0.908380 0.385380 -0.626128
O6    O     O_R   0.591610 0.091620 0.614620 -0.626124
O7    O     O_R   0.591610 0.091620 0.385380 -0.621749
O8    O     O_R   0.408390 0.908380 0.614620 -0.621754
O9    O     O_R   0.908390 0.591620 0.385380 -0.612955
O10   O     O_R   0.908390 0.591620 0.614620 -0.615437
O11   O     O_R   0.091610 0.408380 0.385380 -0.615379
O12   O     O_R   0.908390 0.408380 0.385380 -0.626124
O13   O     O_R   0.091610 0.591620 0.614620 -0.626127
O14   O     O_R   0.091610 0.591620 0.385380 -0.621754
O15   O     O_R   0.908390 0.408380 0.614620 -0.621749
O16   O     O_R   0.591610 0.908380 0.614620 -0.612955
Zn1   Zn    Zn3+2 1.000000 0.500000 0.653120 0.981490
Zn2   Zn    Zn3+2 0.000000 0.500000 0.346880 0.981493
Zn3   Zn    Zn3+2 0.500000 0.000000 0.653120 0.981493
Zn4   Zn    Zn3+2 0.500000 1.000000 0.346880 0.981490

loop_
_geom_bond_atom_site_label_1
_geom_bond_atom_site_label_2
_ccdc_geom_bond_type
C10   C27   A    
C23   O15   A    
C11   C18   A    
C56   N12   A    
O12   Zn2   S    
C12   C29   S    
C33   C53   S    
C40   N20   T    
N1    Zn1   S    
O7    Zn4   S    
C2    N1    A    
C19   C31   A    
C25   C51   S    
C19   C46   S    
C56   H1    S    
C22   C35   A    
C10   C37   S    
C51   N11   T    
C55   O6    A    
C26   C52   S    
C50   N10   T    
C4    N1    A    
C6    N14   A    
C4    C56   A    
C34   O13   A    
C23   O12   A    
C55   O7    A    
O8    Zn3   S    
O10   Zn1   S    
C43   N4    T    
C9    C36   S    
C13   C28   A    
C53   O2    A    
C5    N15   A    
O11   Zn2   S    
C21   C48   S    
O2    Zn4   S    
C10   C21   A    
C38   N18   T    
C8    N14   A    
C17   C30   A    
C37   N17   T    
C48   N8    T    
C32   C54   S    
O4    Zn4   S    
C15   C29   A    
C27   C34   S    
N12   Zn2   S    
C21   C32   A    
C17   C24   A    
C46   N6    T    
C13   C19   A    
C45   O4    A    
C15   C41   S    
C54   O5    A    
C36   N16   T    
C15   C26   A    
C16   C29   A    
O14   Zn2   S    
C14   C40   S    
O16   Zn3   S    
C11   C38   S    
C17   C43   S    
C54   O8    A    
C18   C44   S    
C9    C20   A    
C11   C27   A    
C1    O11   A    
C47   N7    T    
C4    H4    S    
C5    H5    S    
C44   N5    T    
C53   O3    A    
C23   C28   S    
C3    N12   A    
C24   C50   S    
C7    H7    S    
C6    C7    A    
C8    H8    S    
C22   C49   S    
O3    Zn3   S    
O15   Zn1   S    
O5    Zn4   S    
C42   N3    T    
C49   N9    T    
C12   O9    A    
C1    O1    A    
C18   C32   A    
C52   N13   T    
C35   C45   S    
C16   C42   S    
O1    Zn1   S    
C7    N15   A    
C16   C22   A    
N14   Zn3   S    
C45   O16   A    
O9    Zn2   S    
C5    C8    A    
C2    H2    S    
C41   N2    T    
C24   C33   A    
C6    H6    S    
C2    C3    A    
C14   C30   A    
C12   O10   A    
C1    C30   S    
C34   O14   A    
C14   C25   A    
N15   Zn4   S    
O6    Zn3   S    
C13   C39   S    
C20   C47   S    
C39   N19   T    
C26   C35   A    
C31   C55   S    
O13   Zn1   S    
C9    C28   A    
C25   C33   A    
C20   C31   A    
C3    H3    S    
