data_mof_unit_59661.cif
_audit_creation_date              2012-12-10T18:56:23-0500
_audit_creation_method            fapswitch 2.2
_symmetry_space_group_name_H-M    P1
_symmetry_Int_Tables_number       1
_space_group_crystal_system       triclinic
_cell_length_a                    10.723846
_cell_length_b                    9.981334
_cell_length_c                    19.294266
_cell_angle_alpha                 89.967361
_cell_angle_beta                  93.708492
_cell_angle_gamma                 90.000558
_cell_volume                      2060.90038574

loop_
_atom_site_label
_atom_site_type_symbol
_atom_type_description
_atom_site_fract_x
_atom_site_fract_y
_atom_site_fract_z
_atom_type_partial_charge
C1    C     C_R   0.872441 0.500000 0.500228 -0.007184
C2    C     C_R   0.127558 0.499999 0.499770 -0.007201
C3    C     C_R   0.388475 0.499034 0.959275 -0.185920
C4    C     C_R   0.614262 0.501538 0.040848 -0.192048
C5    C     C_R   0.386728 0.499380 0.031011 -0.193975
C6    C     C_R   0.616024 0.501216 0.969106 -0.189170
C7    C     C_R   0.499628 0.500567 0.071425 0.147815
C8    C     C_R   0.503109 0.499977 0.928701 0.134172
C9    C     C_R   0.260258 0.500000 0.499759 0.857976
C10   C     C_R   0.739742 0.500000 0.500241 0.857987
C11   C     C_R   0.499359 0.500040 0.365918 0.880225
C12   C     C_R   0.500728 0.499955 0.634082 0.880439
C13   C     C_R   0.063858 0.377830 0.499870 -0.197562
C14   C     C_R   0.936141 0.622169 0.500127 -0.197345
C15   C     C_R   0.936139 0.377830 0.500124 -0.197407
C16   C     C_R   0.063861 0.622169 0.499874 -0.197347
C17   C     C_R   0.502828 0.378013 0.745599 -0.214991
C18   C     C_R   0.497483 0.621934 0.254345 -0.202247
C19   C     C_R   0.498111 0.378529 0.254323 -0.202098
C20   C     C_R   0.503999 0.621259 0.745790 -0.202627
C21   C     C_R   0.504004 0.376076 0.817668 0.186108
C22   C     C_R   0.497302 0.623362 0.182249 0.178091
C23   C     C_R   0.497950 0.377375 0.182227 0.178896
C24   C     C_R   0.505115 0.622248 0.817914 0.176231
C25   C     C_R   0.504699 0.499099 0.853774 0.066881
C26   C     C_R   0.497934 0.500440 0.146390 0.058575
C27   C     C_R   0.580433 0.071695 0.544889 0.204045
C28   C     C_R   0.419566 0.928306 0.455113 0.203216
C29   C     C_R   0.419563 0.071784 0.455112 0.203215
C30   C     C_R   0.580446 0.928217 0.544883 0.203817
C31   C     C_R   0.502422 0.499771 0.709563 -0.124668
C32   C     C_R   0.498301 0.500164 0.290453 -0.126874
H1    H     H_    0.112153 0.282496 0.499815 0.161007
H2    H     H_    0.887847 0.717503 0.500182 0.161052
H3    H     H_    0.887841 0.282496 0.500176 0.161068
H4    H     H_    0.112158 0.717503 0.499823 0.161024
H5    H     H_    0.501966 0.283668 0.717759 0.176182
H6    H     H_    0.497306 0.716097 0.282255 0.169757
H7    H     H_    0.498440 0.284268 0.282219 0.169765
H8    H     H_    0.504029 0.715563 0.717944 0.169802
H9    H     H_    0.301323 0.497964 0.927573 0.140380
H10   H     H_    0.701410 0.502402 0.072556 0.137908
H11   H     H_    0.298239 0.498583 0.055107 0.136744
H12   H     H_    0.704511 0.501819 0.945008 0.139392
N1    N     N_R   0.500000 0.857200 0.500000 -0.117856
N2    N     N_R   0.500000 0.142800 0.500000 -0.117882
O1    O     O_R   0.316770 0.614620 0.500000 -0.630756
O2    O     O_R   0.683230 0.385380 0.500000 -0.630761
O3    O     O_R   0.683230 0.614620 0.500000 -0.630783
O4    O     O_R   0.316770 0.385380 0.500000 -0.630863
O5    O     O_R   0.500030 0.614710 0.398180 -0.626390
O6    O     O_R   0.499970 0.385290 0.601820 -0.626521
O7    O     O_R   0.499970 0.614710 0.601820 -0.626403
O8    O     O_R   0.500030 0.385290 0.398180 -0.626334
Zn1   Zn    Zn3+2 0.500000 0.653120 0.500000 0.932262
Zn2   Zn    Zn3+2 0.500000 0.346880 0.500000 0.932129
C33   C     C_3   0.671382 0.142608 0.595678 -0.838767
H13   H     H_    0.667861 0.251008 0.593406 0.288972
H14   H     H_    0.652299 0.115268 0.649728 0.211858
H15   H     H_    0.768732 0.114918 0.585556 0.210582
C34   C     C_3   0.328598 0.857395 0.404334 -0.837735
H16   H     H_    0.332142 0.748995 0.406593 0.288915
H17   H     H_    0.231253 0.885061 0.414482 0.210736
H18   H     H_    0.347636 0.884764 0.350282 0.211791
C35   C     C_3   0.328587 0.142784 0.404327 -0.837462
H19   H     H_    0.332021 0.251179 0.406617 0.288907
H20   H     H_    0.347705 0.115611 0.350276 0.211882
H21   H     H_    0.231249 0.114992 0.414435 0.210664
C36   C     C_3   0.671462 0.857220 0.595646 -0.838073
H22   H     H_    0.667980 0.748824 0.593386 0.288868
H23   H     H_    0.768789 0.884968 0.585489 0.210558
H24   H     H_    0.652438 0.884447 0.649703 0.211846
C37   C     C_3   0.504155 0.241265 0.853296 -0.933903
H25   H     H_    0.418998 0.184726 0.835214 0.243638
H26   H     H_    0.587647 0.183453 0.839758 0.240613
H27   H     H_    0.505992 0.248174 0.910668 0.255853
C38   C     C_3   0.496689 0.755684 0.144349 -0.915322
H28   H     H_    0.495905 0.841969 0.180670 0.233816
H29   H     H_    0.581395 0.763993 0.114450 0.247974
H30   H     H_    0.412252 0.762733 0.108078 0.246427
C39   C     C_3   0.498133 0.245185 0.144306 -0.917571
H31   H     H_    0.498014 0.158767 0.180618 0.234377
H32   H     H_    0.413670 0.237596 0.108093 0.246251
H33   H     H_    0.582815 0.237643 0.114341 0.247801
C40   C     C_3   0.506259 0.754535 0.855835 -0.916023
H34   H     H_    0.506500 0.840925 0.819507 0.235151
H35   H     H_    0.422028 0.762791 0.886125 0.248163
H36   H     H_    0.591181 0.761559 0.891735 0.246267

loop_
_geom_bond_atom_site_label_1
_geom_bond_atom_site_label_2
_ccdc_geom_bond_type
C36   H24   S    
C37   H25   S    
C30   N1    A    
C39   H33   S    
C39   H31   S    
C40   H34   S    
C7    C26   S    
C28   C29   A    
C20   H8    S    
C40   H36   S    
C21   C37   S    
C34   H17   S    
C23   C26   A    
C36   H23   S    
C2    C13   A    
C12   O6    A    
C20   C24   A    
C35   H20   S    
C1    C15   A    
C2    C16   A    
C24   C40   S    
C12   O7    A    
C38   H28   S    
C28   C34   S    
C38   H29   S    
C5    H11   S    
C6    H12   S    
C27   C30   A    
C8    C25   S    
C37   H26   S    
C34   H16   S    
C4    C7    A    
C19   C32   A    
C15   H3    S    
C39   H32   S    
C40   H35   S    
O8    Zn2   S    
C28   N1    A    
C9    O4    A    
C24   C25   A    
C4    C6    A    
C3    C8    A    
C27   C33   S    
C5    C7    A    
C33   H15   S    
C6    C8    A    
O3    Zn1   S    
O4    Zn2   S    
C34   H18   S    
C19   C23   A    
C13   H1    S    
C35   H21   S    
C17   H5    S    
C11   O8    A    
C19   H7    S    
C29   C35   S    
C27   N2    A    
C11   C32   S    
C9    O1    A    
C13   C15   A    
C12   C31   S    
C10   O2    A    
C17   C31   A    
C37   H27   S    
C14   C16   A    
C33   H14   S    
C18   C32   A    
O7    Zn1   S    
C30   C36   S    
O1    Zn1   S    
C38   H30   S    
O2    Zn2   S    
C21   C25   A    
C3    H9    S    
C23   C39   S    
C18   C22   A    
C1    C10   S    
C22   C38   S    
C3    C5    A    
C14   H2    S    
C29   N2    A    
C18   H6    S    
C16   H4    S    
C10   O3    A    
C33   H13   S    
C4    H10   S    
O5    Zn1   S    
C36   H22   S    
C17   C21   A    
C11   O5    A    
N1    Zn1   S    
C35   H19   S    
C22   C26   A    
N2    Zn2   S    
C1    C14   A    
C2    C9    S    
O6    Zn2   S    
C20   C31   A    
