data_mof_unit_48558.cif
_audit_creation_date              2012-12-10T17:07:44-0500
_audit_creation_method            fapswitch 2.2
_symmetry_space_group_name_H-M    P1
_symmetry_Int_Tables_number       1
_space_group_crystal_system       triclinic
_cell_length_a                    19.348698
_cell_length_b                    11.026121
_cell_length_c                    9.968315
_cell_angle_alpha                 111.050115
_cell_angle_beta                  99.017214
_cell_angle_gamma                 91.389812
_cell_volume                      1952.70447047

loop_
_atom_site_label
_atom_site_type_symbol
_atom_type_description
_atom_site_fract_x
_atom_site_fract_y
_atom_site_fract_z
_atom_type_partial_charge
C1    C     C_R   0.495192 0.254478 0.440976 0.864300
C2    C     C_R   0.505713 0.745639 0.559226 0.871367
C3    C     C_2   0.491803 0.115033 0.408893 -0.344419
C4    C     C_2   0.511402 0.885383 0.592215 -0.341156
C5    C     C_2   0.509533 0.069764 0.515667 -0.119055
C6    C     C_2   0.502991 0.930469 0.483767 -0.141926
C7    C     C_2   0.508371 0.506344 0.080042 -0.032689
C8    C     C_2   0.497323 0.483014 0.917343 -0.038729
C9    C     C_R   0.367644 0.499371 0.500069 0.788083
C10   C     C_R   0.632346 0.499721 0.499832 0.788722
C11   C     C_R   0.265892 0.519220 0.630246 -0.174851
C12   C     C_R   0.733929 0.465695 0.367901 -0.167635
C13   C     C_R   0.193833 0.517562 0.630060 -0.162067
C14   C     C_R   0.805906 0.464340 0.367842 -0.160627
C15   C     C_R   0.146204 0.494220 0.499849 0.059916
C16   C     C_R   0.853648 0.495351 0.499439 0.055831
C17   C     C_R   0.172063 0.472291 0.369829 -0.159566
C18   C     C_R   0.827952 0.527723 0.631065 -0.155770
C19   C     C_R   0.244066 0.474148 0.370153 -0.186659
C20   C     C_R   0.755989 0.529267 0.631128 -0.185877
C21   C     C_R   0.291632 0.497731 0.500229 -0.028110
C22   C     C_R   0.708328 0.498422 0.499572 -0.023905
C23   C     C_R   0.929803 0.494223 0.499462 0.413756
C24   C     C_R   0.070015 0.493523 0.499672 0.411864
Cu1   Cu    Cu3+1 0.512140 0.521810 0.644910 0.949882
Cu2   Cu    Cu3+1 0.487860 0.478190 0.355090 0.944472
H1    H     H_    0.301363 0.537620 0.732282 0.152779
H2    H     H_    0.698423 0.440487 0.264627 0.155040
H3    H     H_    0.175525 0.534727 0.731992 0.143474
H4    H     H_    0.824011 0.438669 0.264506 0.152474
H5    H     H_    0.136791 0.454029 0.267612 0.154285
H6    H     H_    0.863361 0.552217 0.734343 0.154681
H7    H     H_    0.262411 0.457107 0.268454 0.175918
H8    H     H_    0.737800 0.554977 0.734414 0.148539
H9    H     H_    0.490450 0.864434 0.370160 0.184811
H10   H     H_    0.528150 0.135543 0.627714 0.182288
H11   H     H_    0.523088 0.951772 0.705671 0.156845
H12   H     H_    0.473125 0.048742 0.297883 0.142536
N1    N     N_R   0.023786 0.467737 0.373454 -0.240681
N2    N     N_R   0.976026 0.519855 0.625672 -0.241159
N3    N     N_R   0.955058 0.468029 0.373337 -0.240884
N4    N     N_R   0.044760 0.519484 0.625776 -0.243882
N5    N     N_2   0.469620 0.445420 0.137370 -0.252744
N6    N     N_2   0.530380 0.554580 0.862630 -0.254136
O1    O     O_R   0.506480 0.332340 0.577400 -0.569983
O2    O     O_R   0.493520 0.667660 0.422600 -0.579341
O3    O     O_R   0.485980 0.295500 0.332650 -0.595979
O4    O     O_R   0.514020 0.704500 0.667350 -0.573911
O5    O     O_R   0.410390 0.518410 0.622410 -0.586816
O6    O     O_R   0.589610 0.481590 0.377590 -0.577704
O7    O     O_R   0.389900 0.481570 0.377660 -0.582112
O8    O     O_R   0.610100 0.518430 0.622340 -0.587791
C25   C     C_1   0.453705 0.367840 0.818104 0.337180
N7    N     N_1   0.417703 0.275977 0.740830 -0.301635
C26   C     C_1   0.569504 0.589359 0.172594 0.329839
N8    N     N_1   0.618341 0.657151 0.245717 -0.308715
C27   C     C_R   0.545829 0.690207 0.945166 0.303864
C28   C     C_R   0.614950 0.746290 0.973436 -0.116556
C29   C     C_R   0.629259 0.881896 0.035117 -0.151726
C30   C     C_R   0.574309 0.962233 0.063392 -0.113893
C31   C     C_R   0.505087 0.906947 0.030942 -0.184780
C32   C     C_R   0.490852 0.771514 0.974219 -0.145925
H13   H     H_    0.657410 0.684814 0.946347 0.120625
H14   H     H_    0.682742 0.924757 0.057938 0.139012
H15   H     H_    0.585217 0.067247 0.108217 0.137063
H16   H     H_    0.462251 0.968932 0.047049 0.126702
H17   H     H_    0.436895 0.729758 0.946135 0.115055
C33   C     C_R   0.397858 0.404258 0.072283 0.316001
C34   C     C_R   0.371768 0.275861 0.043020 -0.123218
C35   C     C_R   0.301043 0.235070 0.982416 -0.165108
C36   C     C_R   0.255784 0.322714 0.952608 -0.105692
C37   C     C_R   0.281008 0.451694 0.984746 -0.184869
C38   C     C_R   0.351640 0.492921 0.045447 -0.186307
H18   H     H_    0.406440 0.207077 0.065019 0.128337
H19   H     H_    0.281320 0.135500 0.958578 0.139003
H20   H     H_    0.201046 0.291032 0.905875 0.141152
H21   H     H_    0.245730 0.519998 0.963753 0.136647
H22   H     H_    0.370487 0.593400 0.071389 0.116243

loop_
_geom_bond_atom_site_label_1
_geom_bond_atom_site_label_2
_ccdc_geom_bond_type
C26   N8    T    
C24   N4    A    
C9    O7    A    
C7    C26   S    
C10   O8    A    
C7    C8    S    
N1    N3    A    
C25   N7    T    
C10   C22   S    
C29   H14   S    
C32   H17   S    
C12   H2    S    
C13   H3    S    
C19   C21   A    
Cu2   O6    S    
C5    C6    S    
C23   N2    A    
C5    H10   S    
C12   C22   A    
C24   N1    A    
C6    H9    S    
C33   C34   A    
C31   H16   S    
C3    H12   S    
N5    C33   S    
C38   H22   S    
C35   C36   A    
C7    N5    D    
C20   H8    S    
N2    N4    A    
C29   C30   A    
C34   C35   A    
C14   H4    S    
Cu1   N6    S    
Cu1   Cu2   S    
Cu2   N5    S    
C27   C32   A    
C9    O5    A    
C4    C6    D    
C19   H7    S    
C1    O3    A    
C2    O4    A    
C33   C38   A    
C11   C21   A    
C2    O2    A    
C30   C31   A    
C1    C3    S    
C2    C4    S    
C37   H21   S    
C11   H1    S    
N6    C27   S    
C34   H18   S    
Cu1   O4    S    
Cu2   O3    S    
C15   C24   S    
C20   C22   A    
C30   H15   S    
C16   C23   S    
C13   C15   A    
C17   H5    S    
C14   C16   A    
C18   H6    S    
C10   O6    A    
Cu1   O1    S    
C28   H13   S    
C15   C17   A    
C8    N6    D    
C12   C14   A    
C37   C38   A    
C3    C5    D    
C8    C25   S    
C23   N3    A    
C28   C29   A    
Cu1   O8    S    
C36   C37   A    
C1    O1    A    
Cu2   O7    S    
C11   C13   A    
C9    C21   S    
C27   C28   A    
C36   H20   S    
C17   C19   A    
C18   C20   A    
C31   C32   A    
Cu1   O5    S    
Cu2   O2    S    
C4    H11   S    
C16   C18   A    
C35   H19   S    
