data_mof_unit_64394.cif
_audit_creation_date              2012-12-10T18:10:42-0500
_audit_creation_method            fapswitch 2.2
_symmetry_space_group_name_H-M    P1
_symmetry_Int_Tables_number       1
_space_group_crystal_system       triclinic
_cell_length_a                    18.36688
_cell_length_b                    18.36688
_cell_length_c                    47.267425
_cell_angle_alpha                 89.999985
_cell_angle_beta                  89.999976
_cell_angle_gamma                 90.0
_cell_volume                      15945.3009634

loop_
_atom_site_label
_atom_site_type_symbol
_atom_type_description
_atom_site_fract_x
_atom_site_fract_y
_atom_site_fract_z
_atom_type_partial_charge
C1    C     C_R   0.000000 0.860158 0.000000 0.841007
C2    C     C_R   0.139842 0.000000 1.000000 0.841007
C3    C     C_R   0.000000 0.139842 1.000000 0.841007
C4    C     C_R   0.860158 0.000000 0.000000 0.841007
C5    C     C_R   0.500000 0.360158 0.500000 0.841007
C6    C     C_R   0.639842 0.500000 0.500000 0.841007
C7    C     C_R   0.500000 0.639842 0.500000 0.841007
C8    C     C_R   0.360158 0.500000 0.500000 0.841007
C9    C     C_R   0.438798 0.027219 0.869353 -0.066060
C10   C     C_R   0.972778 0.438799 0.869353 -0.066061
C11   C     C_R   0.561202 0.972781 0.869353 -0.066059
C12   C     C_R   0.027222 0.561201 0.869353 -0.066060
C13   C     C_R   0.438798 0.972781 0.130646 -0.066058
C14   C     C_R   0.972780 0.561201 0.130647 -0.066060
C15   C     C_R   0.561202 0.027219 0.130646 -0.066058
C16   C     C_R   0.027220 0.438798 0.130646 -0.066059
C17   C     C_R   0.938799 0.527220 0.369353 -0.066060
C18   C     C_R   0.472781 0.938798 0.369353 -0.066058
C19   C     C_R   0.061202 0.472779 0.369353 -0.066058
C20   C     C_R   0.527220 0.061202 0.369353 -0.066059
C21   C     C_R   0.938798 0.472780 0.630647 -0.066059
C22   C     C_R   0.472778 0.061201 0.630647 -0.066058
C23   C     C_R   0.061202 0.527219 0.630646 -0.066060
C24   C     C_R   0.527222 0.938799 0.630646 -0.066060
C25   C     C_R   0.437657 0.024209 0.899272 -0.121137
C26   C     C_R   0.975789 0.437658 0.899272 -0.121137
C27   C     C_R   0.562342 0.975791 0.899272 -0.121137
C28   C     C_R   0.024211 0.562342 0.899272 -0.121137
C29   C     C_R   0.437657 0.975791 0.100728 -0.121136
C30   C     C_R   0.975790 0.562342 0.100728 -0.121136
C31   C     C_R   0.562343 0.024209 0.100728 -0.121137
C32   C     C_R   0.024209 0.437657 0.100728 -0.121137
C33   C     C_R   0.937658 0.524210 0.399272 -0.121136
C34   C     C_R   0.475791 0.937658 0.399272 -0.121136
C35   C     C_R   0.062342 0.475790 0.399272 -0.121136
C36   C     C_R   0.524209 0.062343 0.399272 -0.121137
C37   C     C_R   0.937657 0.475791 0.600728 -0.121137
C38   C     C_R   0.475789 0.062342 0.600728 -0.121136
C39   C     C_R   0.062343 0.524209 0.600728 -0.121136
C40   C     C_R   0.524211 0.937658 0.600728 -0.121136
C41   C     C_R   0.500000 0.000000 0.914228 -0.065575
C42   C     C_R   0.000000 0.500000 0.914228 -0.065577
C43   C     C_R   0.500000 1.000000 0.085772 -0.065575
C44   C     C_R   1.000000 0.500000 0.085772 -0.065575
C45   C     C_R   0.000000 0.500000 0.414228 -0.065575
C46   C     C_R   0.500000 0.000000 0.414228 -0.065576
C47   C     C_R   0.000000 0.500000 0.585772 -0.065575
C48   C     C_R   0.500000 1.000000 0.585772 -0.065577
C49   C     C_R   0.500000 0.000000 0.854437 0.316798
C50   C     C_R   0.000000 0.500000 0.854437 0.316799
C51   C     C_R   0.500000 1.000000 0.145563 0.316798
C52   C     C_R   0.000000 0.500000 0.145563 0.316799
C53   C     C_R   0.000000 0.500000 0.354437 0.316798
C54   C     C_R   0.500000 0.000000 0.354437 0.316798
C55   C     C_R   0.000000 0.500000 0.645563 0.316798
C56   C     C_R   0.500000 1.000000 0.645563 0.316798
C57   C     C_1   0.782642 0.000000 0.000000 -0.150583
C58   C     C_1   0.000000 0.782642 0.000000 -0.150583
C59   C     C_1   0.217358 0.000000 1.000000 -0.150583
C60   C     C_1   1.000000 0.217358 1.000000 -0.150583
C61   C     C_1   0.282642 0.500000 0.500000 -0.150583
C62   C     C_1   0.500000 0.282642 0.500000 -0.150583
C63   C     C_1   0.717358 0.500000 0.500000 -0.150583
C64   C     C_1   0.500000 0.717358 0.500000 -0.150583
C65   C     C_1   0.717360 0.000000 0.000000 -0.118910
C66   C     C_1   0.000000 0.717360 0.000000 -0.118912
C67   C     C_1   0.282639 0.000000 1.000000 -0.118910
C68   C     C_1   1.000000 0.282639 1.000000 -0.118912
C69   C     C_1   0.217360 0.500000 0.500000 -0.118911
C70   C     C_1   0.500000 0.217360 0.500000 -0.118912
C71   C     C_1   0.782640 0.500000 0.500000 -0.118911
C72   C     C_1   0.500000 0.782640 0.500000 -0.118912
C73   C     C_R   0.500000 0.000000 0.945520 0.866684
C74   C     C_R   0.000000 0.500000 0.945520 0.866677
C75   C     C_R   0.500000 0.000000 0.054480 0.866684
C76   C     C_R   1.000000 0.500000 0.054480 0.866682
C77   C     C_R   0.000000 0.500000 0.445520 0.866682
C78   C     C_R   0.500000 1.000000 0.445520 0.866684
C79   C     C_R   0.000000 0.500000 0.554480 0.866684
C80   C     C_R   0.500000 1.000000 0.554480 0.866676
C81   C     C_R   0.639863 0.000000 0.000000 0.861799
C82   C     C_R   0.000000 0.639863 1.000000 0.861795
C83   C     C_R   0.360137 0.000000 1.000000 0.861800
C84   C     C_R   1.000000 0.360137 1.000000 0.861796
C85   C     C_R   0.139863 0.500000 0.500000 0.861798
C86   C     C_R   0.500000 0.139863 0.500000 0.861795
C87   C     C_R   0.860137 0.500000 0.500000 0.861798
C88   C     C_R   0.500000 0.860137 0.500000 0.861796
C89   C     C_R   0.952202 0.455846 0.190404 0.640393
C90   C     C_R   0.544153 0.952201 0.190404 0.640390
C91   C     C_R   0.047799 0.544153 0.190404 0.640395
C92   C     C_R   0.455846 0.047799 0.190404 0.640389
C93   C     C_R   0.952203 0.544155 0.809596 0.640391
C94   C     C_R   0.544153 0.047799 0.809596 0.640391
C95   C     C_R   0.047798 0.455845 0.809596 0.640398
C96   C     C_R   0.455846 0.952201 0.809596 0.640396
C97   C     C_R   0.452202 0.955845 0.690404 0.640398
C98   C     C_R   0.044154 0.452201 0.690404 0.640392
C99   C     C_R   0.547797 0.044155 0.690404 0.640388
C100  C     C_R   0.955847 0.547799 0.690404 0.640394
C101  C     C_R   0.452201 0.044154 0.309596 0.640395
C102  C     C_R   0.044155 0.547798 0.309596 0.640390
C103  C     C_R   0.547798 0.955846 0.309596 0.640385
C104  C     C_R   0.955846 0.452201 0.309596 0.640394
C105  C     C_R   0.047770 0.546093 0.220126 -0.016334
C106  C     C_R   0.453906 0.047770 0.220126 -0.016334
C107  C     C_R   0.952230 0.453906 0.220126 -0.016334
C108  C     C_R   0.546093 0.952230 0.220126 -0.016334
C109  C     C_R   0.047769 0.453905 0.779874 -0.016335
C110  C     C_R   0.453907 0.952229 0.779874 -0.016334
C111  C     C_R   0.952231 0.546095 0.779874 -0.016334
C112  C     C_R   0.546092 0.047771 0.779874 -0.016334
C113  C     C_R   0.547768 0.046095 0.720126 -0.016334
C114  C     C_R   0.953907 0.547771 0.720126 -0.016334
C115  C     C_R   0.452231 0.953905 0.720126 -0.016335
C116  C     C_R   0.046093 0.452230 0.720126 -0.016334
C117  C     C_R   0.547769 0.953906 0.279874 -0.016334
C118  C     C_R   0.953906 0.452230 0.279874 -0.016334
C119  C     C_R   0.452230 0.046094 0.279874 -0.016335
C120  C     C_R   0.046095 0.547769 0.279874 -0.016334
C121  C     C_R   0.000000 0.499999 0.235043 -0.003669
C122  C     C_R   0.500000 1.000000 0.235043 -0.003669
C123  C     C_R   0.000000 0.500000 0.764957 -0.003669
C124  C     C_R   0.499999 0.000000 0.764957 -0.003668
C125  C     C_R   0.500000 0.000000 0.735043 -0.003669
C126  C     C_R   0.000000 0.500000 0.735043 -0.003669
C127  C     C_R   0.500000 0.000000 0.264957 -0.003669
C128  C     C_R   0.000001 0.499999 0.264957 -0.003669
C129  C     C_R   0.094173 0.592896 0.235231 -0.135704
C130  C     C_R   0.407103 0.094173 0.235231 -0.135705
C131  C     C_R   0.905828 0.407103 0.235231 -0.135705
C132  C     C_R   0.592896 0.905827 0.235231 -0.135705
C133  C     C_R   0.094171 0.407101 0.764769 -0.135704
C134  C     C_R   0.407104 0.905826 0.764769 -0.135704
C135  C     C_R   0.905830 0.592899 0.764769 -0.135705
C136  C     C_R   0.592894 0.094174 0.764769 -0.135705
C137  C     C_R   0.594170 0.092899 0.735231 -0.135705
C138  C     C_R   0.907105 0.594174 0.735231 -0.135704
C139  C     C_R   0.405829 0.907101 0.735231 -0.135704
C140  C     C_R   0.092896 0.405826 0.735231 -0.135704
C141  C     C_R   0.594171 0.907103 0.264769 -0.135705
C142  C     C_R   0.907103 0.405828 0.264769 -0.135705
C143  C     C_R   0.405828 0.092897 0.264769 -0.135704
C144  C     C_R   0.092898 0.594171 0.264769 -0.135705
Cu1   Cu    Cu3+1 0.000000 0.000000 0.028150 1.001251
Cu2   Cu    Cu3+1 0.000000 0.000000 0.971850 1.001251
Cu3   Cu    Cu3+1 0.500000 0.500000 0.528150 1.001250
Cu4   Cu    Cu3+1 0.500000 0.500000 0.471850 1.001251
Cu5   Cu    Cu3+1 0.500000 0.072590 0.000000 1.090864
Cu6   Cu    Cu3+1 0.927410 0.500000 0.000000 1.090865
Cu7   Cu    Cu3+1 0.500000 0.927410 0.000000 1.090864
Cu8   Cu    Cu3+1 0.072590 0.500000 0.000000 1.090865
Cu9   Cu    Cu3+1 0.000000 0.572590 0.500000 1.090864
Cu10  Cu    Cu3+1 0.427410 0.000000 0.500000 1.090866
Cu11  Cu    Cu3+1 0.000000 0.427410 0.500000 1.090865
Cu12  Cu    Cu3+1 0.572590 0.000000 0.500000 1.090865
H1    H     H_    0.131263 0.629061 0.224284 0.195956
H2    H     H_    0.370937 0.131262 0.224284 0.195956
H3    H     H_    0.868738 0.370937 0.224284 0.195956
H4    H     H_    0.629062 0.868738 0.224284 0.195956
H5    H     H_    0.131260 0.370935 0.775716 0.195956
H6    H     H_    0.370939 0.868736 0.775716 0.195955
H7    H     H_    0.868741 0.629066 0.775716 0.195956
H8    H     H_    0.629060 0.131265 0.775716 0.195956
H9    H     H_    0.631259 0.129066 0.724284 0.195956
H10   H     H_    0.870940 0.631264 0.724284 0.195956
H11   H     H_    0.368741 0.870934 0.724284 0.195955
H12   H     H_    0.129061 0.368736 0.724284 0.195956
H13   H     H_    0.631261 0.870937 0.275716 0.195956
H14   H     H_    0.870937 0.368738 0.275716 0.195956
H15   H     H_    0.368739 0.129063 0.275716 0.195956
H16   H     H_    0.129064 0.631260 0.275716 0.195956
N1    N     N_R   0.000000 0.499999 0.176149 -0.420277
N2    N     N_R   0.500000 1.000000 0.176149 -0.420278
N3    N     N_R   0.000000 0.500000 0.823851 -0.420276
N4    N     N_R   0.499999 0.000000 0.823851 -0.420277
N5    N     N_R   0.500000 1.000000 0.676149 -0.420277
N6    N     N_R   0.000000 0.500000 0.676149 -0.420277
N7    N     N_R   0.500000 0.000000 0.323851 -0.420278
N8    N     N_R   0.000000 0.499999 0.323851 -0.420278
O1    O     O_R   0.999960 0.894270 0.023780 -0.579278
O2    O     O_R   0.105730 0.999960 0.023780 -0.579278
O3    O     O_R   0.000040 0.105730 0.023780 -0.579278
O4    O     O_R   0.894270 0.000040 0.023780 -0.579278
O5    O     O_R   0.999960 0.105730 0.976220 -0.579277
O6    O     O_R   0.105730 0.000040 0.976220 -0.579277
O7    O     O_R   0.000040 0.894270 0.976220 -0.579277
O8    O     O_R   0.894270 0.999960 0.976220 -0.579277
O9    O     O_R   0.499960 0.394270 0.523780 -0.579278
O10   O     O_R   0.605730 0.499960 0.523780 -0.579278
O11   O     O_R   0.500040 0.605730 0.523780 -0.579278
O12   O     O_R   0.394270 0.500040 0.523780 -0.579278
O13   O     O_R   0.499960 0.605730 0.476220 -0.579277
O14   O     O_R   0.605730 0.500040 0.476220 -0.579277
O15   O     O_R   0.500040 0.394270 0.476220 -0.579277
O16   O     O_R   0.394270 0.499960 0.476220 -0.579277
O17   O     O_R   0.500020 0.061320 0.958950 -0.550443
O18   O     O_R   0.938680 0.500020 0.958950 -0.550440
O19   O     O_R   0.499980 0.938680 0.958950 -0.550443
O20   O     O_R   0.061320 0.499980 0.958950 -0.550440
O21   O     O_R   0.500020 0.938680 0.041050 -0.550443
O22   O     O_R   0.938680 0.499980 0.041050 -0.550443
O23   O     O_R   0.499980 0.061320 0.041050 -0.550443
O24   O     O_R   0.061320 0.500020 0.041050 -0.550442
O25   O     O_R   0.000020 0.561320 0.458950 -0.550442
O26   O     O_R   0.438680 0.000020 0.458950 -0.550442
O27   O     O_R   0.999980 0.438680 0.458950 -0.550442
O28   O     O_R   0.561320 0.999980 0.458950 -0.550443
O29   O     O_R   0.000020 0.438680 0.541050 -0.550443
O30   O     O_R   0.438680 0.999980 0.541050 -0.550441
O31   O     O_R   0.999980 0.561320 0.541050 -0.550443
O32   O     O_R   0.561320 0.000020 0.541050 -0.550441
O33   O     O_R   0.605800 0.061300 0.000010 -0.564182
O34   O     O_R   0.938700 0.605800 0.000010 -0.564181
O35   O     O_R   0.394200 0.938700 0.000010 -0.564181
O36   O     O_R   0.061300 0.394200 0.000010 -0.564181
O37   O     O_R   0.605800 0.938700 0.999990 -0.564181
O38   O     O_R   0.938700 0.394200 0.999990 -0.564181
O39   O     O_R   0.394200 0.061300 0.999990 -0.564181
O40   O     O_R   0.061300 0.605800 0.999990 -0.564182
O41   O     O_R   0.105800 0.561300 0.500010 -0.564181
O42   O     O_R   0.438700 0.105800 0.500010 -0.564181
O43   O     O_R   0.894200 0.438700 0.500010 -0.564181
O44   O     O_R   0.561300 0.894200 0.500010 -0.564181
O45   O     O_R   0.105800 0.438700 0.499990 -0.564181
O46   O     O_R   0.438700 0.894200 0.499990 -0.564180
O47   O     O_R   0.894200 0.561300 0.499990 -0.564182
O48   O     O_R   0.561300 0.105800 0.499990 -0.564181
O49   O     O_2   0.904988 0.413889 0.175829 -0.529123
O50   O     O_2   0.586110 0.904987 0.175829 -0.529124
O51   O     O_2   0.095013 0.586110 0.175829 -0.529122
O52   O     O_2   0.413889 0.095012 0.175829 -0.529123
O53   O     O_2   0.904990 0.586113 0.824171 -0.529124
O54   O     O_2   0.586109 0.095014 0.824171 -0.529124
O55   O     O_2   0.095010 0.413887 0.824171 -0.529122
O56   O     O_2   0.413890 0.904986 0.824171 -0.529122
O57   O     O_2   0.404990 0.913887 0.675829 -0.529121
O58   O     O_2   0.086110 0.404987 0.675829 -0.529123
O59   O     O_2   0.595010 0.086113 0.675829 -0.529124
O60   O     O_2   0.913891 0.595013 0.675829 -0.529123
O61   O     O_2   0.404988 0.086111 0.324171 -0.529122
O62   O     O_2   0.086112 0.595011 0.324171 -0.529123
O63   O     O_2   0.595012 0.913889 0.324171 -0.529125
O64   O     O_2   0.913889 0.404988 0.324171 -0.529123
C145  C     C_2   0.376719 0.061477 0.853804 0.440126
H17   H     H_    0.322771 0.063396 0.863017 0.061197
O65   O     O_2   0.385397 0.090383 0.830792 -0.521008
C146  C     C_2   0.938518 0.376722 0.853804 0.440125
H18   H     H_    0.936594 0.322775 0.863018 0.061198
O66   O     O_2   0.909613 0.385401 0.830792 -0.521008
C147  C     C_2   0.623281 0.938524 0.853804 0.440124
H19   H     H_    0.677228 0.936607 0.863017 0.061196
O67   O     O_2   0.614601 0.909615 0.830792 -0.521006
C148  C     C_2   0.061481 0.623278 0.853804 0.440126
H20   H     H_    0.063402 0.677226 0.863017 0.061197
O68   O     O_2   0.090389 0.614598 0.830792 -0.521008
C149  C     C_2   0.376718 0.938524 0.146196 0.440125
H21   H     H_    0.322770 0.936609 0.136983 0.061194
O69   O     O_2   0.385398 0.909614 0.169207 -0.521004
C150  C     C_2   0.938522 0.623280 0.146196 0.440125
H22   H     H_    0.936602 0.677226 0.136983 0.061197
O70   O     O_2   0.909615 0.614600 0.169208 -0.521008
C151  C     C_2   0.623281 0.061476 0.146196 0.440126
H23   H     H_    0.677229 0.063391 0.136983 0.061195
O71   O     O_2   0.614601 0.090386 0.169207 -0.521005
C152  C     C_2   0.061478 0.376719 0.146196 0.440125
H24   H     H_    0.063397 0.322772 0.136983 0.061197
O72   O     O_2   0.090386 0.385399 0.169208 -0.521007
C153  C     C_2   0.876721 0.561478 0.353804 0.440126
H25   H     H_    0.822773 0.563398 0.363017 0.061197
O73   O     O_2   0.885400 0.590386 0.330792 -0.521007
C154  C     C_2   0.438524 0.876720 0.353804 0.440126
H26   H     H_    0.436610 0.822771 0.363016 0.061194
O74   O     O_2   0.409611 0.885401 0.330793 -0.521003
C155  C     C_2   0.123280 0.438521 0.353804 0.440125
H27   H     H_    0.177228 0.436603 0.363017 0.061196
O75   O     O_2   0.114600 0.409611 0.330793 -0.521005
C156  C     C_2   0.561477 0.123281 0.353804 0.440127
H28   H     H_    0.563395 0.177228 0.363017 0.061196
O76   O     O_2   0.590385 0.114601 0.330792 -0.521006
C157  C     C_2   0.876719 0.438523 0.646196 0.440127
H29   H     H_    0.822772 0.436605 0.636983 0.061196
O77   O     O_2   0.885398 0.409616 0.669208 -0.521008
C158  C     C_2   0.438519 0.123278 0.646196 0.440126
H30   H     H_    0.436601 0.177227 0.636983 0.061195
O78   O     O_2   0.409609 0.114597 0.669207 -0.521006
C159  C     C_2   0.123281 0.561476 0.646196 0.440126
H31   H     H_    0.177228 0.563394 0.636983 0.061196
O79   O     O_2   0.114602 0.590385 0.669207 -0.521007
C160  C     C_2   0.561482 0.876721 0.646196 0.440125
H32   H     H_    0.563405 0.822775 0.636982 0.061198
O80   O     O_2   0.590387 0.885401 0.669208 -0.521008
C161  C     C_2   0.370163 0.045030 0.914708 0.319526
H33   H     H_    0.318252 0.022000 0.908413 0.069224
O81   O     O_2   0.371491 0.089422 0.933899 -0.502536
C162  C     C_2   0.954966 0.370165 0.914708 0.319525
H34   H     H_    0.977994 0.318253 0.908413 0.069224
O82   O     O_2   0.910573 0.371494 0.933899 -0.502533
C163  C     C_2   0.629836 0.954970 0.914708 0.319528
H35   H     H_    0.681747 0.978000 0.908412 0.069223
O83   O     O_2   0.628508 0.910578 0.933899 -0.502535
C164  C     C_2   0.045035 0.629835 0.914708 0.319527
H36   H     H_    0.022006 0.681747 0.908412 0.069223
O84   O     O_2   0.089427 0.628506 0.933899 -0.502532
C165  C     C_2   0.370163 0.954970 0.085292 0.319528
H37   H     H_    0.318252 0.978000 0.091587 0.069223
O85   O     O_2   0.371491 0.910578 0.066101 -0.502535
C166  C     C_2   0.954968 0.629836 0.085292 0.319525
H38   H     H_    0.977998 0.681747 0.091588 0.069224
O86   O     O_2   0.910576 0.628507 0.066101 -0.502534
C167  C     C_2   0.629837 0.045030 0.085292 0.319530
H39   H     H_    0.681748 0.022001 0.091588 0.069223
O87   O     O_2   0.628509 0.089422 0.066101 -0.502537
C168  C     C_2   0.045032 0.370164 0.085292 0.319526
H40   H     H_    0.022002 0.318252 0.091587 0.069223
O88   O     O_2   0.089424 0.371492 0.066101 -0.502534
C169  C     C_2   0.870164 0.545032 0.414708 0.319527
H41   H     H_    0.818253 0.522003 0.408412 0.069223
O89   O     O_2   0.871493 0.589424 0.433899 -0.502534
C170  C     C_2   0.454969 0.870164 0.414708 0.319531
H42   H     H_    0.477998 0.818252 0.408412 0.069222
O90   O     O_2   0.410577 0.871492 0.433899 -0.502534
C171  C     C_2   0.129836 0.454968 0.414708 0.319527
H43   H     H_    0.181747 0.477997 0.408413 0.069223
O91   O     O_2   0.128507 0.410576 0.433899 -0.502533
C172  C     C_2   0.545031 0.129836 0.414708 0.319530
H44   H     H_    0.522001 0.181748 0.408413 0.069223
O92   O     O_2   0.589423 0.128508 0.433899 -0.502536
C173  C     C_2   0.870164 0.454970 0.585292 0.319526
H45   H     H_    0.818252 0.478000 0.591587 0.069224
O93   O     O_2   0.871492 0.410578 0.566101 -0.502536
C174  C     C_2   0.454965 0.129835 0.585292 0.319529
H46   H     H_    0.477994 0.181747 0.591587 0.069222
O94   O     O_2   0.410573 0.128506 0.566101 -0.502532
C175  C     C_2   0.129836 0.545030 0.585292 0.319527
H47   H     H_    0.181748 0.522001 0.591587 0.069224
O95   O     O_2   0.128508 0.589422 0.566101 -0.502536
C176  C     C_2   0.545034 0.870165 0.585292 0.319524
H48   H     H_    0.522006 0.818253 0.591587 0.069224
O96   O     O_2   0.589427 0.871494 0.566101 -0.502533

loop_
_geom_bond_atom_site_label_1
_geom_bond_atom_site_label_2
_ccdc_geom_bond_type
C33   C45   A    
C120  C144  A    
Cu1   Cu2   S    
Cu1   O4    S    
C95   O55   S    
C163  O83   D    
C80   O30   A    
C158  H30   S    
C112  C124  A    
Cu11  O27   S    
C92   O52   S    
Cu3   O10   S    
C22   C38   A    
C119  C143  A    
Cu8   O20   S    
C106  C130  A    
C30   C166  S    
C148  O68   D    
C13   C51   A    
C14   C52   A    
C154  H26   S    
C159  O79   D    
C172  H44   S    
C15   C51   A    
C97   C115  A    
Cu5   O23   S    
C142  H14   S    
Cu12  O48   S    
Cu7   O35   S    
C145  H17   S    
C103  C117  A    
Cu7   O21   S    
C146  O66   D    
C43   C75   S    
C109  C133  A    
C171  H43   S    
C27   C163  S    
Cu2   O7    S    
Cu11  O29   S    
C121  C128  A    
C20   C54   A    
C95   C109  A    
C25   C41   A    
C175  O95   D    
C1    O1    A    
C2    C59   S    
C94   O54   S    
C123  C126  A    
C22   C56   A    
C168  H40   S    
C87   O43   A    
C6    C63   S    
Cu10  O42   S    
C11   C49   A    
C77   O25   A    
C66   C82   S    
C32   C168  S    
C141  H13   S    
C100  C114  A    
C139  H11   S    
C84   O38   A    
C92   C106  A    
C162  H34   S    
C63   C71   T    
C153  O73   D    
C55   N6    S    
C113  C137  A    
C35   C45   A    
C6    O14   A    
C39   C47   A    
C136  H8    S    
Cu2   O8    S    
C151  O71   D    
C25   C161  S    
C135  H7    S    
Cu9   O47   S    
C23   C55   A    
C24   C56   A    
C97   O57   S    
C90   N2    A    
C31   C167  S    
C4    O8    A    
C5    O9    A    
Cu10  O30   S    
C19   C35   A    
C8    O12   A    
Cu12  O28   S    
Cu5   O33   S    
C15   C151  S    
C175  H47   S    
Cu4   O13   S    
C22   C158  S    
C115  C139  A    
C39   C175  S    
C67   C83   S    
C102  N8    A    
C91   C105  A    
Cu2   O5    S    
Cu11  O43   S    
Cu3   Cu4   S    
C100  N6    A    
C18   C154  S    
C129  C144  A    
Cu8   O36   S    
C91   N1    A    
C31   C43   A    
C20   C156  S    
C77   O27   A    
C114  C126  A    
Cu1   O1    S    
C149  H21   S    
Cu5   O39   S    
C122  C127  A    
C44   C76   S    
C13   C149  S    
C95   N3    A    
C59   C67   T    
C81   O33   A    
C74   O18   A    
Cu3   O11   S    
C165  O85   D    
C88   O44   A    
C36   C46   A    
C34   C46   A    
C37   C47   A    
C38   C48   A    
C80   O32   A    
C173  O93   D    
C26   C162  S    
C112  C136  A    
C3    O5    A    
C166  O86   D    
C1    O7    A    
C96   O56   S    
C164  O84   D    
C9    C49   A    
C174  H46   S    
C134  C139  A    
C75   O23   A    
C109  C123  A    
C38   C174  S    
C92   N2    A    
C93   N3    A    
C91   O51   S    
C50   N3    S    
C171  O91   D    
C170  O90   D    
C51   N2    S    
C161  H33   S    
C83   O39   A    
Cu4   O15   S    
C81   O37   A    
C106  C122  A    
C21   C37   A    
C131  H3    S    
C152  O72   D    
Cu9   O25   S    
C176  O96   D    
C167  O87   D    
C110  C134  A    
C85   O45   A    
C69   C85   S    
C26   C42   A    
C132  C141  A    
Cu11  O45   S    
C136  C137  A    
C12   C50   A    
C15   C31   A    
C16   C32   A    
Cu1   O3    S    
Cu12  O44   S    
C158  O78   D    
C90   C108  A    
C14   C150  S    
Cu3   O9    S    
C94   C112  A    
C100  O60   S    
Cu6   Cu8   S    
C114  C138  A    
C78   O28   A    
C108  C132  A    
C41   C73   S    
C10   C146  S    
C154  O74   D    
C156  H28   S    
C90   O50   S    
C172  O92   D    
C3    O3    A    
C24   C160  S    
C119  C127  A    
C155  H27   S    
C89   N1    A    
C7    O11   A    
C137  H9    S    
C75   O21   A    
C9    C25   A    
C147  H19   S    
C79   O31   A    
C12   C28   A    
C13   C29   A    
C168  O88   D    
C54   N7    S    
C160  H32   S    
C169  O89   D    
C37   C173  S    
C110  C124  A    
C47   C79   S    
Cu9   Cu11  S    
C9    C145  S    
Cu10  Cu12  S    
C99   O59   S    
C3    C60   S    
C162  O82   D    
C153  H25   S    
C29   C43   A    
C30   C44   A    
C17   C33   A    
C34   C170  S    
C104  C118  A    
C42   C74   S    
C111  C123  A    
C68   C84   S    
C33   C169  S    
C46   C78   S    
C150  H22   S    
C93   O53   S    
C96   C110  A    
C117  C141  A    
C163  H35   S    
C78   O26   A    
Cu9   O41   S    
C148  H20   S    
C97   N5    A    
C159  H31   S    
C21   C157  S    
C89   C107  A    
C117  C127  A    
C28   C164  S    
C93   C111  A    
C71   C87   S    
Cu4   O14   S    
C87   O47   A    
C145  O65   D    
C157  O77   D    
Cu6   O22   S    
C10   C50   A    
C17   C53   A    
C102  C120  A    
C146  H18   S    
C21   C55   A    
C79   O29   A    
C96   N4    A    
Cu2   O6    S    
C16   C52   A    
C57   C65   T    
C115  C125  A    
C99   C113  A    
C83   O35   A    
C120  C128  A    
C98   O58   S    
C144  H16   S    
C138  H10   S    
C130  H2    S    
Cu5   Cu7   S    
C143  H15   S    
C111  C135  A    
C36   C172  S    
C8    O16   A    
C103  N7    A    
C20   C36   A    
C82   O40   A    
C60   C68   T    
C133  C140  A    
C165  H37   S    
Cu8   O24   S    
Cu6   O18   S    
C49   N4    S    
C16   C152  S    
C94   N4    A    
C23   C159  S    
C140  H12   S    
C135  C138  A    
C167  H39   S    
Cu12  O32   S    
C86   O48   A    
C173  H45   S    
C35   C171  S    
C129  H1    S    
C104  N8    A    
C132  H4    S    
C155  O75   D    
C174  O94   D    
C99   N5    A    
C76   O22   A    
C147  O67   D    
C113  C125  A    
C73   O19   A    
C2    O2    A    
C40   C48   A    
C82   O34   A    
C65   C81   S    
C58   C66   T    
C19   C155  S    
C73   O17   A    
C4    C57   S    
C103  O63   S    
C11   C27   A    
C7    O13   A    
C101  O61   S    
C8    C61   S    
C5    O15   A    
C19   C53   A    
Cu6   O34   S    
C116  C126  A    
C62   C70   T    
C118  C128  A    
C14   C30   A    
C72   C88   S    
Cu4   O16   S    
C56   N5    S    
C88   O46   A    
C12   C148  S    
C101  C119  A    
Cu7   O19   S    
C150  O70   D    
Cu9   O31   S    
C105  C129  A    
C157  H29   S    
C104  O64   S    
Cu1   O2    S    
C11   C147  S    
C134  H6    S    
C149  O69   D    
C2    O6    A    
C101  N7    A    
C27   C41   A    
C98   C116  A    
Cu3   O12   S    
C6    O10   A    
Cu7   O37   S    
Cu6   O38   S    
C105  C121  A    
C29   C165  S    
C4    O4    A    
C130  C143  A    
C18   C34   A    
Cu10  O26   S    
C131  C142  A    
C102  O62   S    
C156  O76   D    
C98   N6    A    
C70   C86   S    
C53   N8    S    
C166  H38   S    
C61   C69   T    
C164  H36   S    
C17   C153  S    
C108  C122  A    
C118  C142  A    
C133  H5    S    
C45   C77   S    
C76   O24   A    
Cu10  O46   S    
C170  H42   S    
C48   C80   S    
C107  C131  A    
C151  H23   S    
C161  O81   D    
C1    C58   S    
C10   C26   A    
C74   O20   A    
C85   O41   A    
C23   C39   A    
Cu8   O40   S    
C28   C42   A    
C24   C40   A    
C5    C62   S    
C160  O80   D    
C64   C72   T    
C169  H41   S    
C7    C64   S    
C152  H24   S    
C18   C54   A    
C40   C176  S    
C32   C44   A    
C176  H48   S    
C107  C121  A    
C86   O42   A    
C89   O49   S    
C52   N1    S    
C84   O36   A    
Cu5   O17   S    
C124  C125  A    
C116  C140  A    
