data_mof_unit_61487.cif
_audit_creation_date              2012-12-10T16:43:24-0500
_audit_creation_method            fapswitch 2.2
_symmetry_space_group_name_H-M    P1
_symmetry_Int_Tables_number       1
_space_group_crystal_system       triclinic
_cell_length_a                    12.245947
_cell_length_b                    12.245939
_cell_length_c                    23.657009
_cell_angle_alpha                 90.000011
_cell_angle_beta                  90.000145
_cell_angle_gamma                 89.999903
_cell_volume                      3547.67887853

loop_
_atom_site_label
_atom_site_type_symbol
_atom_type_description
_atom_site_fract_x
_atom_site_fract_y
_atom_site_fract_z
_atom_type_partial_charge
C1    C     C_3   1.000000 0.000000 0.250000 0.031863
C2    C     C_R   0.897456 0.997716 0.291119 -0.027072
C3    C     C_R   0.000147 0.648880 0.921491 0.823196
C4    C     C_R   0.999853 0.351120 0.078509 0.823194
C5    C     C_R   0.351120 0.000147 0.421490 0.823195
C6    C     C_R   0.648880 0.999852 0.578509 0.823195
C7    C     C_R   0.999852 0.351120 0.921491 0.823195
C8    C     C_R   0.000148 0.648880 0.078509 0.823190
C9    C     C_R   0.648880 0.999852 0.421490 0.823193
C10   C     C_R   0.351120 0.000148 0.578509 0.823194
C11   C     C_R   0.071258 0.196596 0.211632 0.229574
C12   C     C_3   0.000001 1.000000 0.750000 0.031863
C13   C     C_R   0.928741 0.803404 0.788368 0.229574
C14   C     C_R   0.803405 0.071260 0.711631 0.229574
C15   C     C_R   0.196595 0.928741 0.288369 0.229572
C16   C     C_R   0.928741 0.803405 0.211631 0.229582
C17   C     C_R   0.071262 0.196594 0.788369 0.229572
C18   C     C_R   0.196595 0.928739 0.711631 0.229573
C19   C     C_R   0.803405 0.071260 0.288369 0.229575
C20   C     C_R   0.074177 0.900878 0.840017 0.113725
C21   C     C_R   0.925825 0.099121 0.159983 0.113723
C22   C     C_R   0.900879 0.925823 0.340016 0.113722
C23   C     C_R   0.997716 0.102544 0.208881 -0.027072
C24   C     C_R   0.099122 0.074178 0.659984 0.113724
C25   C     C_R   0.925824 0.099120 0.840016 0.113722
C26   C     C_R   0.074176 0.900880 0.159983 0.113723
C27   C     C_R   0.099120 0.074175 0.340017 0.113724
C28   C     C_R   0.900881 0.925826 0.659982 0.113725
C29   C     C_R   0.057806 0.284760 0.173873 0.091220
C30   C     C_R   0.942193 0.715241 0.826128 0.091221
C31   C     C_R   0.715241 0.057807 0.673872 0.091221
C32   C     C_R   0.284759 0.942193 0.326128 0.091221
C33   C     C_R   0.942193 0.715241 0.173872 0.091222
C34   C     C_R   0.002284 0.897456 0.791118 -0.027072
C35   C     C_R   0.057809 0.284758 0.826128 0.091222
C36   C     C_R   0.284759 0.942191 0.673872 0.091223
C37   C     C_R   0.715241 0.057808 0.326128 0.091221
C38   C     C_R   0.064480 0.823701 0.883565 0.103130
C39   C     C_R   0.935522 0.176299 0.116434 0.103134
C40   C     C_R   0.823699 0.935516 0.383565 0.103127
C41   C     C_R   0.176301 0.064485 0.616436 0.103126
C42   C     C_R   0.935517 0.176300 0.883565 0.103128
C43   C     C_R   0.064481 0.823701 0.116435 0.103129
C44   C     C_R   0.176298 0.064479 0.383566 0.103132
C45   C     C_R   0.897458 0.997717 0.708881 -0.027072
C46   C     C_R   0.823702 0.935521 0.616434 0.103130
C47   C     C_R   0.998483 0.269545 0.123835 -0.092992
C48   C     C_R   0.001517 0.730455 0.876165 -0.092994
C49   C     C_R   0.730455 0.998483 0.623835 -0.092993
C50   C     C_R   0.269545 0.001517 0.376165 -0.092992
C51   C     C_R   0.001517 0.730455 0.123835 -0.092997
C52   C     C_R   0.998482 0.269545 0.876165 -0.092996
C53   C     C_R   0.269545 0.001518 0.623835 -0.092995
C54   C     C_R   0.730455 0.998482 0.376164 -0.092994
C55   C     C_R   0.102543 0.002283 0.291119 -0.027071
C56   C     C_R   0.002283 0.897457 0.208881 -0.027075
C57   C     C_R   0.997718 0.102543 0.791119 -0.027071
C58   C     C_R   0.102545 0.002283 0.708881 -0.027071
Cu1   Cu    Cu3+1 0.889520 0.500000 0.000000 1.062114
Cu2   Cu    Cu3+1 0.110480 0.500000 0.000000 1.062113
Cu3   Cu    Cu3+1 0.500000 0.889520 0.500000 1.062117
Cu4   Cu    Cu3+1 0.500000 0.110480 0.500000 1.062114
H1    H     H_    0.077653 0.414416 0.225562 0.249898
H2    H     H_    0.913082 0.550257 0.158357 0.199158
H3    H     H_    0.077662 0.414412 0.774439 0.249900
H4    H     H_    0.086910 0.449743 0.841641 0.199149
H5    H     H_    0.414414 0.922337 0.725561 0.249899
H6    H     H_    0.449743 0.913088 0.658359 0.199149
H7    H     H_    0.585585 0.077657 0.274439 0.249897
H8    H     H_    0.550257 0.086914 0.341641 0.199151
H9    H     H_    0.100986 0.916986 0.951660 0.236884
H10   H     H_    0.203625 0.831087 0.930711 0.276558
H11   H     H_    0.899039 0.083012 0.048338 0.236876
H12   H     H_    0.086907 0.449745 0.158360 0.199147
H13   H     H_    0.796383 0.168893 0.069284 0.276559
H14   H     H_    0.916977 0.899013 0.451661 0.236881
H15   H     H_    0.831094 0.796368 0.430706 0.276559
H16   H     H_    0.083021 0.100999 0.548341 0.236885
H17   H     H_    0.168916 0.203635 0.569295 0.276559
H18   H     H_    0.899013 0.083020 0.951660 0.236883
H19   H     H_    0.796369 0.168907 0.930707 0.276559
H20   H     H_    0.100984 0.916983 0.048339 0.236883
H21   H     H_    0.203628 0.831092 0.069291 0.276558
H22   H     H_    0.083016 0.100966 0.451663 0.236878
H23   H     H_    0.922344 0.585585 0.774439 0.249899
H24   H     H_    0.168895 0.203621 0.430714 0.276560
H25   H     H_    0.916984 0.899029 0.548338 0.236879
H26   H     H_    0.831101 0.796379 0.569286 0.276560
H27   H     H_    0.913090 0.550256 0.841641 0.199149
H28   H     H_    0.585586 0.077654 0.725562 0.249900
H29   H     H_    0.550256 0.086908 0.658360 0.199148
H30   H     H_    0.414413 0.922343 0.274438 0.249900
H31   H     H_    0.449745 0.913095 0.341640 0.199145
H32   H     H_    0.922357 0.585582 0.225560 0.249893
I1    I     I_    0.227672 0.218002 0.254721 -0.238258
I2    I     I_    0.788195 0.990885 0.147182 -0.327254
I3    I     I_    0.009116 0.788193 0.352815 -0.327255
I4    I     I_    0.990887 0.211809 0.647186 -0.327258
I5    I     I_    0.788194 0.990883 0.852815 -0.327256
I6    I     I_    0.211806 0.009116 0.147184 -0.327258
I7    I     I_    0.990883 0.211804 0.352818 -0.327254
I8    I     I_    0.009117 0.788196 0.647182 -0.327252
I9    I     I_    0.772328 0.781999 0.745279 -0.238260
I10   I     I_    0.782000 0.227674 0.754719 -0.238258
I11   I     I_    0.218000 0.772326 0.245281 -0.238261
I12   I     I_    0.772326 0.782000 0.254718 -0.238253
I13   I     I_    0.227677 0.217998 0.745283 -0.238261
I14   I     I_    0.217999 0.772324 0.754718 -0.238262
I15   I     I_    0.782000 0.227674 0.245280 -0.238255
I16   I     I_    0.211808 0.009112 0.852816 -0.327254
N1    N     N_3   0.108779 0.388342 0.186663 -0.498120
N2    N     N_3   0.880592 0.161058 0.063423 -0.546087
N3    N     N_3   0.838932 0.880574 0.436572 -0.546080
N4    N     N_3   0.161069 0.119429 0.563428 -0.546081
N5    N     N_3   0.880576 0.161066 0.936573 -0.546081
N6    N     N_3   0.119420 0.838936 0.063426 -0.546082
N7    N     N_3   0.161061 0.119413 0.436576 -0.546085
N8    N     N_3   0.838939 0.880587 0.563424 -0.546088
N9    N     N_3   0.891218 0.611659 0.813338 -0.498119
N10   N     N_3   0.611660 0.108780 0.686662 -0.498120
N11   N     N_3   0.388341 0.891219 0.313338 -0.498118
N12   N     N_3   0.891221 0.611659 0.186663 -0.498123
N13   N     N_3   0.108785 0.388339 0.813339 -0.498119
N14   N     N_3   0.388340 0.891214 0.686661 -0.498118
N15   N     N_3   0.611660 0.108784 0.313338 -0.498120
N16   N     N_3   0.119418 0.838937 0.936575 -0.546085
O1    O     O_R   0.907020 0.615090 0.941240 -0.569149
O2    O     O_R   0.092980 0.615090 0.941240 -0.563425
O3    O     O_R   0.384910 0.092980 0.558760 -0.563422
O4    O     O_R   0.615090 0.907020 0.441240 -0.563418
O5    O     O_R   0.092980 0.615090 0.058760 -0.563420
O6    O     O_R   0.907020 0.384910 0.941240 -0.563420
O7    O     O_R   0.615090 0.907020 0.558760 -0.563422
O8    O     O_R   0.384910 0.092980 0.441240 -0.563422
O9    O     O_R   0.092980 0.384910 0.058760 -0.569148
O10   O     O_R   0.384910 0.907020 0.441240 -0.569148
O11   O     O_R   0.615090 0.092980 0.558760 -0.569150
O12   O     O_R   0.092980 0.384910 0.941240 -0.569149
O13   O     O_R   0.907020 0.615090 0.058760 -0.569154
O14   O     O_R   0.615090 0.092980 0.441240 -0.569151
O15   O     O_R   0.384910 0.907020 0.558760 -0.569150
O16   O     O_R   0.907020 0.384910 0.058760 -0.563423

loop_
_geom_bond_atom_site_label_1
_geom_bond_atom_site_label_2
_ccdc_geom_bond_type
C5    O10   A    
C14   C31   A    
C43   C51   A    
H5    N14   S    
H6    N14   S    
Cu3   O7    S    
C15   C32   A    
C9    O4    A    
C46   C49   A    
C28   C46   A    
H13   N2    S    
C29   C47   A    
C8    O13   A    
C24   I4    S    
C30   C48   A    
C36   N14   S    
C1    C56   S    
H31   N11   S    
C7    C52   S    
C6    O7    A    
C17   I13   S    
C4    O16   A    
C43   N6    S    
C9    O14   A    
C3    O1    A    
C30   N9    S    
Cu1   O1    S    
C3    C48   S    
C46   N8    S    
C1    C2    S    
H23   N9    S    
C10   C53   S    
C36   C53   A    
C19   C37   A    
C27   C44   A    
C25   I5    S    
H27   N9    S    
Cu1   O16   S    
H22   N7    S    
C2    C22   A    
H9    N16   S    
C13   I9    S    
C41   N4    S    
C38   C48   A    
C16   I12   S    
C12   C58   S    
H7    N15   S    
Cu1   Cu2   S    
C6    C49   S    
C22   I3    S    
C24   C41   A    
Cu4   O3    S    
H16   N4    S    
C25   C57   A    
C31   C49   A    
H15   N3    S    
C32   N11   S    
Cu2   O5    S    
C38   N16   S    
C18   C58   A    
C26   C43   A    
C14   C45   A    
C37   N15   S    
C19   I15   S    
C5    O8    A    
Cu1   O6    S    
C28   C45   A    
C13   C30   A    
Cu2   O2    S    
H25   N8    S    
H12   N1    S    
C3    O2    A    
C27   I7    S    
H10   N16   S    
C10   O15   A    
C15   C55   A    
C16   C56   A    
C16   C33   A    
C26   I6    S    
C20   C38   A    
C14   I10   S    
C40   N3    S    
C21   C39   A    
H18   N5    S    
Cu1   O13   S    
C22   C40   A    
H19   N5    S    
C8    O5    A    
H14   N3    S    
C8    C51   S    
C41   C53   A    
C7    O6    A    
Cu3   O4    S    
C4    O9    A    
C20   I16   S    
C37   C54   A    
H32   N12   S    
H8    N15   S    
Cu3   O15   S    
C39   N2    S    
H28   N10   S    
C1    C23   S    
C40   C54   A    
C21   C23   A    
C33   N12   S    
C5    C50   S    
C12   C57   S    
C12   C34   S    
H11   N2    S    
C39   C47   A    
C44   C50   A    
C2    C19   A    
H4    N13   S    
H21   N6    S    
C29   N1    S    
C12   C45   S    
C26   C56   A    
C25   C42   A    
C7    O12   A    
C21   I2    S    
C33   C51   A    
H26   N8    S    
Cu4   O8    S    
C6    O11   A    
C35   N13   S    
C1    C55   S    
C10   O3    A    
H20   N6    S    
C13   C34   A    
H30   N11   S    
C15   I11   S    
C44   N7    S    
H2    N12   S    
C11   C23   A    
C32   C50   A    
H24   N7    S    
C27   C55   A    
H3    N13   S    
Cu4   O11   S    
H1    N1    S    
Cu3   Cu4   S    
C18   I14   S    
C31   N10   S    
C20   C34   A    
C28   I8    S    
C42   N5    S    
C11   I1    S    
C11   C29   A    
C24   C58   A    
H17   N4    S    
C42   C52   A    
C35   C52   A    
H29   N10   S    
C9    C54   S    
C17   C35   A    
Cu4   O14   S    
C18   C36   A    
Cu2   O9    S    
Cu3   O10   S    
C17   C57   A    
C4    C47   S    
Cu2   O12   S    
