data_mof_unit_14563.cif
_audit_creation_date              2013-03-05T16:48:15-0500
_audit_creation_method            fapswitch 2.2
_symmetry_space_group_name_H-M    P1
_symmetry_Int_Tables_number       1
_space_group_crystal_system       triclinic
_cell_length_a                    23.363902
_cell_length_b                    8.927418
_cell_length_c                    8.103172
_cell_angle_alpha                 89.812983
_cell_angle_beta                  90.26775
_cell_angle_gamma                 89.65861
_cell_volume                      1690.09648504

loop_
_atom_site_label
_atom_site_type_symbol
_atom_site_description
_atom_site_fract_x
_atom_site_fract_y
_atom_site_fract_z
_atom_type_partial_charge
O1    O     O_R   0.500000 0.285350 0.636850 -0.617322
O2    O     O_R   0.500000 0.714650 0.363150 -0.615579
O3    O     O_R   0.500000 0.714650 0.636850 -0.617359
O4    O     O_R   0.500000 0.285350 0.363150 -0.615615
H1    H     H_    0.959127 0.127339 0.596956 0.173891
H2    H     H_    0.041646 0.897509 0.513334 0.178714
H3    H     H_    0.937858 0.879849 0.527203 0.193276
H4    H     H_    0.062927 0.145986 0.605000 0.188933
C1    C     C_R   0.500028 0.217989 0.500172 0.937241
C2    C     C_R   0.499966 0.782011 0.499830 0.937381
O5    O     O_R   0.416160 0.500000 0.636910 -0.619655
O6    O     O_R   0.583840 0.500000 0.363090 -0.623846
O7    O     O_R   0.583840 0.500000 0.636910 -0.619836
O8    O     O_R   0.416160 0.500000 0.363090 -0.623581
C3    C     C_R   0.208608 0.543242 0.518878 0.126348
C4    C     C_R   0.791989 0.475750 0.527768 0.114860
C5    C     C_R   0.389030 0.503235 0.499842 0.923235
C6    C     C_R   0.610990 0.497152 0.500653 0.924448
Zn1   Zn    Zn3+2 0.500000 0.500000 0.682780 0.984861
Zn2   Zn    Zn3+2 0.500000 0.500000 0.317220 0.985909
C7    C     C_R   0.301484 0.594009 0.635034 -0.355798
C8    C     C_R   0.699575 0.417488 0.641767 -0.360741
C9    C     C_R   0.293641 0.464728 0.372598 -0.292962
C10   C     C_R   0.705892 0.541168 0.375346 -0.292294
H5    H     H_    0.327763 0.636215 0.734706 0.171697
H6    H     H_    0.673719 0.374850 0.741725 0.171311
H7    H     H_    0.313325 0.407431 0.269531 0.185271
H8    H     H_    0.685522 0.594185 0.269692 0.186876
C11   C     C_R   0.327144 0.520815 0.501504 -0.153623
C12   C     C_R   0.673061 0.484413 0.504609 -0.154276
C13   C     C_R   0.877351 0.624795 0.551956 0.571057
C14   C     C_R   0.123551 0.399717 0.566228 0.574395
C15   C     C_R   0.884998 0.357522 0.553966 0.515912
C16   C     C_R   0.116095 0.664861 0.526523 0.509550
N1    N     N_R   0.852737 0.486047 0.547461 -0.326081
N2    N     N_R   0.148029 0.536286 0.538731 -0.323776
C17   C     C_R   0.944475 0.365857 0.567541 -0.026520
C18   C     C_R   0.056544 0.658499 0.538557 -0.020299
C19   C     C_R   0.936825 0.638140 0.550285 -0.044936
C20   C     C_R   0.064144 0.387131 0.572636 -0.047661
C21   C     C_R   0.970543 0.507309 0.559270 -0.025895
C22   C     C_R   0.030475 0.517752 0.557624 -0.026105
C23   C     C_R   0.978375 0.236639 0.585791 -0.177456
C24   C     C_R   0.022542 0.788322 0.528545 -0.176568
C25   C     C_R   0.963166 0.778322 0.536593 -0.177273
C26   C     C_R   0.037755 0.247382 0.590623 -0.171056
C27   C     C_1   0.500006 0.065199 0.500250 -0.193216
C28   C     C_1   0.499983 0.934800 0.499761 -0.193060
C29   C     C_R   0.241995 0.609698 0.642397 0.479879
C30   C     C_R   0.759260 0.408401 0.652362 0.490007
C31   C     C_R   0.234274 0.475806 0.380132 0.459873
C32   C     C_R   0.765337 0.536961 0.385418 0.457328
N3    N     N_1   0.500000 0.500000 0.073640 -0.035795
N4    N     N_1   0.500000 0.500000 0.926360 -0.036621
O9    O     O_2   0.844237 0.749173 0.555950 -0.537693
O10   O     O_2   0.156766 0.276558 0.585359 -0.548655
O11   O     O_2   0.859654 0.222467 0.542988 -0.573466
O12   O     O_2   0.141928 0.797547 0.500039 -0.575887
O13   O     O_3   0.214851 0.672608 0.777656 -0.662485
C33   C     C_3   0.236439 0.816788 0.812293 0.088629
H9    H     H_    0.244209 0.882447 0.697123 0.180668
H10   H     H_    0.276883 0.806763 0.884463 0.131126
C34   C     C_3   0.192641 0.901700 0.916426 -0.330593
H11   H     H_    0.151831 0.912966 0.846211 0.252051
H12   H     H_    0.184049 0.837530 0.031261 0.219711
C35   C     C_3   0.214038 0.057241 0.962759 -0.856619
H13   H     H_    0.255004 0.048701 0.032379 0.259809
H14   H     H_    0.181933 0.113442 0.042252 0.279931
H15   H     H_    0.220499 0.126314 0.850189 0.288529
O14   O     O_3   0.786957 0.349609 0.790345 -0.654749
C36   C     C_3   0.765717 0.206207 0.831742 0.095670
H16   H     H_    0.756182 0.138180 0.719638 0.180222
H17   H     H_    0.726324 0.218330 0.907120 0.127234
C37   C     C_3   0.810727 0.122423 0.934744 -0.334684
H18   H     H_    0.850920 0.111421 0.862834 0.256573
H19   H     H_    0.820261 0.186852 0.048495 0.212377
C38   C     C_3   0.790214 0.966624 0.983831 -0.863675
H20   H     H_    0.749851 0.974569 0.055265 0.264991
H21   H     H_    0.823217 0.911286 0.062351 0.278941
H22   H     H_    0.782984 0.897062 0.872306 0.278862
O15   O     O_3   0.201495 0.403921 0.262246 -0.621055
C39   C     C_3   0.175958 0.510867 0.155512 0.053001
H23   H     H_    0.206023 0.534877 0.053295 0.201648
H24   H     H_    0.165389 0.618747 0.217624 0.143674
C40   C     C_3   0.120666 0.445910 0.084508 -0.297664
H25   H     H_    0.131165 0.351252 0.001013 0.233061
H26   H     H_    0.093768 0.402696 0.186845 0.229473
C41   C     C_3   0.086298 0.563349 0.988590 -0.939071
H27   H     H_    0.072551 0.655403 0.071762 0.266337
H28   H     H_    0.047678 0.510499 0.934664 0.265687
H29   H     H_    0.112217 0.610428 0.886864 0.296845
O16   O     O_3   0.796656 0.610849 0.266080 -0.615262
C42   C     C_3   0.824694 0.505246 0.164966 0.055642
H30   H     H_    0.793011 0.454447 0.079814 0.188086
H31   H     H_    0.845563 0.413899 0.237562 0.140345
C43   C     C_3   0.870586 0.585553 0.064395 -0.285550
H32   H     H_    0.849772 0.651439 0.963912 0.234117
H33   H     H_    0.894422 0.664036 0.145490 0.235241
C44   C     C_3   0.913327 0.475678 0.989432 -0.940398
H34   H     H_    0.937604 0.416333 0.088364 0.263164
H35   H     H_    0.944016 0.538120 0.911561 0.262667
H36   H     H_    0.890998 0.392333 0.911639 0.295747

loop_
_geom_bond_atom_site_label_1
_geom_bond_atom_site_label_2
_geom_bond_distance
_ccdc_geom_bond_type
C10   C32   1.391152 A    
C35   H14   1.109688 S    
C34   H12   1.110848 S    
C42   H30   1.109502 S    
C5    C11   1.453586 S    
C21   C22   1.404031 A    
C7    C29   1.397691 A    
O15   C39   1.413702 S    
C19   C21   1.406421 A    
C38   H20   1.110840 S    
C3    C29   1.401547 A    
C20   C26   1.402382 A    
O5    Zn1   1.992078 S    
C37   H19   1.110458 S    
O7    C6    1.276173 A    
C33   C34   1.528647 S    
H3    C25   1.081503 S    
C4    C30   1.405088 A    
C18   C22   1.407979 A    
C4    N1    1.431045 S    
C40   C41   1.525421 S    
C35   H15   1.110779 S    
C43   C44   1.525202 S    
C33   H10   1.111937 S    
C44   H34   1.111074 S    
C37   C38   1.525970 S    
C43   H33   1.112250 S    
O3    Zn1   1.950884 S    
O14   C36   1.415638 S    
C6    C12   1.454195 S    
C9    H7    1.083622 S    
C31   O15   1.383434 S    
C19   C25   1.402192 A    
C20   C22   1.407350 A    
C35   H13   1.110843 S    
H1    C23   1.080549 S    
C34   C35   1.526085 S    
O13   C33   1.413761 S    
C42   H31   1.112768 S    
H2    C24   1.081426 S    
O8    C5    1.279492 A    
C10   C12   1.396747 A    
C38   H21   1.110073 S    
O1    Zn1   1.953270 S    
C37   H18   1.111485 S    
O7    Zn1   1.995488 S    
C40   H26   1.112260 S    
O2    Zn2   1.953270 S    
O8    Zn2   1.995491 S    
O1    C1    1.261980 A    
C4    C32   1.414928 A    
C36   H17   1.111941 S    
C40   H25   1.111230 S    
C7    C11   1.401137 A    
C15   C17   1.395905 A    
C33   H9    1.116587 S    
C17   C23   1.402449 A    
C18   C24   1.403113 A    
C9    C31   1.391619 A    
C27   C28   1.164147 T    
C41   H29   1.108276 S    
C43   H32   1.111386 S    
O6    Zn2   1.992075 S    
Zn1   N4    1.973771 S    
C44   H35   1.108932 S    
C41   H28   1.109258 S    
C1    C27   1.364019 S    
C42   C43   1.530115 S    
C3    C31   1.411547 A    
C2    C28   1.364012 S    
C13   N1    1.369270 A    
C32   O16   1.383422 S    
O2    C2    1.262000 A    
C9    C11   1.398200 A    
C3    N2    1.426904 S    
C24   C25   1.392490 A    
C38   H22   1.111017 S    
C7    H5    1.082286 S    
O5    C5    1.276410 A    
C15   O11   1.349425 S    
C8    C12   1.400279 A    
C16   C18   1.396679 A    
C10   H8    1.083674 S    
Zn2   N3    1.973771 S    
C36   C37   1.529815 S    
C14   N2    1.367816 A    
N3    N4    1.193434 T    
C39   C40   1.529805 S    
C39   H24   1.115039 S    
C29   O13   1.387492 S    
C8    C30   1.398575 A    
C30   O14   1.389152 S    
C36   H16   1.116673 S    
O3    C2    1.260957 A    
O16   C42   1.411377 S    
C15   N1    1.369799 A    
C13   C19   1.395477 A    
C16   N2    1.368360 A    
C14   C20   1.394378 A    
C17   C21   1.406800 A    
C23   C26   1.391607 A    
H4    C26   1.082197 S    
C34   H11   1.111933 S    
O4    Zn2   1.950885 S    
C44   H36   1.108034 S    
C41   H27   1.111414 S    
C39   H23   1.109727 S    
C8    H6    1.082214 S    
O6    C6    1.280071 A    
C16   O12   1.349646 S    
C13   O9    1.350102 S    
O4    C1    1.260979 A    
C14   O10   1.350096 S    
