data_mof_unit_14029.cif
_audit_creation_date              2012-12-10T17:17:51-0500
_audit_creation_method            fapswitch 2.2
_symmetry_space_group_name_H-M    P1
_symmetry_Int_Tables_number       1
_space_group_crystal_system       triclinic
_cell_length_a                    14.977543
_cell_length_b                    15.521358
_cell_length_c                    9.615578
_cell_angle_alpha                 89.775559
_cell_angle_beta                  89.987197
_cell_angle_gamma                 90.001636
_cell_volume                      2235.33358452

loop_
_atom_site_label
_atom_site_type_symbol
_atom_type_description
_atom_site_fract_x
_atom_site_fract_y
_atom_site_fract_z
_atom_type_partial_charge
C1    C     C_R   0.379097 0.883577 0.500271 0.767899
C2    C     C_R   0.379067 0.116395 0.499787 0.767873
C3    C     C_R   0.879059 0.383614 0.500270 0.767891
C4    C     C_R   0.879041 0.616369 0.499786 0.767876
C5    C     C_R   0.318328 0.252214 0.416716 -0.195053
C6    C     C_R   0.318578 0.747522 0.582773 -0.194890
C7    C     C_R   0.818121 0.752026 0.416348 -0.195232
C8    C     C_R   0.818271 0.247810 0.583356 -0.195133
C9    C     C_R   0.754475 0.816179 0.417262 -0.206424
C10   C     C_R   0.754627 0.183648 0.582399 -0.206401
C11   C     C_R   0.254670 0.316362 0.417608 -0.206459
C12   C     C_R   0.254922 0.683365 0.581829 -0.206422
C13   C     C_R   0.678748 0.808061 0.500742 -0.093204
C14   C     C_R   0.678796 0.191895 0.499233 -0.093122
C15   C     C_R   0.178794 0.308105 0.500722 -0.093075
C16   C     C_R   0.178867 0.691828 0.499226 -0.092916
C17   C     C_R   0.664266 0.000306 0.143664 -0.132252
C18   C     C_R   0.164266 0.500302 0.143664 -0.132152
C19   C     C_R   0.744539 0.000150 0.071587 -0.208122
C20   C     C_R   0.244539 0.500146 0.071587 -0.208121
C21   C     C_R   0.744559 0.999859 0.928324 -0.207961
C22   C     C_R   0.244560 0.499859 0.928324 -0.207907
C23   C     C_R   0.664306 0.999700 0.856259 -0.132198
C24   C     C_R   0.164307 0.499702 0.856258 -0.132036
C25   C     C_R   0.580724 0.999922 0.925248 0.209801
C26   C     C_R   0.080724 0.499921 0.925247 0.209761
C27   C     C_R   0.580692 0.000082 0.074696 0.209827
C28   C     C_R   0.080693 0.500080 0.074696 0.209807
C29   C     C_R   0.423232 0.999983 0.073854 -0.053084
C30   C     C_R   0.923233 0.499987 0.073853 -0.053028
C31   C     C_R   0.616372 0.120726 0.499687 0.771887
C32   C     C_R   0.616348 0.879252 0.500268 0.771844
C33   C     C_R   0.116403 0.620697 0.499688 0.771807
C34   C     C_R   0.116373 0.379275 0.500262 0.771782
C35   C     C_R   0.423269 0.000008 0.926085 -0.052880
C36   C     C_R   0.923270 0.500010 0.926085 -0.052840
C37   C     C_R   0.211496 0.088279 0.650130 -0.185611
C38   C     C_R   0.211293 0.911979 0.350930 -0.185682
C39   C     C_R   0.711666 0.588427 0.650786 -0.185438
C40   C     C_R   0.711562 0.411722 0.349844 -0.185507
C41   C     C_R   0.132812 0.077208 0.725504 -0.132785
C42   C     C_R   0.132452 0.923218 0.276071 -0.132714
C43   C     C_R   0.633131 0.577481 0.726578 -0.133045
C44   C     C_R   0.632934 0.422772 0.274373 -0.133027
C45   C     C_R   0.569673 0.642829 0.729911 -0.144107
C46   C     C_R   0.569457 0.357436 0.271063 -0.144044
C47   C     C_R   0.069322 0.142533 0.728759 -0.144061
C48   C     C_R   0.068966 0.857884 0.272741 -0.144037
C49   C     C_R   0.584162 0.719309 0.656818 -0.176613
C50   C     C_R   0.584025 0.280860 0.343843 -0.176417
C51   C     C_R   0.083937 0.219121 0.656020 -0.176430
C52   C     C_R   0.083737 0.781122 0.344908 -0.176307
C53   C     C_R   0.663589 0.732293 0.580035 0.103071
C54   C     C_R   0.663544 0.267773 0.420288 0.103037
C55   C     C_R   0.163506 0.232223 0.579653 0.103057
C56   C     C_R   0.163433 0.767879 0.420816 0.103053
C57   C     C_R   0.228545 0.166115 0.577733 0.095318
C58   C     C_R   0.228467 0.833990 0.422796 0.095234
C59   C     C_R   0.728613 0.666172 0.578073 0.095502
C60   C     C_R   0.728572 0.333891 0.422263 0.095425
C61   C     C_R   0.307292 0.178718 0.498968 -0.098667
C62   C     C_R   0.307354 0.821225 0.501082 -0.098458
C63   C     C_R   0.807236 0.678663 0.498958 -0.098778
C64   C     C_R   0.807274 0.321301 0.501092 -0.098651
Cu1   Cu    Cu3+1 0.499990 0.000000 0.640660 0.929022
Cu2   Cu    Cu3+1 0.999990 0.500000 0.640660 0.929060
Cu3   Cu    Cu3+1 0.500010 0.000000 0.359340 0.929100
Cu4   Cu    Cu3+1 0.000010 0.500000 0.359340 0.929131
H1    H     H_    0.377463 0.260946 0.353583 0.141605
H2    H     H_    0.377851 0.738644 0.645491 0.141390
H3    H     H_    0.877136 0.760660 0.352908 0.141743
H4    H     H_    0.877368 0.239087 0.646539 0.141619
H5    H     H_    0.807290 0.999783 0.872246 0.142784
H6    H     H_    0.307290 0.499784 0.872246 0.142792
H7    H     H_    0.360279 0.000007 0.871073 0.135754
H8    H     H_    0.860279 0.500010 0.871076 0.135655
H9    H     H_    0.257377 0.034580 0.646864 0.137595
H10   H     H_    0.257212 0.965653 0.354214 0.137426
H11   H     H_    0.757502 0.534695 0.647450 0.137655
H12   H     H_    0.757430 0.465432 0.353158 0.137585
H13   H     H_    0.120622 0.017296 0.780321 0.133882
H14   H     H_    0.120147 0.983257 0.221695 0.133930
H15   H     H_    0.621028 0.517645 0.781659 0.133751
H16   H     H_    0.620780 0.482675 0.219519 0.133781
H17   H     H_    0.508345 0.633780 0.787779 0.129143
H18   H     H_    0.508062 0.366562 0.213447 0.129041
H19   H     H_    0.007882 0.133388 0.786299 0.129033
H20   H     H_    0.007421 0.867149 0.215571 0.128913
H21   H     H_    0.531866 0.767010 0.659386 0.150815
H22   H     H_    0.531728 0.233154 0.341311 0.150618
H23   H     H_    0.031637 0.266822 0.658509 0.150579
H24   H     H_    0.031475 0.733379 0.342340 0.150350
H25   H     H_    0.765440 0.873509 0.354837 0.138009
H26   H     H_    0.765665 0.126220 0.644546 0.137854
H27   H     H_    0.265731 0.373789 0.355455 0.137833
H28   H     H_    0.266109 0.625782 0.643537 0.137557
H29   H     H_    0.360219 0.999974 0.128849 0.135807
H30   H     H_    0.860219 0.499985 0.128844 0.135653
H31   H     H_    0.672123 0.000577 0.253179 0.193867
H32   H     H_    0.172124 0.500572 0.253179 0.193836
H33   H     H_    0.807256 0.000227 0.127659 0.142739
H34   H     H_    0.307256 0.500221 0.127659 0.142771
N1    N     N_R   0.501200 0.000000 0.147910 -0.200643
N2    N     N_R   0.001200 0.500000 0.147910 -0.200615
N3    N     N_R   0.501270 1.000000 0.852040 -0.200639
N4    N     N_R   0.001270 0.500000 0.852040 -0.200620
O1    O     O_R   0.409820 0.909830 0.618810 -0.589570
O2    O     O_R   0.409820 0.090170 0.618810 -0.573696
O3    O     O_R   0.909820 0.409830 0.618810 -0.589592
O4    O     O_R   0.909820 0.590170 0.618810 -0.573728
O5    O     O_R   0.409840 0.909830 0.381240 -0.573604
O6    O     O_R   0.409840 0.090170 0.381240 -0.589486
O7    O     O_R   0.909840 0.409830 0.381240 -0.573673
O8    O     O_R   0.909840 0.590170 0.381240 -0.589498
O9    O     O_R   0.590170 0.090170 0.618760 -0.586931
O10   O     O_R   0.590170 0.909830 0.618760 -0.603668
O11   O     O_R   0.090170 0.590170 0.618760 -0.586884
O12   O     O_R   0.090170 0.409830 0.618760 -0.603573
O13   O     O_R   0.590190 0.090180 0.381190 -0.603637
O14   O     O_R   0.590190 0.909820 0.381190 -0.587056
O15   O     O_R   0.090190 0.590180 0.381190 -0.603528
O16   O     O_R   0.090190 0.409820 0.381190 -0.587033
H35   H     H_    0.672169 0.999427 0.746730 0.193784
H36   H     H_    0.172170 0.499432 0.746729 0.193750

loop_
_geom_bond_atom_site_label_1
_geom_bond_atom_site_label_2
_ccdc_geom_bond_type
C34   O12   A    
Cu2   Cu4   S    
C58   C62   A    
C40   C60   A    
C43   H15   S    
C13   C32   S    
C42   H14   S    
C14   C31   S    
C1    C62   S    
C26   N4    A    
C30   N2    A    
C53   C59   A    
Cu3   N1    S    
C54   C60   A    
C3    C64   S    
C33   O11   A    
C4    C63   S    
C2    O6    A    
C50   C54   A    
C4    O8    A    
C19   C21   A    
C24   C26   A    
C38   C42   A    
C20   C22   A    
C6    C12   A    
C20   H34   S    
C10   H26   S    
C21   H5    S    
C24   H36   S    
C29   N1    A    
C6    H2    S    
C31   O9    A    
C9    C13   A    
C5    H1    S    
C36   H8    S    
C51   H23   S    
C38   C58   A    
C11   C15   A    
C50   H22   S    
C12   C16   A    
Cu1   Cu3   S    
Cu2   O11   S    
C48   H20   S    
Cu3   O14   S    
C15   C34   S    
C18   C20   A    
C2    C61   S    
Cu4   O7    S    
C39   C59   A    
C34   O16   A    
C33   O15   A    
Cu1   O9    S    
C18   H32   S    
Cu2   N4    S    
Cu1   N3    S    
C44   C46   A    
C46   C50   A    
C13   C53   A    
C39   C43   A    
C8    H4    S    
C25   N3    A    
C17   C27   A    
Cu4   N2    S    
C18   C28   A    
C10   C14   A    
Cu4   O16   S    
C23   H35   S    
C38   H10   S    
C36   N4    A    
C32   O10   A    
C47   H19   S    
C45   H17   S    
C16   C56   A    
C35   N3    A    
C16   C33   S    
C43   C45   A    
C28   N2    A    
C45   C49   A    
C41   H13   S    
C40   H12   S    
C41   C47   A    
C5    C61   A    
C42   C48   A    
Cu2   O4    S    
C57   C61   A    
C17   H31   S    
C7    C63   A    
C39   H11   S    
C8    C64   A    
Cu3   O5    S    
C14   C54   A    
C1    O1    A    
C21   C23   A    
C3    O7    A    
Cu1   O10   S    
C22   C24   A    
C52   H24   S    
C22   H6    S    
C40   C44   A    
C9    H25   S    
C11   H27   S    
C7    C9    A    
C4    O4    A    
Cu1   O2    S    
C59   C63   A    
C35   H7    S    
C49   H21   S    
C44   H16   S    
Cu4   O15   S    
C47   C51   A    
C5    C11   A    
C29   H29   S    
C25   C27   A    
C29   C35   A    
C30   H30   S    
C26   C28   A    
C30   C36   A    
C60   C64   A    
C6    C62   A    
C55   C57   A    
C1    O5    A    
C7    H3    S    
C19   H33   S    
C37   H9    S    
C3    O3    A    
C49   C53   A    
C2    O2    A    
C17   C19   A    
C56   C58   A    
C51   C55   A    
C23   C25   A    
Cu2   O3    S    
C37   C41   A    
Cu3   O6    S    
C48   C52   A    
C32   O14   A    
C8    C10   A    
Cu2   O12   S    
Cu4   O8    S    
C12   H28   S    
C31   O13   A    
Cu3   O13   S    
C27   N1    A    
Cu1   O1    S    
C37   C57   A    
C52   C56   A    
C15   C55   A    
C46   H18   S    
