data_mof_unit_33737.cif
_audit_creation_date              2013-03-05T16:04:52-0500
_audit_creation_method            fapswitch 2.2
_symmetry_space_group_name_H-M    P1
_symmetry_Int_Tables_number       1
_space_group_crystal_system       triclinic
_cell_length_a                    8.725531
_cell_length_b                    14.755669
_cell_length_c                    19.058595
_cell_angle_alpha                 99.449425
_cell_angle_beta                  92.784577
_cell_angle_gamma                 92.215314
_cell_volume                      2414.95077118

loop_
_atom_site_label
_atom_site_type_symbol
_atom_site_description
_atom_site_fract_x
_atom_site_fract_y
_atom_site_fract_z
_atom_type_partial_charge
P1    P     P_3+3 0.061800 0.409390 0.339760 0.629032
O1    O     O_2   0.887710 0.436190 0.327560 -0.303937
O2    O     O_3   0.135370 0.443490 0.416520 -0.367915
O3    O     O_3   0.634420 0.609440 0.364670 -0.362340
O4    O     O_2   0.721337 0.517616 0.249819 -0.328249
O5    O     O_3   0.098031 0.293294 0.300511 -0.670362
O6    O     O_3   0.694837 0.685923 0.243353 -0.537056
H1    H     H_    0.576000 0.801575 0.266188 0.176222
C1    C     C_3   0.653603 0.784921 0.158644 0.164941
H2    H     H_    0.692452 0.727829 0.119105 0.066346
P2    P     P_3+3 0.622760 0.718740 0.547830 0.636634
P3    P     P_3+3 0.074207 0.776186 0.398914 0.682908
O7    O     O_2   0.795290 0.730930 0.525800 -0.261768
O8    O     O_3   0.044470 0.660110 0.398750 -0.374804
O9    O     O_2   0.944484 0.824000 0.441155 -0.252092
O10   O     O_3   0.610044 0.783267 0.636497 -0.651815
O11   O     O_3   0.032784 0.793553 0.311561 -0.426177
C2    C     C_3   0.125339 0.736479 0.266708 0.304207
H3    H     H_    0.099420 0.663037 0.269821 -0.066297
H4    H     H_    0.249271 0.754176 0.281001 0.010586
C3    C     C_3   0.091320 0.748715 0.189996 0.562594
H5    H     H_    0.970102 0.727055 0.173427 0.003640
C4    C     C_3   0.201848 0.740839 0.611173 1.534909
C5    C     C_3   0.288735 0.834574 0.633934 -0.168289
H6    H     H_    0.388352 0.836544 0.602711 0.113748
H7    H     H_    0.326853 0.842975 0.690733 0.122507
Ba1   Ba    Ba6+2 0.843240 0.541620 0.463500 1.803329
C6    C     C_3   0.023433 0.211618 0.314236 0.915235
C7    C     C_3   0.035484 0.134572 0.248845 0.459595
H8    H     H_    0.010769 0.162327 0.198912 0.115925
H9    H     H_    0.150868 0.106285 0.246790 0.100664
C8    C     C_3   0.677642 0.763436 0.701218 1.076487
H10   H     H_    0.717933 0.697211 0.700280 -0.030959
C9    C     C_3   0.560843 0.771458 0.758907 -1.052334
H11   H     H_    0.527191 0.843141 0.774591 0.331902
H12   H     H_    0.610573 0.748054 0.807310 0.232996
H13   H     H_    0.456788 0.727082 0.739731 0.215950
P4    P     P_3+3 0.127890 0.590690 0.660240 0.629757
O12   O     O_2   0.301980 0.563840 0.672490 -0.370611
O13   O     O_3   0.054330 0.556590 0.583490 -0.245166
O14   O     O_3   0.555270 0.390630 0.635330 -0.297059
O15   O     O_3   0.147176 0.711084 0.672123 -0.618960
P5    P     P_3+3 0.095259 0.222844 0.601328 0.689708
O16   O     O_3   0.637720 0.384870 0.467990 -0.304003
O17   O     O_3   0.145220 0.339960 0.601250 -0.376593
O18   O     O_2   0.233794 0.169911 0.570796 -0.292019
O19   O     O_3   0.100313 0.205276 0.690341 -0.424460
Ba2   Ba    Ba6+2 0.346570 0.458460 0.536510 1.789307
P6    P     P_3+3 0.605989 0.591339 0.272709 0.470136
C10   C     C_3   0.587971 0.745735 0.221199 0.098767
H14   H     H_    0.472289 0.713508 0.205297 0.066123
H15   H     H_    0.755376 0.831339 0.177880 0.139885
O20   O     O_3   0.551980 0.615210 0.532020 -0.253300
C11   C     C_3   0.447335 0.311704 0.327569 0.188389
H16   H     H_    0.347731 0.332339 0.358800 0.116797
H17   H     H_    0.524809 0.373565 0.329299 0.065813
C12   C     C_3   0.395763 0.270760 0.250559 0.512901
H18   H     H_    0.312976 0.213845 0.250162 0.037937
H19   H     H_    0.488449 0.238426 0.220347 0.164483
P7    P     P_3+3 0.559158 0.267513 0.446278 0.602944
O21   O     O_2   0.394410 0.269100 0.474240 -0.351727
O22   O     O_3   0.523184 0.242234 0.354669 -0.476680
H20   H     H_    0.166196 0.704957 0.154736 -0.014864
C13   C     C_3   0.144498 0.288255 0.735698 0.335554
H21   H     H_    0.267037 0.305974 0.729385 0.126588
H22   H     H_    0.072532 0.345412 0.724623 -0.011568
C14   C     C_3   0.123772 0.277496 0.812813 0.527828
H23   H     H_    0.170999 0.340237 0.848847 0.023016
H24   H     H_    0.999811 0.268137 0.821527 0.062731
P8    P     P_3+3 0.586396 0.406659 0.728129 0.604521
C15   C     C_3   0.657729 0.238008 0.698489 0.927295
O23   O     O_2   0.439877 0.450564 0.758388 -0.393408
O24   O     O_3   0.582135 0.296180 0.750691 -0.473092
H25   H     H_    0.586912 0.225830 0.647376 -0.035030
H26   H     H_    0.722818 0.099414 0.674836 0.043973
C16   C     C_3   0.683360 0.144800 0.720846 0.061020
H27   H     H_    0.776089 0.148352 0.762963 0.175131
C17   C     C_R   0.001781 0.464155 0.047511 -0.045737
C18   C     C_R   0.912506 0.417433 0.092072 -0.324345
C19   C     C_R   0.774223 0.367372 0.060695 0.421472
C20   C     C_R   0.735779 0.363267 0.988050 0.399214
C21   C     C_R   0.806377 0.425446 0.950483 -0.349613
C22   C     C_R   0.947636 0.468012 0.976185 -0.041057
C23   C     C_R   0.740737 0.440281 0.885295 0.846814
C24   C     C_R   0.828614 0.476312 0.835414 -0.304071
C25   C     C_R   0.980415 0.511384 0.856926 -0.080484
C26   C     C_R   0.037151 0.509309 0.928862 0.043389
C27   C     C_R   0.769544 0.475862 0.764856 0.139229
C28   C     C_R   0.858413 0.518395 0.718220 0.054711
C29   C     C_R   0.014980 0.548209 0.734885 0.079708
C30   C     C_R   0.075044 0.547445 0.807397 -0.050068
C31   C     C_R   0.147936 0.502807 0.072474 0.028389
C32   C     C_R   0.201430 0.504002 0.145215 -0.057181
C33   C     C_R   0.106761 0.466356 0.194199 -0.205863
C34   C     C_R   0.970791 0.415991 0.163415 0.875697
C35   C     C_R   0.224640 0.582012 0.833387 -0.100683
C36   C     C_R   0.281540 0.577144 0.903893 0.105319
C37   C     C_R   0.186637 0.542049 0.952166 0.022256
C38   C     C_R   0.242750 0.537762 0.023422 0.057870
C39   C     C_R   0.434097 0.605116 0.926744 -0.049387
C40   C     C_R   0.491402 0.597408 0.995572 -0.099880
C41   C     C_R   0.396019 0.565168 0.044613 0.145768
C42   C     C_R   0.353939 0.537335 0.166812 0.090418
C43   C     C_R   0.451697 0.560871 0.114475 -0.204965
C44   C     C_R   0.405477 0.545831 0.239671 0.192930
C45   C     C_R   0.305527 0.517750 0.289680 -0.472877
C46   C     C_R   0.158629 0.474061 0.269833 0.356850
H28   H     H_    0.298836 0.613046 0.799419 0.145207
H29   H     H_    0.510608 0.631096 0.890761 0.113843
H30   H     H_    0.610487 0.617977 0.010730 0.111155
H31   H     H_    0.571987 0.578350 0.127883 0.139580
H32   H     H_    0.348441 0.523233 0.344510 0.133581
C47   C     C_R   0.697489 0.937155 0.525732 0.037124
C48   C     C_R   0.520636 0.793928 0.490355 0.237618
C49   C     C_R   0.377208 0.759393 0.457066 -0.532814
C50   C     C_R   0.269990 0.818487 0.434246 0.059417
C51   C     C_R   0.313082 0.909769 0.434218 0.794006
C52   C     C_R   0.463383 0.944027 0.455953 -0.247743
C53   C     C_R   0.562711 0.890485 0.491393 -0.133692
H33   H     H_    0.343488 0.687511 0.454044 0.214108
C54   C     C_R   0.642011 0.079263 0.476797 -0.162494
C55   C     C_R   0.734164 0.031385 0.521331 -0.174416
C56   C     C_R   0.674725 0.178565 0.482870 0.233327
C57   C     C_R   0.810557 0.218374 0.520418 -0.381654
C58   C     C_R   0.910312 0.168068 0.555503 0.183485
C59   C     C_R   0.863605 0.077840 0.560890 0.685502
C60   C     C_R   0.522086 0.024391 0.432921 0.495451
H34   H     H_    0.840448 0.290518 0.522818 0.220761
H35   H     H_    0.772536 0.901564 0.557307 0.228362
S1    S     S_3+6 0.200926 0.936036 0.618299 0.112895
O25   O     O_2   0.318678 0.999363 0.594363 -0.270631
O26   O     O_2   0.077603 0.913314 0.560097 -0.175588
O27   O     O_3   0.131200 0.989021 0.694520 -0.319486
H36   H     H_    0.200998 0.975540 0.733588 0.380133
S2    S     S_3+6 0.836067 0.226506 0.329089 0.058647
O28   O     O_2   0.768406 0.140057 0.347040 -0.195283
O29   O     O_2   0.833362 0.302273 0.391063 -0.338286
O30   O     O_3   0.744966 0.250411 0.257233 -0.465985
H37   H     H_    0.717503 0.314196 0.272023 0.401283
S3    S     S_3+6 0.103483 0.176230 0.391502 0.019291
O31   O     O_2   0.109097 0.257388 0.450328 -0.295778
O32   O     O_2   0.010128 0.098057 0.412211 -0.214760
O33   O     O_3   0.276603 0.139348 0.375905 -0.516979
H38   H     H_    0.305472 0.118910 0.421082 0.391358
F1    F     F_    0.935578 0.059713 0.249377 -0.568475
S4    S     S_3+6 0.839015 0.839232 0.730464 0.013718
O34   O     O_2   0.945804 0.795315 0.777801 -0.314892
O35   O     O_2   0.917279 0.854037 0.665176 -0.224794
O36   O     O_3   0.788143 0.940510 0.775061 -0.465942
H39   H     H_    0.883601 0.980209 0.781925 0.402849
F2    F     F_    0.333118 0.333965 0.213684 -0.675954
S5    S     S_3+6 0.518308 0.846340 0.113584 0.018127
O37   O     O_2   0.468387 0.928473 0.163047 -0.160605
O38   O     O_2   0.594081 0.878212 0.052187 -0.235520
O39   O     O_3   0.364443 0.777076 0.082226 -0.552156
H40   H     H_    0.304401 0.812075 0.051222 0.398911
F3    F     F_    0.199176 0.202270 0.829034 -0.546968
F4    F     F_    0.800229 0.276209 0.687634 -0.800704
S6    S     S_3+6 0.512588 0.090024 0.744324 0.091832
O40   O     O_2   0.504016 0.101317 0.823600 -0.116749
O41   O     O_2   0.374914 0.129884 0.713170 -0.183889
O42   O     O_3   0.514487 0.977492 0.712139 -0.505749
H41   H     H_    0.566002 0.972547 0.666650 0.354306
S7    S     S_3+6 0.637508 0.314117 0.108317 0.045943
O43   O     O_2   0.614545 0.374962 0.176852 -0.267236
O44   O     O_2   0.483181 0.299232 0.068490 -0.238986
O45   O     O_3   0.702444 0.212066 0.121766 -0.407253
H42   H     H_    0.610555 0.169481 0.116970 0.387194
S8    S     S_3+6 0.644591 0.261766 0.937512 0.113628
O46   O     O_2   0.477371 0.276440 0.922418 -0.136321
O47   O     O_2   0.722370 0.242849 0.868912 -0.294325
O48   O     O_3   0.663325 0.169422 0.977995 -0.443040
H43   H     H_    0.564882 0.132898 0.967103 0.404030
S9    S     S_3+6 0.765756 0.536790 0.638496 0.021225
O49   O     O_2   0.829033 0.620181 0.614100 -0.274367
O50   O     O_2   0.788146 0.454070 0.583706 -0.243001
O51   O     O_3   0.580366 0.556707 0.649009 -0.435041
H44   H     H_    0.572808 0.580760 0.700213 0.287492
F5    F     F_    0.586840 0.425002 0.874576 -0.647413
F6    F     F_    0.910004 0.353541 0.198492 -0.636954
F7    F     F_    0.210758 0.963541 0.407378 -0.600295
F8    F     F_    0.930193 0.040899 0.613618 -0.604097
S10   S     S_3+6 0.531702 0.998804 0.337532 0.073832
O52   O     O_2   0.415034 0.924143 0.305425 -0.281416
O53   O     O_2   0.504540 0.077924 0.299320 -0.165856
O54   O     O_3   0.707053 0.959822 0.321087 -0.436280
H45   H     H_    0.713656 0.955176 0.268984 0.412730
F9    F     F_    0.117669 0.839776 0.183031 -0.560563
F10   F     F_    0.303658 0.680613 0.578868 -0.738471
F11   F     F_    0.081616 0.744303 0.562646 -0.634898

loop_
_geom_bond_atom_site_label_1
_geom_bond_atom_site_label_2
_geom_bond_distance
_ccdc_geom_bond_type
Ba1   Ba2   4.791492 S    
S2    O30   1.645090 S    
C22   C26   1.416668 A    
C5    H6    1.079102 S    
C16   S6    1.778835 S    
C40   C41   1.408375 A    
C23   F5    1.352984 S    
C2    C3    1.518849 S    
C60   S10   1.801804 S    
S8    O46   1.504216 D    
C6    S3    1.763446 S    
S3    O33   1.649361 S    
C4    F10   1.375679 S    
H26   C16   1.091009 S    
P8    C27   1.901832 S    
P5    C58   1.884330 S    
C48   C49   1.412726 A    
C29   C30   1.455967 A    
S2    O28   1.482391 D    
C1    S5    1.786689 S    
C45   H32   1.081948 S    
C24   C25   1.419477 A    
C32   C33   1.439502 A    
C4    O15   1.405289 S    
C47   H35   1.076487 S    
C6    C7    1.553522 S    
C5    H7    1.102535 S    
C54   C60   1.441166 A    
C25   C30   1.436193 A    
S10   O53   1.494447 D    
C7    F1    1.382119 S    
P4    O12   1.600424 D    
C9    H11   1.105934 S    
C51   F7    1.353527 S    
C12   H19   1.094572 S    
C8    S4    1.772427 S    
C45   C46   1.417930 A    
C12   F2    1.371060 S    
C49   C50   1.404550 A    
C9    H13   1.109004 S    
C36   C37   1.413367 A    
O2    Ba2   2.840363 S    
C50   C51   1.384447 A    
P7    O22   1.734898 S    
P1    O1    1.600065 D    
P2    C48   1.898791 S    
O13   Ba2   3.079309 S    
C52   C53   1.415213 A    
C19   S7    1.769518 S    
O3    Ba1   2.880213 S    
C30   C35   1.418475 A    
C47   C53   1.414270 A    
Ba1   O16   2.886542 S    
O5    C6    1.415617 S    
C47   C55   1.431510 A    
P3    O11   1.748351 S    
C4    C5    1.538155 S    
S6    O41   1.497176 D    
O1    Ba1   2.846755 S    
C20   S8    1.778681 S    
O8    Ba1   2.888667 S    
C1    H2    1.109452 S    
P4    Ba2   3.496106 S    
C48   C53   1.454215 A    
P2    O20   1.601180 S    
C57   H34   1.079223 S    
C26   C37   1.398751 A    
C58   C59   1.398642 A    
C35   H28   1.078457 S    
C39   H29   1.083512 S    
C3    H5    1.108531 S    
S8    O47   1.492934 D    
O4    P6    1.535632 D    
C1    H15   1.109502 S    
C28   S9    1.751860 S    
C17   C22   1.428081 A    
C20   C21   1.395959 A    
O39   H40   0.990640 S    
S4    O35   1.490842 D    
C16   H27   1.105226 S    
Ba2   O20   2.885975 S    
C11   H17   1.109735 S    
C33   C46   1.474597 A    
C57   C58   1.382800 A    
C3    H20   1.108207 S    
S4    O34   1.503016 D    
C14   H23   1.110292 S    
C13   C14   1.522554 S    
C56   C57   1.409828 A    
S3    O31   1.497589 D    
O6    P6    1.754076 S    
C14   F3    1.382008 S    
S10   O54   1.680927 S    
O45   H42   0.990520 S    
C15   O24   1.410246 S    
C17   C18   1.420695 A    
C2    H3    1.110188 S    
P6    C44   1.889893 S    
C11   O22   1.395934 S    
C17   C31   1.404873 A    
C40   H30   1.083018 S    
P1    O5    1.799505 S    
P7    O21   1.556894 D    
P1    O2    1.564458 S    
C13   H22   1.112067 S    
C55   C59   1.414798 A    
P7    C56   1.886898 S    
S1    O26   1.494908 D    
S10   O52   1.501940 D    
C18   C34   1.432149 A    
C7    H8    1.111180 S    
C15   H25   1.112880 S    
S4    O36   1.680366 S    
P2    O10   1.809043 S    
S6    O40   1.498483 D    
S5    O39   1.679158 S    
P2    Ba1   3.524846 S    
Ba1   O13   2.839780 S    
C35   C36   1.423707 A    
P8    O24   1.752380 S    
C10   H14   1.105752 S    
S6    O42   1.674032 S    
C42   C44   1.422654 A    
C23   C24   1.406997 A    
C41   C43   1.407162 A    
P5    O17   1.766105 S    
S9    O51   1.670965 S    
C54   C55   1.428477 A    
P1    C46   1.966015 S    
S5    O38   1.503110 D    
C21   C22   1.390725 A    
P3    O9    1.546245 D    
C21   C23   1.396193 A    
O27   H36   0.989342 S    
S8    O48   1.681924 S    
C59   F8    1.338718 S    
S1    O27   1.685640 S    
C52   C60   1.416692 A    
H1    C10   1.099261 S    
O19   C13   1.406642 S    
C36   C39   1.405033 A    
O48   H43   0.990717 S    
C24   C27   1.415430 A    
C3    F9    1.383313 S    
O42   H41   0.989241 S    
O17   Ba2   2.889288 S    
S2    O29   1.488859 D    
C15   F4    1.384075 S    
C11   H16   1.101611 S    
S7    O43   1.485462 D    
C25   C26   1.440356 A    
S7    O45   1.683108 S    
O7    Ba1   2.904732 S    
C1    C10   1.533217 S    
C6    S2    1.689233 S    
P3    O8    1.721846 S    
C19   C20   1.399599 A    
O12   Ba2   2.847299 S    
C43   H31   1.079276 S    
P8    O23   1.549102 D    
Ba1   O20   3.068121 S    
P4    O15   1.754031 S    
S3    O32   1.502651 D    
O10   C8    1.419922 S    
C44   C45   1.422388 A    
P4    C29   1.941312 S    
O11   C2    1.405498 S    
O3    P6    1.733082 S    
C8    H10   1.048923 S    
S7    O44   1.503583 D    
S1    O25   1.499395 D    
C28   C29   1.423454 A    
C7    H9    1.104688 S    
O16   Ba2   3.067295 S    
O36   H39   0.990218 S    
C13   H21   1.107821 S    
P4    O13   1.564261 S    
P2    O7    1.593796 D    
C12   H18   1.085203 S    
C15   C16   1.526466 S    
O16   P7    1.812516 S    
O6    C10   1.405129 S    
O2    Ba1   3.078482 S    
C31   C32   1.438260 A    
O14   Ba2   2.879509 S    
C2    H4    1.112627 S    
C49   H33   1.081237 S    
C33   C34   1.423066 A    
P5    O18   1.549812 D    
S9    O50   1.496044 D    
C54   C56   1.466506 A    
O30   H37   0.979602 S    
O51   H44   0.988428 S    
C18   C19   1.440505 A    
C5    S1    1.769254 S    
C34   F6    1.332791 S    
C38   C41   1.402578 A    
C27   C28   1.413402 A    
C9    H12   1.111688 S    
C37   C38   1.433184 A    
Ba2   O21   2.905055 S    
C42   C43   1.420089 A    
P1    Ba1   3.495595 S    
O14   P8    1.751777 S    
C39   C40   1.404758 A    
S5    O37   1.500918 D    
C14   H24   1.109051 S    
O54   H45   0.988744 S    
C51   C52   1.405080 A    
P5    O19   1.756473 S    
C11   C12   1.531444 S    
C4    F11   1.372576 S    
O33   H38   0.982744 S    
C31   C38   1.422999 A    
C8    C9    1.528702 S    
C32   C42   1.418404 A    
P3    C50   1.851799 S    
S9    O49   1.481685 D    
