data_mof_unit_18221.cif
_audit_creation_date              2012-12-11T17:07:36-0500
_audit_creation_method            fapswitch 2.2
_symmetry_space_group_name_H-M    P1
_symmetry_Int_Tables_number       1
_space_group_crystal_system       triclinic
_cell_length_a                    17.422046
_cell_length_b                    17.642188
_cell_length_c                    17.874813
_cell_angle_alpha                 89.887324
_cell_angle_beta                  90.193652
_cell_angle_gamma                 90.440041
_cell_volume                      5493.85258483

loop_
_atom_site_label
_atom_site_type_symbol
_atom_type_description
_atom_site_fract_x
_atom_site_fract_y
_atom_site_fract_z
_atom_type_partial_charge
C1    C     C_R   0.412241 0.322359 0.865119 0.582076
C2    C     C_R   0.199207 0.891183 0.412104 0.678167
C3    C     C_R   0.740977 0.841866 0.233335 0.463959
C4    C     C_R   0.206788 0.275131 0.713899 0.310420
C5    C     C_R   0.245633 0.840611 0.778670 0.400515
C6    C     C_R   0.787418 0.689898 0.669084 0.465911
C7    C     C_R   0.732116 0.189799 0.741149 0.444242
C8    C     C_R   0.712319 0.203031 0.815266 0.351112
C9    C     C_R   0.758096 0.663997 0.737320 0.443288
C10   C     C_R   0.269735 0.811777 0.848047 0.495907
C11   C     C_R   0.249498 0.338053 0.734559 0.444198
C12   C     C_R   0.710474 0.813449 0.166178 0.465181
C13   C     C_R   0.100611 0.186849 0.378447 0.605571
C14   C     C_R   0.776350 0.302922 0.230981 0.420131
C15   C     C_R   0.281522 0.188610 0.162548 0.460279
C16   C     C_R   0.259946 0.658119 0.280823 0.370165
C17   C     C_3   0.355495 0.218351 0.918386 -0.085536
C18   C     C_3   0.792349 0.431553 0.978114 0.036522
C19   C     C_3   0.666306 0.790915 0.927792 -0.061918
C20   C     C_3   0.211026 0.633879 0.009685 -0.004909
C21   C     C_3   0.442928 0.784440 0.052485 0.106951
C22   C     C_3   0.784605 0.641803 0.991687 -0.045387
C23   C     C_3   0.555344 0.207056 0.074027 0.091386
C24   C     C_R   0.804297 0.111972 0.399873 0.621942
C25   C     C_3   0.208571 0.358363 0.998262 0.072929
C26   C     C_3   0.838298 0.713050 0.427431 -0.128098
C27   C     C_3   0.282181 0.864183 0.510215 -0.069890
C28   C     C_3   0.183745 0.271058 0.434485 -0.007041
C29   C     C_3   0.704772 0.063253 0.464302 -0.064172
C30   C     C_3   0.855281 0.301792 0.579828 0.116899
C31   C     C_3   0.287998 0.072702 0.515850 -0.029426
C32   C     C_3   0.041821 0.716197 0.560378 0.092339
C33   C     C_3   0.712637 0.860036 0.492627 -0.081809
C34   C     C_3   0.934282 0.151762 0.845255 -0.054067
C35   C     C_R   0.904027 0.187972 0.621117 0.617641
C36   C     C_3   0.724281 0.902996 0.754557 -0.047217
C37   C     C_3   0.005179 0.715143 0.835932 -0.001547
C38   C     C_3   0.339324 0.093278 0.744738 -0.015182
C39   C     C_3   0.014521 0.812408 0.206516 -0.073383
C40   C     C_3   0.555748 0.151028 0.374433 -0.145619
C41   C     C_3   0.988126 0.204123 0.216246 -0.019544
C42   C     C_3   0.268281 0.901353 0.229672 0.008698
C43   C     C_3   0.491920 0.752220 0.363561 -0.037177
C44   C     C_3   0.216134 0.400776 0.272726 -0.048727
C45   C     C_3   0.590164 0.441470 0.301617 -0.100827
C46   C     C_R   0.197644 0.103573 0.600840 0.592006
C47   C     C_3   0.795354 0.603870 0.251969 -0.047296
C48   C     C_3   0.517041 0.335907 0.691152 -0.044974
C49   C     C_3   0.269853 0.610861 0.733129 -0.052693
C50   C     C_3   0.490097 0.706098 0.703405 -0.048365
C51   C     C_3   0.868070 0.438821 0.770166 -0.037501
C52   C     C_3   0.029960 0.359604 0.758466 0.119103
C53   C     C_3   0.549312 0.924596 0.599156 -0.108406
C54   C     C_3   0.084792 0.573736 0.665911 -0.085350
C55   C     C_3   0.468214 0.129573 0.550467 -0.204466
C56   C     C_3   0.993037 0.616327 0.265661 0.069803
C57   C     C_R   0.091510 0.815194 0.626187 0.546404
C58   C     C_3   0.624770 0.326965 0.514698 -0.028895
C59   C     C_3   0.013889 0.393091 0.289156 0.038475
C60   C     C_3   0.437347 0.956576 0.388442 -0.162748
C61   C     C_3   0.469082 0.925598 0.206396 0.054692
C62   C     C_3   0.051130 0.432781 0.108785 -0.184989
C63   C     C_3   0.473868 0.325605 0.385274 -0.103171
C64   C     C_3   0.956199 0.595291 0.080798 -0.174656
C65   C     C_3   0.521730 0.135135 0.739737 0.116971
C66   C     C_3   0.071966 0.533390 0.855093 -0.106935
C67   C     C_3   0.533029 0.904113 0.789993 0.051426
C68   C     C_R   0.801712 0.887030 0.585392 0.649283
C69   C     C_3   0.966000 0.328332 0.953844 -0.126461
C70   C     C_3   0.928709 0.275778 0.789499 0.866613
C71   C     C_3   0.634191 0.846179 0.665811 0.944972
C72   C     C_3   0.105841 0.669989 0.755128 0.916126
C73   C     C_R   0.697265 0.394638 0.900316 0.584713
C74   C     C_3   0.387099 0.173738 0.645478 0.905028
C75   C     C_3   0.922960 0.714401 0.209541 0.821107
C76   C     C_3   0.636300 0.260654 0.402099 0.860475
C77   C     C_3   0.081332 0.299879 0.224548 0.805330
C78   C     C_3   0.360237 0.866592 0.325657 0.886293
C79   C     C_3   0.415945 0.823159 0.275125 0.939787
C80   C     C_3   0.133357 0.351655 0.175485 0.948163
C81   C     C_3   0.600545 0.314119 0.343191 0.824267
C82   C     C_3   0.872686 0.665953 0.156936 0.967480
C83   C     C_3   0.437727 0.229023 0.692843 0.824612
C84   C     C_R   0.599790 0.687833 0.879847 0.592297
C85   C     C_3   0.156894 0.629393 0.812245 0.907911
C86   C     C_3   0.584677 0.801967 0.722401 0.860319
C87   C     C_3   0.887038 0.327597 0.847027 0.854479
C88   C     C_R   0.391118 0.695198 0.898739 0.329339
C89   C     C_R   0.328247 0.417710 0.859941 0.442989
C90   C     C_R   0.608337 0.305334 0.896952 0.366922
C91   C     C_R   0.666174 0.582810 0.855658 0.510752
C92   C     C_R   0.393758 0.307252 0.110554 0.470072
C93   C     C_R   0.337581 0.581513 0.146668 0.488287
C94   C     C_R   0.603865 0.692448 0.112215 0.502540
C95   C     C_R   0.300841 0.609678 0.916787 0.691924
C96   C     C_R   0.680597 0.410417 0.132869 0.349254
C97   C     C_R   0.897581 0.197005 0.400066 0.346977
C98   C     C_R   0.833815 0.919598 0.355123 0.498162
C99   C     C_R   0.108908 0.805196 0.397465 0.338686
C100  C     C_R   0.164587 0.079791 0.355238 0.480088
C101  C     C_R   0.895312 0.808837 0.613837 0.508550
C102  C     C_R   0.817716 0.094005 0.629658 0.399617
C103  C     C_R   0.109839 0.193646 0.604776 0.503839
C104  C     C_R   0.166337 0.916248 0.645002 0.471866
C105  C     C_R   0.358011 0.356794 0.819799 -0.283642
C106  C     C_R   0.408520 0.684242 0.126367 0.531873
C107  C     C_R   0.685545 0.320208 0.881589 -0.186508
C108  C     C_R   0.653676 0.657077 0.831831 -0.229852
C109  C     C_R   0.312337 0.684591 0.896051 -0.255499
C110  C     C_R   0.354812 0.654913 0.174569 -0.122828
C111  C     C_R   0.683003 0.687349 0.108838 -0.263851
C112  C     C_R   0.658289 0.343912 0.166870 -0.123588
C113  C     C_R   0.314702 0.315319 0.108679 -0.278642
C114  C     C_R   0.847520 0.847377 0.328231 -0.226067
C115  C     C_R   0.187422 0.817337 0.389919 -0.206734
C116  C     C_R   0.152888 0.153250 0.330356 -0.221669
C117  C     C_R   0.697950 0.614224 0.085653 0.641126
C118  C     C_R   0.821625 0.187220 0.383141 -0.225852
C119  C     C_R   0.841386 0.162667 0.660461 -0.224086
C120  C     C_R   0.185930 0.176114 0.623273 -0.221192
C121  C     C_R   0.149866 0.842401 0.671619 -0.122098
C122  C     C_R   0.816132 0.813943 0.608589 -0.267227
C123  C     C_R   0.810305 0.299089 0.816896 -0.144479
C124  C     C_R   0.645638 0.740204 0.716271 -0.288537
C125  C     C_R   0.187490 0.706171 0.831947 -0.329518
C126  C     C_R   0.363118 0.270552 0.706452 -0.219211
C127  C     C_R   0.815383 0.729044 0.156685 -0.206815
C128  C     C_R   0.595091 0.317001 0.129686 0.547399
C129  C     C_R   0.654743 0.276892 0.288871 -0.162106
C130  C     C_R   0.186856 0.285114 0.169465 -0.216828
C131  C     C_R   0.358268 0.755534 0.279227 -0.237903
C132  C     C_R   0.316888 0.793487 0.333041 -0.316205
C133  C     C_R   0.147390 0.244049 0.221759 -0.256266
C134  C     C_R   0.693448 0.235809 0.344368 -0.119066
C135  C     C_R   0.855128 0.768868 0.210540 -0.245818
C136  C     C_R   0.320144 0.225162 0.659633 -0.167483
C137  C     C_R   0.148509 0.743192 0.775543 -0.215133
C138  C     C_R   0.684629 0.777719 0.660219 -0.206270
C139  C     C_R   0.301028 0.388859 0.086352 0.681656
C140  C     C_R   0.848228 0.255926 0.764932 -0.328053
C141  C     C_R   0.742181 0.269213 0.848609 0.090985
C142  C     C_R   0.685591 0.689426 0.762899 -0.022816
C143  C     C_R   0.253190 0.735893 0.865713 -0.039516
C144  C     C_R   0.326456 0.324614 0.751384 0.044185
C145  C     C_R   0.738375 0.744249 0.138778 -0.091174
C146  C     C_R   0.696262 0.307249 0.228612 0.036602
C147  C     C_R   0.258587 0.262395 0.142448 -0.071267
C148  C     C_R   0.326075 0.689663 0.244753 -0.002039
C149  C     C_R   0.248234 0.765607 0.363170 -0.038958
C150  C     C_R   0.901647 0.814751 0.375406 0.586408
C151  C     C_R   0.183431 0.184871 0.260491 -0.040122
C152  C     C_R   0.773307 0.245493 0.350207 0.071967
C153  C     C_R   0.814934 0.817759 0.258304 -0.047839
C154  C     C_R   0.239237 0.226160 0.661881 0.039459
C155  C     C_R   0.181071 0.807775 0.741046 -0.012910
C156  C     C_R   0.760282 0.759065 0.640426 -0.075337
C157  C     C_R   0.808604 0.201400 0.723178 0.011093
C158  C     C_R   0.232370 0.689503 0.347264 0.484362
C159  C     C_R   0.252531 0.156778 0.228785 0.453325
C160  C     C_R   0.809621 0.296042 0.300803 0.337682
Cl1   Cl    Cl    0.440302 0.775685 0.870535 -0.616220
Cl2   Cl    Cl    0.829659 0.993090 0.287895 -0.593548
Cl3   Cl    Cl    0.062395 0.719428 0.386305 -0.636366
Cl4   Cl    Cl    0.146598 0.010457 0.287440 -0.709459
Cl5   Cl    Cl    0.923264 0.799698 0.707540 -0.623380
Cl6   Cl    Cl    0.730018 0.049518 0.644588 -0.650846
Cl7   Cl    Cl    0.079762 0.286109 0.584939 -0.526663
Cl8   Cl    Cl    0.161608 0.987383 0.714021 -0.601716
Cl9   Cl    Cl    0.204049 0.626695 0.419200 -0.583835
Cl10  Cl    Cl    0.314795 0.096077 0.277857 -0.621915
Cl11  Cl    Cl    0.828157 0.385968 0.339725 -0.584645
Cl12  Cl    Cl    0.235564 0.450217 0.854320 -0.633880
Cl13  Cl    Cl    0.677259 0.893907 0.290301 -0.601025
Cl14  Cl    Cl    0.153970 0.230423 0.785596 -0.659390
Cl15  Cl    Cl    0.313875 0.897949 0.732239 -0.643453
Cl16  Cl    Cl    0.862727 0.639657 0.626095 -0.642051
Cl17  Cl    Cl    0.668269 0.220010 0.671437 -0.738779
Cl18  Cl    Cl    0.715432 0.121345 0.871897 -0.621006
Cl19  Cl    Cl    0.822607 0.616187 0.796799 -0.682451
Cl20  Cl    Cl    0.306369 0.875142 0.915826 -0.575490
Cl21  Cl    Cl    0.234104 0.417329 0.676986 -0.641992
Cl22  Cl    Cl    0.635692 0.862498 0.120145 -0.613370
Cl23  Cl    Cl    0.566645 0.215537 0.902747 -0.624949
Cl24  Cl    Cl    0.834957 0.307000 0.150882 -0.638026
Cl25  Cl    Cl    0.350350 0.138149 0.109981 -0.614794
Cl26  Cl    Cl    0.195177 0.595025 0.236958 -0.665714
Cl27  Cl    Cl    0.665789 0.512092 0.786025 -0.711274
Cl28  Cl    Cl    0.426960 0.280125 0.199154 -0.548310
Cl29  Cl    Cl    0.346534 0.507559 0.211833 -0.664771
Cl30  Cl    Cl    0.570857 0.710004 0.203023 -0.604791
Cl31  Cl    Cl    0.759337 0.464726 0.158199 -0.624163
Cl32  Cl    Cl    0.943373 0.282001 0.423586 -0.537102
H1    H     H_    0.298887 0.228467 0.891396 0.131295
H2    H     H_    0.257789 0.667357 0.036689 0.034296
H3    H     H_    0.583608 0.976393 0.611340 0.199968
H4    H     H_    0.500752 0.918479 0.638575 0.145928
H5    H     H_    0.524160 0.932555 0.542883 0.137515
H6    H     H_    0.022312 0.574430 0.678052 0.191413
H7    H     H_    0.112793 0.526196 0.694976 0.171067
H8    H     H_    0.091247 0.561747 0.605401 0.190278
H9    H     H_    0.469358 0.074528 0.580644 0.137886
H10   H     H_    0.522576 0.161395 0.558875 0.219606
H11   H     H_    0.463878 0.115198 0.490561 0.149765
H12   H     H_    0.046902 0.637306 0.240074 0.195799
H13   H     H_    0.180907 0.601746 0.054360 0.177717
H14   H     H_    0.968390 0.569126 0.232676 0.067385
H15   H     H_    0.007446 0.590809 0.320598 0.212461
H16   H     H_    0.589054 0.281197 0.539424 0.208910
H17   H     H_    0.587998 0.372378 0.491555 0.114331
H18   H     H_    0.659214 0.352591 0.560525 0.171907
H19   H     H_    0.961261 0.379163 0.256794 0.193365
H20   H     H_    0.043397 0.443139 0.265012 0.087411
H21   H     H_    0.996360 0.410453 0.346055 0.233134
H22   H     H_    0.404727 0.003209 0.362354 0.217832
H23   H     H_    0.492285 0.946695 0.359141 0.148218
H24   H     H_    0.168986 0.673363 0.984504 0.155255
H25   H     H_    0.451965 0.976166 0.445474 0.119225
H26   H     H_    0.526170 0.915325 0.231653 0.223926
H27   H     H_    0.439862 0.973077 0.234567 0.136650
H28   H     H_    0.479184 0.944360 0.148019 0.181758
H29   H     H_    0.079519 0.482666 0.135042 0.195600
H30   H     H_    0.995985 0.418851 0.136427 0.160306
H31   H     H_    0.037481 0.450048 0.050691 0.128171
H32   H     H_    0.480659 0.387204 0.395970 0.137849
H33   H     H_    0.482783 0.293093 0.437690 0.138049
H34   H     H_    0.413333 0.316006 0.368095 0.190190
H35   H     H_    0.385731 0.781467 0.024918 0.121657
H36   H     H_    0.927388 0.541478 0.097334 0.194582
H37   H     H_    0.009584 0.605571 0.113140 0.128515
H38   H     H_    0.973532 0.588592 0.021523 0.153589
H39   H     H_    0.574736 0.140334 0.773006 0.220658
H40   H     H_    0.539008 0.132036 0.680580 0.111716
H41   H     H_    0.495221 0.080568 0.756744 0.101597
H42   H     H_    0.098472 0.496999 0.812618 0.170791
H43   H     H_    0.013994 0.550770 0.836558 0.159422
H44   H     H_    0.064212 0.498178 0.905995 0.160755
H45   H     H_    0.475233 0.891675 0.766797 0.216071
H46   H     H_    0.487699 0.755098 0.019860 0.138794
H47   H     H_    0.559901 0.951752 0.759124 0.078697
H48   H     H_    0.524795 0.924129 0.848179 0.197681
H49   H     H_    0.976383 0.390038 0.946634 0.120504
H50   H     H_    0.014533 0.295417 0.931150 0.167387
H51   H     H_    0.964369 0.317123 0.014885 0.231032
H52   H     H_    0.459846 0.845036 0.054794 0.201954
H53   H     H_    0.805485 0.697859 0.010687 0.158112
H54   H     H_    0.736141 0.654597 0.955794 0.046419
H55   H     H_    0.829934 0.615144 0.957532 0.208395
H56   H     H_    0.611389 0.201575 0.045019 0.153468
H57   H     H_    0.357690 0.244137 0.974792 0.109224
H58   H     H_    0.511042 0.235260 0.039310 0.138809
H59   H     H_    0.534162 0.148892 0.086164 0.198349
H60   H     H_    0.185808 0.306085 0.024285 0.129978
H61   H     H_    0.254369 0.340104 0.960073 0.056128
H62   H     H_    0.160106 0.382387 0.965923 0.189189
H63   H     H_    0.786023 0.726483 0.394261 0.093070
H64   H     H_    0.833853 0.736189 0.484536 0.121247
H65   H     H_    0.841027 0.650477 0.432694 0.204051
H66   H     H_    0.232182 0.832212 0.532761 0.051964
H67   H     H_    0.308555 0.896998 0.556625 0.196750
H68   H     H_    0.361609 0.156255 0.925751 0.211051
H69   H     H_    0.324665 0.821800 0.491751 0.183665
H70   H     H_    0.227973 0.268350 0.389979 0.070021
H71   H     H_    0.197595 0.228884 0.478394 0.070635
H72   H     H_    0.187372 0.328254 0.459951 0.203098
H73   H     H_    0.693104 0.116237 0.495761 0.189694
H74   H     H_    0.746069 0.028389 0.495248 0.180668
H75   H     H_    0.650733 0.030087 0.459619 0.161422
H76   H     H_    0.822023 0.268713 0.537542 0.125984
H77   H     H_    0.873730 0.355727 0.553208 0.198028
H78   H     H_    0.817542 0.317158 0.627077 0.102170
H79   H     H_    0.794299 0.373457 0.002372 0.176909
H80   H     H_    0.291691 0.132231 0.495633 0.117639
H81   H     H_    0.248087 0.041062 0.480673 0.142422
H82   H     H_    0.344321 0.045224 0.508823 0.185196
H83   H     H_    0.098687 0.704414 0.535011 0.161736
H84   H     H_    0.005591 0.751545 0.523689 0.119500
H85   H     H_    0.010712 0.661671 0.565553 0.195639
H86   H     H_    0.688371 0.806041 0.513819 0.160816
H87   H     H_    0.760439 0.845127 0.456237 0.054604
H88   H     H_    0.668043 0.887645 0.457870 0.201450
H89   H     H_    0.916703 0.117205 0.796236 0.134964
H90   H     H_    0.754485 0.467471 0.010920 0.174501
H91   H     H_    0.884278 0.165408 0.880964 0.168228
H92   H     H_    0.973543 0.116552 0.879453 0.189051
H93   H     H_    0.782941 0.919322 0.736574 0.179616
H94   H     H_    0.727242 0.845516 0.778677 0.089376
H95   H     H_    0.707705 0.942197 0.800068 0.193407
H96   H     H_    0.017564 0.776361 0.827479 0.170756
H97   H     H_    0.033221 0.696250 0.888173 0.106021
H98   H     H_    0.942669 0.709601 0.845416 0.211915
H99   H     H_    0.276990 0.088564 0.735070 0.230891
H100  H     H_    0.349437 0.141264 0.783008 0.123120
H101  H     H_    0.850828 0.456698 0.980631 0.177393
H102  H     H_    0.358497 0.041917 0.774861 0.211869
H103  H     H_    0.014418 0.808970 0.268300 0.167775
H104  H     H_    0.978996 0.860952 0.187809 0.160016
H105  H     H_    0.074484 0.823598 0.188704 0.156357
H106  H     H_    0.586379 0.147489 0.320412 0.195046
H107  H     H_    0.495398 0.167716 0.364270 0.207327
H108  H     H_    0.553509 0.092441 0.396539 0.126435
H109  H     H_    0.979423 0.209356 0.277217 0.132387
H110  H     H_    0.027091 0.156272 0.203816 0.141344
H111  H     H_    0.931996 0.189582 0.190644 0.199153
H112  H     H_    0.714430 0.777911 0.889490 0.089650
H113  H     H_    0.213089 0.878983 0.251214 0.129040
H114  H     H_    0.291810 0.857285 0.192665 0.111735
H115  H     H_    0.256685 0.950810 0.193102 0.233225
H116  H     H_    0.481183 0.695565 0.338447 0.161818
H117  H     H_    0.451113 0.762474 0.409870 0.119876
H118  H     H_    0.550350 0.751355 0.388391 0.167048
H119  H     H_    0.271034 0.375538 0.254468 0.167381
H120  H     H_    0.189361 0.363901 0.314642 0.129416
H121  H     H_    0.229174 0.454190 0.302679 0.254285
H122  H     H_    0.554876 0.413998 0.257218 0.168463
H123  H     H_    0.679120 0.770113 0.984670 0.113245
H124  H     H_    0.638558 0.472277 0.274979 0.176158
H125  H     H_    0.553994 0.484391 0.329529 0.155270
H126  H     H_    0.734262 0.604128 0.234652 0.153717
H127  H     H_    0.805840 0.654330 0.286685 0.105181
H128  H     H_    0.804091 0.554044 0.288841 0.223010
H129  H     H_    0.540944 0.319219 0.746458 0.183731
H130  H     H_    0.471282 0.378752 0.698030 0.118922
H131  H     H_    0.564056 0.363824 0.659718 0.157659
H132  H     H_    0.326304 0.607015 0.761528 0.103964
H133  H     H_    0.260848 0.669992 0.714632 0.098283
H134  H     H_    0.662385 0.853528 0.931223 0.202263
H135  H     H_    0.273457 0.576288 0.681619 0.218264
H136  H     H_    0.503949 0.685814 0.760508 0.147014
H137  H     H_    0.518397 0.669671 0.661221 0.123839
H138  H     H_    0.427148 0.700336 0.695534 0.146141
H139  H     H_    0.807833 0.454769 0.778184 0.263079
H140  H     H_    0.870116 0.401483 0.720746 0.114781
H141  H     H_    0.901293 0.490421 0.755393 0.200179
H142  H     H_    0.047683 0.348046 0.817042 0.101890
H143  H     H_    0.014862 0.419816 0.752023 0.057621
H144  H     H_    0.079945 0.352776 0.721936 0.213313
N1    N     N_R   0.425360 0.368540 0.922560 -0.154414
N2    N     N_R   0.131460 0.925360 0.422560 -0.107375
N3    N     N_R   0.074640 0.131460 0.422560 -0.124951
N4    N     N_R   0.868540 0.074640 0.422560 -0.122071
N5    N     N_R   0.925360 0.131460 0.577440 -0.129927
N6    N     N_R   0.131460 0.074640 0.577440 -0.123207
N7    N     N_R   0.074640 0.868540 0.577440 -0.156421
N8    N     N_R   0.868540 0.925360 0.577440 -0.124615
N9    N     N_R   0.425340 0.631500 0.922560 -0.144439
N10   N     N_R   0.368500 0.425340 0.922560 -0.130719
N11   N     N_R   0.574660 0.368500 0.922560 -0.128437
N12   N     N_R   0.631460 0.425360 0.922560 -0.114642
N13   N     N_R   0.631500 0.574660 0.922560 -0.140410
N14   N     N_R   0.425340 0.368500 0.077440 -0.132804
N15   N     N_R   0.368500 0.574660 0.077440 -0.130284
N16   N     N_R   0.574660 0.631500 0.077440 -0.139193
N17   N     N_R   0.631500 0.425340 0.077440 -0.145127
N18   N     N_R   0.925340 0.131500 0.422560 -0.119308
N19   N     N_R   0.868500 0.925340 0.422560 -0.150054
N20   N     N_R   0.074660 0.868500 0.422560 -0.123832
N21   N     N_R   0.131500 0.074660 0.422560 -0.167237
N22   N     N_R   0.925340 0.868500 0.577440 -0.137286
N23   N     N_R   0.574640 0.631460 0.922560 -0.146747
N24   N     N_R   0.868500 0.074660 0.577440 -0.150227
N25   N     N_R   0.074660 0.131500 0.577440 -0.115916
N26   N     N_R   0.131500 0.925340 0.577440 -0.138179
N27   N     N_R   0.368540 0.574640 0.922560 -0.134115
N28   N     N_R   0.425360 0.631460 0.077440 -0.159697
N29   N     N_R   0.631460 0.574640 0.077440 -0.124278
N30   N     N_R   0.574640 0.368540 0.077440 -0.150926
N31   N     N_R   0.368540 0.425360 0.077440 -0.090177
N32   N     N_R   0.925360 0.868540 0.422560 -0.145721
Ni1   Ni    Ni4+2 0.500000 0.369720 0.000000 0.215103
Ni2   Ni    Ni4+2 0.630280 0.500000 0.000000 0.230761
Ni3   Ni    Ni4+2 0.500000 0.630280 0.000000 0.216691
Ni4   Ni    Ni4+2 0.369720 0.500000 0.000000 0.296728
Ni5   Ni    Ni4+2 1.000000 0.869720 0.500000 0.223638
Ni6   Ni    Ni4+2 0.130280 0.000000 0.500000 0.240535
Ni7   Ni    Ni4+2 1.000000 0.130280 0.500000 0.324508
Ni8   Ni    Ni4+2 0.869720 0.000000 0.500000 0.235750
O1    O     O_3   0.416152 0.244841 0.873081 -0.538603
O2    O     O_3   0.263576 0.915058 0.451162 -0.618219
O3    O     O_3   0.108645 0.259788 0.405854 -0.511845
O4    O     O_3   0.732316 0.079673 0.392576 -0.581043
O5    O     O_3   0.921397 0.262816 0.604734 -0.536373
O6    O     O_3   0.266875 0.068101 0.591541 -0.573757
O7    O     O_3   0.051235 0.748445 0.631837 -0.551666
O8    O     O_3   0.734616 0.910229 0.550898 -0.588484
O9    O     O_3   0.974748 0.217349 0.822024 -0.609098
O10   O     O_3   0.672396 0.912493 0.693607 -0.612757
O11   O     O_3   0.025198 0.671405 0.771951 -0.587747
O12   O     O_3   0.767018 0.431258 0.903806 -0.609926
O13   O     O_3   0.379333 0.098492 0.675630 -0.651014
O14   O     O_3   0.988636 0.744761 0.172438 -0.652153
O15   O     O_3   0.590015 0.198926 0.429534 -0.692789
O16   O     O_3   0.015838 0.272508 0.184673 -0.626916
O17   O     O_3   0.316817 0.925399 0.289858 -0.600244
O18   O     O_3   0.489861 0.810016 0.308385 -0.591409
O19   O     O_3   0.167634 0.416846 0.210766 -0.616272
O20   O     O_3   0.619856 0.391652 0.356535 -0.643636
O21   O     O_3   0.843821 0.596607 0.188182 -0.607460
O22   O     O_3   0.490096 0.272768 0.649720 -0.652981
O23   O     O_3   0.594712 0.762133 0.903460 -0.540610
O24   O     O_3   0.211872 0.579210 0.779980 -0.580831
O25   O     O_3   0.511012 0.782720 0.691989 -0.631709
O26   O     O_3   0.899537 0.407565 0.837009 -0.673264
O27   O     O_3   0.969107 0.313616 0.731573 -0.596848
O28   O     O_3   0.594717 0.858731 0.597350 -0.629298
O29   O     O_3   0.121808 0.643704 0.681697 -0.637705
O30   O     O_3   0.404697 0.175214 0.568164 -0.637430
O31   O     O_3   0.940685 0.676249 0.277005 -0.607098
O32   O     O_3   0.675882 0.298734 0.460808 -0.623730
O33   O     O_3   0.063180 0.330203 0.295403 -0.620507
O34   O     O_3   0.237853 0.581635 0.955786 -0.539569
O35   O     O_3   0.393939 0.889083 0.394589 -0.624856
O36   O     O_3   0.422352 0.859741 0.204685 -0.628154
O37   O     O_3   0.098637 0.368532 0.105684 -0.629267
O38   O     O_3   0.522028 0.300066 0.327062 -0.601152
O39   O     O_3   0.906754 0.657881 0.085371 -0.628196
O40   O     O_3   0.472107 0.195883 0.757048 -0.612739
O41   O     O_3   0.117796 0.596781 0.874211 -0.623963
O42   O     O_3   0.580537 0.839260 0.792146 -0.615624
O43   O     O_3   0.895279 0.304397 0.922760 -0.640188
O44   O     O_3   0.439122 0.755726 0.125731 -0.563355
O45   O     O_3   0.765355 0.592331 0.051448 -0.591163
O46   O     O_3   0.565491 0.245148 0.141686 -0.585644
O47   O     O_3   0.234806 0.413363 0.050801 -0.575760
O48   O     O_3   0.906334 0.738840 0.393163 -0.529499

loop_
_geom_bond_atom_site_label_1
_geom_bond_atom_site_label_2
_ccdc_geom_bond_type
C51   H141  S    
C70   C140  S    
C34   H92   S    
C44   H120  S    
C29   O4    S    
C11   Cl21  S    
C36   H94   S    
C74   C83   S    
C108  C142  S    
C41   H111  S    
N18   Ni7   S    
C15   Cl25  S    
C95   N27   A    
C66   H42   S    
C96   Cl31  S    
C17   O1    S    
C60   H23   S    
C90   C107  A    
C64   H37   S    
C69   H50   S    
C98   C114  A    
C61   O36   S    
C94   C111  A    
C7    Cl17  S    
C62   H29   S    
C23   H56   S    
C18   H79   S    
N19   Ni8   S    
C97   Cl32  S    
C99   N20   A    
C73   N12   A    
C37   H98   S    
C133  C151  A    
C57   O7    S    
N16   Ni3   S    
N31   Ni4   S    
N3    N21   A    
C93   C110  A    
C95   O34   S    
C126  C136  A    
C29   H74   S    
C73   C107  A    
C30   H77   S    
C106  N28   A    
C45   H125  S    
C98   Cl2   S    
C21   H35   S    
C16   C158  A    
C40   H108  S    
C95   C109  A    
C17   H1    S    
C70   O27   S    
C48   H130  S    
C5    C155  A    
N11   Ni1   S    
N23   Ni3   S    
C94   Cl30  S    
C45   H124  S    
C32   H84   S    
C49   H132  S    
C81   C129  S    
N4    Ni8   S    
C55   H11   S    
C123  C141  A    
C104  N26   A    
N6    Ni6   S    
C25   O47   S    
C17   H68   S    
C26   O48   S    
N5    N24   A    
C127  C145  A    
C86   O42   S    
C88   C109  A    
C18   H101  S    
C51   H139  S    
C47   H127  S    
C13   O3    S    
C114  C150  A    
C83   C126  S    
C24   O4    S    
C50   O25   S    
C65   H41   S    
C65   H40   S    
N2    N20   A    
C83   O40   S    
C61   H27   S    
C81   O20   S    
C59   H21   S    
C7    C157  A    
C106  O44   S    
C101  C122  A    
C42   H115  S    
C53   H5    S    
C21   O44   S    
C128  O46   S    
N17   N30   A    
C26   H65   S    
N19   N32   A    
C38   H99   S    
C2    N2    A    
C90   Cl23  S    
C50   H137  S    
C14   C160  A    
C31   H80   S    
C53   H4    S    
C19   H112  S    
C49   H133  S    
C84   O23   S    
C31   H82   S    
C33   O8    S    
C102  C119  A    
C1    C105  A    
C64   O39   S    
C103  Cl7   S    
C159  Cl10  S    
C91   N13   A    
C67   H48   S    
C6    C9    A    
C72   C85   S    
C7    C8    A    
C63   H33   S    
C102  N24   A    
C56   H15   S    
C52   O27   S    
C26   H63   S    
C68   N8    A    
C55   H9    S    
C137  C155  A    
C72   O11   S    
N3    Ni7   S    
C60   H22   S    
C19   O23   S    
C160  Cl11  S    
C69   O43   S    
C113  C139  A    
C8    C141  A    
N10   Ni4   S    
C107  C141  S    
C149  C158  A    
C13   N3    A    
C9    Cl19  S    
C24   N4    A    
C102  Cl6   S    
N26   Ni6   S    
C82   O39   S    
C90   N11   A    
C20   H13   S    
C110  C148  S    
C70   C87   S    
C59   H19   S    
C33   H86   S    
C42   H113  S    
C79   O18   S    
C22   H54   S    
C84   N23   A    
C25   H61   S    
C19   H134  S    
C89   N10   A    
C54   H7    S    
C74   C136  S    
C151  C159  A    
C12   C145  A    
C87   O43   S    
C71   C86   S    
C18   O12   S    
C58   H16   S    
C119  C157  S    
C79   C131  S    
C115  C149  S    
C120  C154  S    
C59   O33   S    
C28   O3    S    
C46   C120  A    
C118  C152  S    
N30   Ni1   S    
C20   O34   S    
C99   Cl3   S    
N1    N10   A    
C39   H103  S    
C78   O35   S    
N6    N25   A    
N2    Ni6   S    
C139  N31   A    
C74   O13   S    
C58   H17   S    
C91   Cl27  S    
N32   Ni5   S    
C79   O36   S    
C22   O45   S    
N8    N22   A    
C9    C142  A    
C92   Cl28  S    
C75   C82   S    
C93   Cl29  S    
C28   H71   S    
N16   N29   A    
C68   O8    S    
C66   H43   S    
C111  C117  A    
N4    N18   A    
C100  C116  A    
C71   O28   S    
C42   O17   S    
C86   C124  S    
C69   H49   S    
C50   H136  S    
C125  C143  A    
C85   O24   S    
C126  C144  A    
C58   O32   S    
C54   O29   S    
C150  N32   A    
C62   H30   S    
C32   H85   S    
C56   H14   S    
C37   H97   S    
C89   C105  A    
C38   H102  S    
N12   Ni2   S    
C70   O9    S    
C6    C156  A    
C33   H88   S    
C4    C154  A    
N9    Ni3   S    
C36   O10   S    
C23   O46   S    
C29   H73   S    
C43   H118  S    
C103  C120  A    
C44   H119  S    
C44   H121  S    
C96   N17   A    
C105  C144  S    
C92   N14   A    
C48   O22   S    
C139  O47   S    
C73   O12   S    
C20   H24   S    
N28   Ni3   S    
C124  C138  A    
C127  C135  A    
C44   O19   S    
C99   C115  A    
C75   C135  S    
C38   O13   S    
C86   O25   S    
N14   N31   A    
C55   O30   S    
C23   H59   S    
C35   C119  A    
C46   O6    S    
C12   Cl22  S    
C83   O22   S    
C92   C113  A    
C130  C147  A    
C60   O35   S    
C4    Cl14  S    
C34   H91   S    
C132  C149  A    
C5    Cl15  S    
C67   O42   S    
C80   O37   S    
C36   H93   S    
C71   C138  S    
C65   H39   S    
C61   H26   S    
C89   Cl12  S    
C72   O29   S    
C68   C122  A    
N11   N12   A    
C76   C134  S    
C74   O30   S    
C31   O6    S    
C125  C137  A    
C67   H45   S    
C41   O16   S    
C46   N6    A    
C15   C159  A    
C136  C154  A    
C2    C115  A    
C41   H110  S    
C134  C152  A    
C38   H100  S    
C75   O14   S    
C117  N29   A    
C109  C143  S    
C4    C11   A    
C101  Cl5   S    
C129  C146  A    
C32   O7    S    
C50   H138  S    
C29   H75   S    
C43   H116  S    
C130  C133  A    
C30   H76   S    
C131  C132  A    
C31   H81   S    
C77   C80   S    
C35   O5    S    
C27   H66   S    
C121  C155  S    
C77   O33   S    
C122  C156  S    
C91   C108  A    
C40   H107  S    
C69   H51   S    
C75   O31   S    
C135  C153  A    
C48   H129  S    
C23   H58   S    
C52   H143  S    
C63   O38   S    
C10   Cl20  S    
C113  C147  S    
C111  C145  S    
C93   N15   A    
C32   H83   S    
C52   H144  S    
C15   C147  A    
C94   N16   A    
C82   O21   S    
C28   H70   S    
C84   C108  A    
C76   O15   S    
C112  C146  S    
N13   Ni2   S    
C40   O15   S    
N27   Ni4   S    
C112  C128  A    
C13   C116  A    
N15   N28   A    
C128  N30   A    
C129  C134  A    
C51   H140  S    
C34   H89   S    
C47   H128  S    
N20   Ni5   S    
C36   H95   S    
C19   H123  S    
N17   Ni2   S    
N7    N26   A    
C53   O28   S    
C66   O41   S    
C64   H38   S    
C152  C160  A    
C85   C125  S    
C61   H28   S    
C150  O48   S    
N13   N23   A    
C62   O37   S    
C103  N25   A    
C56   O31   S    
C96   C112  A    
C42   H114  S    
N21   Ni6   S    
N7    Ni5   S    
C26   H64   S    
C22   H55   S    
C25   H60   S    
C52   H142  S    
C17   H57   S    
C88   Cl1   S    
C27   H69   S    
C78   O17   S    
C3    C153  A    
C54   H8    S    
C67   H47   S    
C97   C118  A    
N5    Ni7   S    
C78   C132  S    
C3    C12   A    
C3    Cl13  S    
C81   O38   S    
N8    Ni8   S    
C80   O19   S    
C11   C144  A    
C47   O21   S    
C114  C153  S    
C2    O2    S    
C21   H46   S    
C71   O10   S    
C35   N5    A    
C124  C142  A    
C77   C133  S    
C37   H96   S    
C20   H2    S    
C100  N21   A    
N14   Ni1   S    
C63   H34   S    
C58   H18   S    
C48   H131  S    
C82   C127  S    
C1    O1    S    
C80   C130  S    
C88   N9    A    
C39   H105  S    
C98   N19   A    
C49   H135  S    
C41   H109  S    
C78   C79   S    
C104  C121  A    
C28   H72   S    
C55   H10   S    
C123  C140  A    
C66   H44   S    
C39   O14   S    
C87   C123  S    
C100  Cl4   S    
C101  N22   A    
C87   O26   S    
C140  C157  A    
C104  Cl8   S    
C85   O41   S    
C18   H90   S    
N15   Ni4   S    
N9    N27   A    
C47   H126  S    
C97   N18   A    
C131  C148  A    
C62   H31   S    
N22   Ni5   S    
N29   Ni2   S    
C21   H52   S    
C72   C137  S    
C76   O32   S    
C1    N1    A    
C49   O24   S    
C64   H36   S    
C59   H20   S    
C43   O18   S    
C33   H87   S    
C138  C156  A    
C63   H32   S    
C43   H117  S    
C34   O9    S    
C117  O45   S    
C76   C81   S    
C22   H53   S    
C14   Cl24  S    
C25   H62   S    
C158  Cl9   S    
C56   H12   S    
C77   O16   S    
C27   H67   S    
C14   C146  A    
C24   C118  A    
C54   H6    S    
C16   C148  A    
C40   H106  S    
C30   O5    S    
C5    C10   A    
C16   Cl26  S    
C60   H25   S    
C6    Cl16  S    
C65   O40   S    
C53   H3    S    
C27   O2    S    
C10   C143  A    
C116  C151  S    
C45   H122  S    
C57   C121  A    
C8    Cl18  S    
C30   H78   S    
C106  C110  A    
N1    Ni1   S    
C39   H104  S    
N25   Ni7   S    
C51   O26   S    
C37   O11   S    
C45   O20   S    
C57   N7    A    
N24   Ni8   S    
