data_mof_unit_60356.cif
_audit_creation_date              2012-12-10T19:35:02-0500
_audit_creation_method            fapswitch 2.2
_symmetry_space_group_name_H-M    P1
_symmetry_Int_Tables_number       1
_space_group_crystal_system       triclinic
_cell_length_a                    10.89635
_cell_length_b                    15.83842
_cell_length_c                    16.98095
_cell_angle_alpha                 94.333273
_cell_angle_beta                  95.07644
_cell_angle_gamma                 88.398201
_cell_volume                      2910.08185417

loop_
_atom_site_label
_atom_site_type_symbol
_atom_type_description
_atom_site_fract_x
_atom_site_fract_y
_atom_site_fract_z
_atom_type_partial_charge
C1    C     C_R   0.514363 0.490143 0.350007 0.899401
C2    C     C_R   0.485636 0.509857 0.649993 0.899389
C3    C     C_R   0.538147 0.488206 0.265402 -0.187237
C4    C     C_R   0.461852 0.511792 0.734598 -0.187255
C5    C     C_R   0.607473 0.553643 0.238650 0.066833
C6    C     C_R   0.392547 0.446345 0.761350 0.066850
C7    C     C_R   0.610145 0.561650 0.156840 0.143731
C8    C     C_R   0.389883 0.438339 0.843160 0.143727
C9    C     C_R   0.547512 0.503977 0.102247 0.256625
C10   C     C_R   0.452500 0.496019 0.897752 0.256624
C11   C     C_R   0.493841 0.433079 0.129035 -0.169811
C12   C     C_R   0.506148 0.566924 0.870964 -0.169818
C13   C     C_R   0.490594 0.423837 0.209551 0.167959
C14   C     C_R   0.509386 0.576168 0.790448 0.167952
C15   C     C_R   0.432638 0.759593 0.464246 0.324871
C16   C     C_R   0.567358 0.240410 0.535759 0.324869
C17   C     C_R   0.438788 0.847704 0.467575 -0.302644
C18   C     C_R   0.561213 0.152298 0.532430 -0.302644
C19   C     C_R   0.530222 0.890345 0.517035 0.298977
C20   C     C_R   0.469786 0.109655 0.482965 0.298975
C21   C     C_R   0.614859 0.841120 0.562753 0.169665
C22   C     C_R   0.385151 0.158877 0.437244 0.169667
C23   C     C_R   0.261577 0.502813 0.495368 0.842533
C24   C     C_R   0.738423 0.497186 0.504630 0.842547
C25   C     C_R   0.605678 0.752171 0.557921 0.017323
C26   C     C_R   0.394328 0.247827 0.442076 0.017318
C27   C     C_R   0.092267 0.445778 0.351682 0.160190
C28   C     C_R   0.907717 0.554246 0.648309 0.160171
C29   C     C_R   0.019655 0.395680 0.294064 0.194264
C30   C     C_R   0.980313 0.604362 0.705917 0.194242
C31   C     C_R   0.904026 0.370735 0.311047 0.128488
C32   C     C_R   0.095954 0.629290 0.688940 0.128505
C33   C     C_R   0.856968 0.401811 0.380786 -0.250657
C34   C     C_R   0.143033 0.598185 0.619217 -0.250630
C35   C     C_R   0.926971 0.452756 0.439690 0.015425
C36   C     C_R   0.073030 0.547244 0.560311 0.015430
C37   C     C_R   0.051170 0.468289 0.428515 -0.004496
C38   C     C_R   0.948825 0.531718 0.571482 -0.004494
C39   C     C_R   0.873864 0.489783 0.507850 -0.070840
C40   C     C_R   0.126136 0.510216 0.492151 -0.070838
Cu1   Cu    Cu3+1 0.493970 0.415220 0.496180 1.034566
Cu2   Cu    Cu3+1 0.506030 0.584780 0.503820 1.034573
H1    H     H_    0.628158 0.117626 0.569169 0.217716
H2    H     H_    0.371839 0.882377 0.430840 0.217717
H3    H     H_    0.671742 0.715032 0.592825 0.188605
H4    H     H_    0.328263 0.284964 0.407171 0.188608
H5    H     H_    0.764349 0.383680 0.386684 0.194219
H6    H     H_    0.235673 0.616285 0.613334 0.194188
H7    H     H_    0.453952 0.384432 0.087009 0.209818
H8    H     H_    0.546021 0.615577 0.912991 0.209815
N1    N     N_2   0.543737 0.517561 0.020492 -0.187158
N2    N     N_2   0.456277 0.482437 0.979507 -0.187168
N3    N     N_R   0.515100 0.712130 0.509560 -0.220330
N4    N     N_R   0.484900 0.287870 0.490440 -0.220332
N5    N     N_2   0.539676 0.980941 0.521644 -0.164398
N6    N     N_2   0.460335 0.019059 0.478357 -0.164401
O1    O     O_R   0.494360 0.420530 0.382500 -0.566926
O2    O     O_R   0.505640 0.579470 0.617500 -0.566921
O3    O     O_R   0.504550 0.563720 0.388950 -0.531806
O4    O     O_R   0.495450 0.436280 0.611050 -0.531806
O5    O     O_R   0.314560 0.428400 0.496770 -0.570528
O6    O     O_R   0.685440 0.571600 0.503230 -0.570529
O7    O     O_R   0.324750 0.571590 0.503220 -0.578843
O8    O     O_R   0.675250 0.428410 0.496780 -0.578853
I1    I     I_    0.211175 0.709067 0.768264 -0.190047
I2    I     I_    0.788789 0.290978 0.231713 -0.190094
Br1   Br    Br    0.743984 0.893246 0.631849 -0.362106
Br2   Br    Br    0.256034 0.106749 0.368144 -0.362106
Br3   Br    Br    0.226286 0.500691 0.313758 -0.446615
Br4   Br    Br    0.773712 0.499327 0.686242 -0.446611
I3    I     I_    0.076242 0.363798 0.177604 -0.089927
I4    I     I_    0.923686 0.636293 0.822359 -0.089919
I5    I     I_    0.279226 0.364597 0.680397 -0.208354
I6    I     I_    0.720810 0.635378 0.319607 -0.208377
I7    I     I_    0.295637 0.338019 0.888066 -0.115836
I8    I     I_    0.704427 0.661959 0.111934 -0.115824
I9    I     I_    0.416482 0.307769 0.237180 -0.178347
I10   I     I_    0.583441 0.692251 0.762815 -0.178346
I11   I     I_    0.709316 0.290548 0.616147 -0.134253
I12   I     I_    0.290664 0.709460 0.383870 -0.134248

loop_
_geom_bond_atom_site_label_1
_geom_bond_atom_site_label_2
_ccdc_geom_bond_type
C31   I2    S    
N5    N6    D    
C27   C29   A    
Cu1   Cu2   S    
C2    C4    S    
C9    N1    S    
Cu1   O5    S    
C20   N6    S    
C10   N2    S    
Cu2   O2    S    
C15   N3    A    
C19   C21   A    
C25   N3    A    
C37   C40   A    
C1    O3    A    
Cu2   N3    S    
C38   C39   A    
C2    O4    A    
C23   C40   S    
C24   C39   S    
C7    C9    A    
C5    I6    S    
C17   C19   A    
C31   C33   A    
Cu2   O6    S    
C18   C20   A    
C27   Br3   S    
C23   O7    A    
C24   O8    A    
C21   Br1   S    
C26   N4    A    
C13   I9    S    
N1    N2    D    
C36   C40   A    
C4    C6    A    
C5    C7    A    
C6    C8    A    
C8    I7    S    
C1    C3    S    
C32   C34   A    
C35   C39   A    
C11   H7    S    
C1    O1    A    
C30   I4    S    
C15   I12   S    
C28   C38   A    
C9    C11   A    
C22   Br2   S    
C10   C12   A    
C16   C18   A    
C12   C14   A    
C33   H5    S    
C34   H6    S    
C25   H3    S    
C6    I5    S    
C19   N5    S    
C15   C17   A    
C21   C25   A    
C24   O6    A    
C35   C37   A    
C28   Br4   S    
Cu1   O4    S    
C20   C22   A    
C3    C5    A    
C3    C13   A    
Cu2   O3    S    
C12   H8    S    
C2    O2    A    
C7    I8    S    
C16   I11   S    
C28   C30   A    
C17   H2    S    
Cu1   O1    S    
C29   C31   A    
C18   H1    S    
C30   C32   A    
C11   C13   A    
C27   C37   A    
C36   C38   A    
C33   C35   A    
C34   C36   A    
C14   I10   S    
C4    C14   A    
C16   N4    A    
Cu1   N4    S    
C26   H4    S    
C23   O5    A    
C8    C10   A    
C22   C26   A    
Cu1   O8    S    
Cu2   O7    S    
C32   I1    S    
C29   I3    S    
