data_mof_unit_20711.cif
_audit_creation_date              2012-12-11T15:22:21-0500
_audit_creation_method            fapswitch 2.2
_symmetry_space_group_name_H-M    P1
_symmetry_Int_Tables_number       1
_space_group_crystal_system       triclinic
_cell_length_a                    22.492478
_cell_length_b                    12.979906
_cell_length_c                    27.013111
_cell_angle_alpha                 89.928744
_cell_angle_beta                  90.109745
_cell_angle_gamma                 89.939263
_cell_volume                      7886.45949677

loop_
_atom_site_label
_atom_site_type_symbol
_atom_type_description
_atom_site_fract_x
_atom_site_fract_y
_atom_site_fract_z
_atom_type_partial_charge
C1    C     C_R   0.721017 0.345704 0.178662 0.531081
C2    C     C_R   0.279012 0.345239 0.821333 0.535246
C3    C     C_R   0.221047 0.845809 0.178725 0.530682
C4    C     C_R   0.778995 0.845288 0.821310 0.535821
C5    C     C_R   0.475278 0.160321 0.872086 0.028078
C6    C     C_R   0.522040 0.164707 0.129645 0.029788
C7    C     C_R   0.977474 0.662318 0.871052 0.028782
C8    C     C_R   0.023208 0.664062 0.128836 0.029290
C9    C     C_R   0.523885 0.257566 0.103023 -0.169555
C10   C     C_R   0.482322 0.254728 0.896637 -0.161632
C11   C     C_R   0.024070 0.757413 0.102559 -0.168509
C12   C     C_R   0.982184 0.756648 0.896132 -0.161789
C13   C     C_R   0.511360 0.260339 0.051931 -0.029012
C14   C     C_R   0.494496 0.258290 0.947906 -0.025488
C15   C     C_R   0.012048 0.760560 0.051340 -0.028967
C16   C     C_R   0.995226 0.759870 0.947268 -0.026811
C17   C     C_R   0.500366 0.166519 0.027154 0.030669
C18   C     C_R   0.494531 0.165072 0.975113 0.025582
C19   C     C_R   0.003232 0.666693 0.025975 0.030235
C20   C     C_R   0.997738 0.666086 0.973889 0.025493
C21   C     C_R   0.512690 0.353625 0.024747 -0.022121
C22   C     C_R   0.503967 0.352699 0.972909 -0.015408
C23   C     C_R   0.011673 0.854464 0.024610 -0.020926
C24   C     C_R   0.002886 0.854190 0.972754 -0.015826
C25   C     C_R   0.740037 0.956311 0.129505 -0.004112
C26   C     C_R   0.259654 0.957207 0.870610 0.015731
C27   C     C_R   0.240571 0.455744 0.129729 -0.004462
C28   C     C_R   0.759181 0.457909 0.870561 0.032066
C29   C     C_R   0.790879 0.985259 0.102850 -0.149891
C30   C     C_R   0.214256 0.998982 0.899924 -0.171040
C31   C     C_R   0.291273 0.485420 0.103048 -0.149615
C32   C     C_R   0.715561 0.503115 0.900627 -0.172400
C33   C     C_R   0.794757 0.967724 0.052180 -0.008398
C34   C     C_R   0.212597 0.981179 0.950515 -0.044142
C35   C     C_R   0.295340 0.467578 0.052413 -0.006851
C36   C     C_R   0.714449 0.484820 0.951253 -0.044330
C37   C     C_R   0.746822 0.922128 0.026894 -0.004589
C38   C     C_R   0.256649 0.920208 0.972991 -0.028129
C39   C     C_R   0.247595 0.421234 0.027145 -0.004735
C40   C     C_R   0.757528 0.420534 0.973008 -0.026416
C41   C     C_R   0.697126 0.886682 0.053512 0.020374
C42   C     C_R   0.301048 0.873081 0.944004 -0.010820
C43   C     C_R   0.198235 0.384562 0.053910 0.019660
C44   C     C_R   0.800058 0.370838 0.943142 -0.020718
C45   C     C_R   0.552765 0.157500 0.178007 0.565098
C46   C     C_R   0.446594 0.156754 0.822542 0.564657
C47   C     C_R   0.053023 0.657388 0.177751 0.564264
C48   C     C_R   0.947114 0.657095 0.822228 0.564509
C49   C     C_R   0.694446 0.900029 0.104916 0.074236
C50   C     C_R   0.301599 0.888696 0.892085 0.080129
C51   C     C_R   0.195543 0.398019 0.105311 0.074455
C52   C     C_R   0.799441 0.386431 0.891447 0.073992
C53   C     C_R   0.750594 0.989553 0.939628 0.121667
C54   C     C_R   0.284416 0.958781 0.061612 0.121617
C55   C     C_R   0.252490 0.489503 0.939963 0.121362
C56   C     C_R   0.787755 0.453687 0.061631 0.120968
C57   C     C_R   0.758859 0.970688 0.889002 -0.115260
C58   C     C_R   0.274981 0.941123 0.112165 -0.076192
C59   C     C_R   0.260470 0.470766 0.889292 -0.115462
C60   C     C_R   0.777901 0.436291 0.112174 -0.075869
C61   C     C_R   0.760637 0.786787 0.905523 -0.119457
C62   C     C_R   0.203263 0.807733 0.091914 -0.108747
C63   C     C_R   0.259248 0.286692 0.905326 -0.119298
C64   C     C_R   0.701096 0.311887 0.091710 -0.109566
C65   C     C_R   0.754385 0.805041 0.955674 -0.137354
C66   C     C_R   0.212838 0.823828 0.041904 -0.114783
C67   C     C_R   0.253435 0.304711 0.955522 -0.136698
C68   C     C_R   0.711238 0.327293 0.041726 -0.114236
C69   C     C_R   0.750058 0.906056 0.973087 0.067631
C70   C     C_R   0.252770 0.899585 0.026409 0.044728
C71   C     C_R   0.250689 0.405685 0.973247 0.067354
C72   C     C_R   0.753874 0.398603 0.026319 0.045508
C73   C     C_R   0.763872 0.869285 0.872175 0.021642
C74   C     C_R   0.233764 0.866720 0.127068 0.015736
C75   C     C_R   0.263844 0.369351 0.872190 0.020138
C76   C     C_R   0.733835 0.366820 0.126988 0.015293
C77   C     C_R   0.525489 0.170557 0.370513 0.001682
C78   C     C_R   0.474644 0.170159 0.629468 -0.005704
C79   C     C_R   0.025492 0.670558 0.370515 0.001669
C80   C     C_R   0.974647 0.670160 0.629469 -0.005944
C81   C     C_R   0.537709 0.260968 0.397574 -0.128409
C82   C     C_R   0.462437 0.260192 0.602058 -0.144603
C83   C     C_R   0.037718 0.760965 0.397576 -0.128404
C84   C     C_R   0.962441 0.760194 0.602059 -0.144712
C85   C     C_R   0.527559 0.265135 0.448320 -0.104296
C86   C     C_R   0.474212 0.264640 0.551579 -0.120696
C87   C     C_R   0.027567 0.765132 0.448323 -0.104292
C88   C     C_R   0.974216 0.764642 0.551580 -0.120680
C89   C     C_R   0.731238 0.001724 0.179176 0.539452
C90   C     C_R   0.268604 0.001630 0.820760 0.548040
C91   C     C_R   0.231348 0.501552 0.179256 0.538774
C92   C     C_R   0.768464 0.501569 0.820678 0.560882
C93   C     C_R   0.504839 0.179162 0.473111 0.032628
C94   C     C_R   0.498642 0.179346 0.527401 0.032318
C95   C     C_R   0.004839 0.679163 0.473112 0.032621
C96   C     C_R   0.998642 0.679346 0.527403 0.032334
C97   C     C_R   0.488298 0.091874 0.445901 -0.111089
C98   C     C_R   0.515366 0.092409 0.555074 -0.082460
C99   C     C_R   0.988291 0.591880 0.445901 -0.111088
C100  C     C_R   0.015365 0.592407 0.555075 -0.082471
C101  C     C_R   0.497512 0.087259 0.394850 -0.025550
C102  C     C_R   0.504242 0.087513 0.605898 -0.009555
C103  C     C_R   0.997509 0.587264 0.394850 -0.025540
C104  C     C_R   0.004243 0.587512 0.605899 -0.009684
C105  C     C_R   0.738361 0.966967 0.373330 0.007413
C106  C     C_R   0.259551 0.952353 0.628973 -0.006775
C107  C     C_R   0.238362 0.466965 0.373329 0.007409
C108  C     C_R   0.759553 0.452353 0.628972 -0.006259
C109  C     C_R   0.703231 0.014234 0.410222 0.060622
C110  C     C_R   0.306900 0.944430 0.594626 0.067464
C111  C     C_R   0.203230 0.514226 0.410222 0.060642
C112  C     C_R   0.806904 0.444408 0.594630 0.067406
C113  C     C_R   0.716739 0.998807 0.459756 0.002253
C114  C     C_R   0.295260 0.913196 0.546446 0.015949
C115  C     C_R   0.216738 0.498799 0.459756 0.002280
C116  C     C_R   0.795267 0.413164 0.546450 0.016001
C117  C     C_R   0.763662 0.932794 0.472750 0.019134
C118  C     C_R   0.236572 0.890683 0.531752 0.024889
C119  C     C_R   0.263665 0.432792 0.472750 0.019148
C120  C     C_R   0.736578 0.390673 0.531752 0.024851
C121  C     C_R   0.798248 0.884129 0.436386 0.097119
C122  C     C_R   0.190152 0.891923 0.566439 0.104522
C123  C     C_R   0.298253 0.384134 0.436385 0.097128
C124  C     C_R   0.690154 0.391931 0.566436 0.104441
C125  C     C_R   0.786108 0.903418 0.386468 -0.143068
C126  C     C_R   0.201898 0.923442 0.614924 -0.142300
C127  C     C_R   0.286112 0.403422 0.386467 -0.143089
C128  C     C_R   0.701898 0.423454 0.614921 -0.141558
C129  C     C_R   0.800038 0.980803 0.556272 0.035119
C130  C     C_R   0.198563 0.955879 0.450724 0.040338
C131  C     C_R   0.300038 0.480804 0.556272 0.035162
C132  C     C_R   0.698571 0.455878 0.450724 0.040335
C133  C     C_R   0.719860 0.344892 0.322988 0.552445
C134  C     C_R   0.279675 0.346572 0.677723 0.558574
C135  C     C_R   0.219860 0.844892 0.322988 0.552367
C136  C     C_R   0.779675 0.846572 0.677723 0.559000
C137  C     C_R   0.795319 0.968844 0.607509 0.060233
C138  C     C_R   0.200972 0.952080 0.398895 0.049255
C139  C     C_R   0.295318 0.468845 0.607509 0.060638
C140  C     C_R   0.700977 0.452080 0.398896 0.049249
C141  C     C_R   0.736046 0.812561 0.594729 0.062975
C142  C     C_R   0.262163 0.796579 0.404662 0.065880
C143  C     C_R   0.236051 0.312556 0.594728 0.062954
C144  C     C_R   0.762165 0.296576 0.404660 0.065852
C145  C     C_R   0.739498 0.828184 0.544035 -0.117880
C146  C     C_R   0.254130 0.795957 0.455467 -0.109705
C147  C     C_R   0.239504 0.328178 0.544034 -0.117922
C148  C     C_R   0.754133 0.295951 0.455465 -0.109681
C149  C     C_R   0.772238 0.909683 0.524885 -0.001612
C150  C     C_R   0.224543 0.876368 0.478868 0.002056
C151  C     C_R   0.272241 0.409681 0.524885 -0.001630
C152  C     C_R   0.724550 0.376364 0.478868 0.002051
C153  C     C_R   0.766063 0.880597 0.627132 0.056279
C154  C     C_R   0.231505 0.869670 0.375298 0.051987
C155  C     C_R   0.266064 0.380595 0.627132 0.056326
C156  C     C_R   0.731507 0.369668 0.375298 0.051957
C157  C     C_R   0.553106 0.159214 0.321146 0.530254
C158  C     C_R   0.446549 0.159085 0.678652 0.530599
C159  C     C_R   0.053107 0.659214 0.321147 0.530211
C160  C     C_R   0.946550 0.659085 0.678652 0.530688
C161  C     C_R   0.731778 0.001584 0.322592 0.535033
C162  C     C_R   0.268810 0.002645 0.676782 0.540014
C163  C     C_R   0.231779 0.501583 0.322592 0.534952
C164  C     C_R   0.768811 0.502648 0.676781 0.542670
C165  C     C_R   0.501061 0.074883 0.106279 0.094707
C166  C     C_R   0.485374 0.067534 0.898388 0.092727
C167  C     C_R   0.004192 0.573640 0.104690 0.095586
C168  C     C_R   0.991728 0.570392 0.896396 0.089846
C169  C     C_R   0.495210 0.073522 0.054407 0.025955
C170  C     C_R   0.489323 0.069640 0.950297 0.013662
C171  C     C_R   0.999642 0.572870 0.052675 0.025756
C172  C     C_R   0.995315 0.571038 0.948393 0.013398
C173  C     C_R   0.486299 0.978079 0.977907 -0.123970
C174  C     C_R   0.486944 0.980387 0.029100 -0.121358
C175  C     C_R   0.994370 0.478634 0.975427 -0.125493
C176  C     C_R   0.993977 0.479806 0.026710 -0.122345
Cr1   Cr    Cr6+3 0.756570 0.170940 0.251190 1.056724
Cr2   Cr    Cr6+3 0.243430 0.170940 0.748810 1.053326
Cr3   Cr    Cr6+3 0.256570 0.670940 0.251190 1.056425
Cr4   Cr    Cr6+3 0.743430 0.670940 0.748810 1.054173
Cr5   Cr    Cr6+3 0.623740 0.299110 0.249580 1.019549
Cr6   Cr    Cr6+3 0.376260 0.299110 0.750420 1.019178
Cr7   Cr    Cr6+3 0.123740 0.799110 0.249580 1.019732
Cr8   Cr    Cr6+3 0.876260 0.799110 0.750420 1.019375
Cr9   Cr    Cr6+3 0.625990 0.036240 0.250480 1.036841
Cr10  Cr    Cr6+3 0.374010 0.036240 0.749520 1.061206
Cr11  Cr    Cr6+3 0.125990 0.536240 0.250480 1.037102
Cr12  Cr    Cr6+3 0.874010 0.536240 0.749520 1.060711
H1    H     H_    0.765880 0.708139 0.892893 0.125829
H2    H     H_    0.171626 0.749408 0.103348 0.121066
H3    H     H_    0.263167 0.207916 0.892526 0.129645
H4    H     H_    0.667407 0.257029 0.103024 0.121599
H5    H     H_    0.559153 0.326458 0.380313 0.143100
H6    H     H_    0.439869 0.325145 0.618786 0.146058
H7    H     H_    0.059167 0.826451 0.380317 0.143099
H8    H     H_    0.939875 0.825149 0.618788 0.146056
H9    H     H_    0.536208 0.027429 0.536791 0.138506
H10   H     H_    0.469291 0.026355 0.464781 0.153663
H11   H     H_    0.036204 0.527425 0.536791 0.138534
H12   H     H_    0.969276 0.526367 0.464780 0.153660
H13   H     H_    0.540393 0.333632 0.468540 0.138079
H14   H     H_    0.461120 0.332660 0.530978 0.131331
H15   H     H_    0.040406 0.833624 0.468544 0.138088
H16   H     H_    0.961126 0.832664 0.530980 0.131334
H17   H     H_    0.481705 0.903576 0.960492 0.152304
H18   H     H_    0.482918 0.907610 0.048304 0.152277
H19   H     H_    0.991752 0.404387 0.957471 0.149622
H20   H     H_    0.991247 0.406378 0.045489 0.152318
H21   H     H_    0.715732 0.777074 0.519270 0.158513
H22   H     H_    0.276422 0.737797 0.477431 0.151459
H23   H     H_    0.215740 0.277066 0.519269 0.158511
H24   H     H_    0.776422 0.237786 0.477428 0.151477
H25   H     H_    0.814067 0.869848 0.358100 0.116552
H26   H     H_    0.165622 0.928658 0.641160 0.132425
H27   H     H_    0.314073 0.369858 0.358099 0.116536
H28   H     H_    0.665620 0.428683 0.641153 0.132990
H29   H     H_    0.476113 0.325268 0.875823 0.147236
H30   H     H_    0.538337 0.326726 0.121867 0.149668
H31   H     H_    0.973343 0.827147 0.875948 0.148138
H32   H     H_    0.037002 0.826914 0.121873 0.149665
H33   H     H_    0.826894 0.025839 0.121080 0.153278
H34   H     H_    0.181554 0.050744 0.883920 0.156063
H35   H     H_    0.327034 0.526755 0.121230 0.153459
H36   H     H_    0.683900 0.557478 0.885178 0.155677
H37   H     H_    0.761605 0.034418 0.863159 0.108114
H38   H     H_    0.298740 0.986179 0.139522 0.126047
H39   H     H_    0.264276 0.534621 0.863616 0.106462
H40   H     H_    0.803500 0.478014 0.139606 0.126652
H41   H     H_    0.754109 0.740459 0.981139 0.118351
H42   H     H_    0.188111 0.778787 0.015115 0.130649
H43   H     H_    0.252151 0.239853 0.980777 0.117368
H44   H     H_    0.684744 0.285517 0.014876 0.130041
O1    O     O_R   0.769900 0.064540 0.196060 -0.512341
O2    O     O_R   0.230100 0.064540 0.803940 -0.529469
O3    O     O_R   0.269900 0.564540 0.196060 -0.512699
O4    O     O_R   0.730100 0.564540 0.803940 -0.531204
O5    O     O_R   0.574760 0.239320 0.300850 -0.507930
O6    O     O_R   0.425240 0.239320 0.699150 -0.506507
O7    O     O_R   0.074760 0.739320 0.300850 -0.507868
O8    O     O_R   0.925240 0.739320 0.699150 -0.506526
O9    O     O_R   0.566290 0.069580 0.305400 -0.505057
O10   O     O_R   0.433710 0.069580 0.694600 -0.509847
O11   O     O_R   0.066290 0.569580 0.305400 -0.505172
O12   O     O_R   0.933710 0.569580 0.694600 -0.509409
O13   O     O_R   0.680760 0.993330 0.302620 -0.502453
O14   O     O_R   0.319240 0.993330 0.697380 -0.512779
O15   O     O_R   0.180760 0.493330 0.302620 -0.502508
O16   O     O_R   0.819240 0.493330 0.697380 -0.510032
O17   O     O_3   0.668770 0.168760 0.250420 -0.260082
O18   O     O_3   0.331230 0.168760 0.749580 -0.261855
O19   O     O_3   0.168770 0.668760 0.250420 -0.260201
O20   O     O_3   0.831230 0.668760 0.749580 -0.263167
O21   O     O_R   0.750800 0.274080 0.199250 -0.493192
O22   O     O_R   0.249200 0.274080 0.800750 -0.500822
O23   O     O_R   0.250800 0.774080 0.199250 -0.493287
O24   O     O_R   0.749200 0.774080 0.800750 -0.501024
O25   O     O_R   0.669990 0.371670 0.194150 -0.504143
O26   O     O_R   0.330010 0.371670 0.805850 -0.507057
O27   O     O_R   0.169990 0.871670 0.194150 -0.503811
O28   O     O_R   0.830010 0.871670 0.805850 -0.506351
O29   O     O_R   0.574600 0.238480 0.197800 -0.513442
O30   O     O_R   0.425400 0.238480 0.802200 -0.511362
O31   O     O_R   0.074600 0.738480 0.197800 -0.512657
O32   O     O_R   0.925400 0.738480 0.802200 -0.511644
O33   O     O_R   0.566130 0.068680 0.194240 -0.482688
O34   O     O_R   0.433870 0.068680 0.805760 -0.455382
O35   O     O_R   0.066130 0.568680 0.194240 -0.481131
O36   O     O_R   0.933870 0.568680 0.805760 -0.465311
O37   O     O_R   0.680610 0.992490 0.199570 -0.513222
O38   O     O_R   0.319390 0.992490 0.800430 -0.460022
O39   O     O_R   0.180610 0.492490 0.199570 -0.513089
O40   O     O_R   0.819390 0.492490 0.800430 -0.460713
O41   O     O_R   0.770060 0.065440 0.307230 -0.495842
O42   O     O_R   0.229940 0.065440 0.692770 -0.495481
O43   O     O_R   0.270060 0.565440 0.307230 -0.495835
O44   O     O_R   0.729940 0.565440 0.692770 -0.495562
O45   O     O_R   0.750960 0.274920 0.302300 -0.454395
O46   O     O_R   0.249040 0.274920 0.697700 -0.451558
O47   O     O_R   0.250960 0.774920 0.302300 -0.454366
O48   O     O_R   0.749040 0.774920 0.697700 -0.451627
O49   O     O_R   0.670160 0.372580 0.305320 -0.539567
O50   O     O_R   0.329840 0.372580 0.694680 -0.542026
O51   O     O_R   0.170160 0.872580 0.305320 -0.539675
O52   O     O_R   0.829840 0.872580 0.694680 -0.541466
N1    N     N_3   0.490231 0.971562 0.872153 -0.581765
H45   H     H_    0.454406 0.924397 0.881601 0.254078
H46   H     H_    0.530040 0.935411 0.882210 0.235759
N2    N     N_3   0.486640 0.985849 0.135595 -0.597208
H47   H     H_    0.514681 0.924982 0.125974 0.239146
H48   H     H_    0.442668 0.964789 0.128111 0.239944
N3    N     N_3   0.002268 0.477417 0.868945 -0.588736
H49   H     H_    0.969752 0.423421 0.877857 0.229940
H50   H     H_    0.043928 0.448107 0.878931 0.237101
N4    N     N_3   0.989850 0.483726 0.133390 -0.596413
H51   H     H_    0.018566 0.423717 0.123988 0.237901
H52   H     H_    0.946283 0.461655 0.124991 0.241677
C177  C     C_1   0.646509 0.842709 0.027858 0.251655
N5    N     N_1   0.605942 0.808326 0.007322 -0.256462
C178  C     C_1   0.346641 0.812031 0.968133 0.162963
N6    N     N_1   0.383105 0.763654 0.987562 -0.271450
C179  C     C_1   0.148015 0.338758 0.028469 0.247050
N7    N     N_1   0.107800 0.302773 0.008097 -0.259296
C180  C     C_1   0.845659 0.307194 0.965524 0.162745
N8    N     N_1   0.882352 0.256962 0.983491 -0.262378
N9    N     N_3   0.644687 0.856774 0.130817 -0.610557
H53   H     H_    0.616051 0.915946 0.141375 0.269029
H54   H     H_    0.659949 0.816415 0.161864 0.247907
N10   N     N_3   0.343933 0.837043 0.860642 -0.598735
H55   H     H_    0.373051 0.789780 0.880405 0.234308
H56   H     H_    0.319916 0.788205 0.837253 0.223535
N11   N     N_3   0.146477 0.353067 0.131455 -0.610909
H57   H     H_    0.117378 0.411291 0.142296 0.268134
H58   H     H_    0.162483 0.313317 0.162426 0.246913
N12   N     N_3   0.838656 0.329167 0.859918 -0.595692
H59   H     H_    0.882308 0.342382 0.871243 0.237626
H60   H     H_    0.829628 0.250766 0.864671 0.227794
C181  C     C_1   0.522543 0.996085 0.632398 0.232054
N13   N     N_1   0.537289 0.922762 0.653547 -0.274065
C182  C     C_1   0.479308 0.995216 0.368955 0.229808
N14   N     N_1   0.464618 0.921413 0.348299 -0.264452
C183  C     C_1   0.022545 0.496086 0.632400 0.232029
N15   N     N_1   0.037292 0.422764 0.653550 -0.273848
C184  C     C_1   0.979301 0.495224 0.368955 0.229733
N16   N     N_1   0.964608 0.421423 0.348299 -0.264544
N17   N     N_3   0.654375 0.080317 0.398121 -0.609398
H61   H     H_    0.622235 0.034287 0.381385 0.268006
H62   H     H_    0.668488 0.137965 0.373800 0.246348
N18   N     N_3   0.366338 0.976421 0.606172 -0.604690
H63   H     H_    0.383842 0.928809 0.633797 0.278981
H64   H     H_    0.365320 0.053403 0.617300 0.248955
N19   N     N_3   0.154372 0.580304 0.398121 -0.609378
H65   H     H_    0.122233 0.534272 0.381385 0.268016
H66   H     H_    0.168483 0.637954 0.373801 0.246355
N20   N     N_3   0.866343 0.476387 0.606177 -0.604678
H67   H     H_    0.883843 0.428779 0.633806 0.279473
H68   H     H_    0.865332 0.553373 0.617300 0.248585
C185  C     C_1   0.834413 0.065204 0.536098 0.231972
N21   N     N_1   0.862387 0.132180 0.520134 -0.297850
C186  C     C_1   0.170180 0.042627 0.474699 0.250561
N22   N     N_1   0.147266 0.111717 0.493854 -0.320854
C187  C     C_1   0.334410 0.565209 0.536099 0.231837
N23   N     N_1   0.362383 0.632187 0.520136 -0.298043
C188  C     C_1   0.670191 0.542628 0.474701 0.250524
N24   N     N_1   0.647279 0.611720 0.493856 -0.320909
N25   N     N_3   0.819990 0.047513 0.638845 -0.610751
H69   H     H_    0.791805 0.060142 0.668978 0.241966
H70   H     H_    0.861855 0.024094 0.651343 0.259116
N26   N     N_3   0.174529 0.034898 0.371145 -0.616142
H71   H     H_    0.203250 0.056951 0.342651 0.240095
H72   H     H_    0.134083 0.010259 0.356283 0.260487
N27   N     N_3   0.319985 0.547516 0.638845 -0.612131
H73   H     H_    0.291798 0.560143 0.668979 0.240060
H74   H     H_    0.361851 0.524101 0.651345 0.258809
N28   N     N_3   0.674533 0.534899 0.371146 -0.616123
H75   H     H_    0.703254 0.556952 0.342653 0.240157
H76   H     H_    0.634087 0.510260 0.356285 0.260487
C189  C     C_1   0.682509 0.052473 0.497253 0.238191
N29   N     N_1   0.655605 0.095728 0.527206 -0.296635
C190  C     C_1   0.344060 0.909945 0.511431 0.251928
N30   N     N_1   0.382751 0.906240 0.483365 -0.305080
C191  C     C_1   0.182508 0.552463 0.497253 0.238165
N31   N     N_1   0.155603 0.595717 0.527206 -0.296886
C192  C     C_1   0.844073 0.409878 0.511442 0.252008
N32   N     N_1   0.882770 0.406145 0.483382 -0.305025
N33   N     N_3   0.703326 0.725596 0.612704 -0.566873
H77   H     H_    0.659292 0.732863 0.600706 0.249833
H78   H     H_    0.721032 0.659252 0.596471 0.236682
N34   N     N_3   0.303514 0.725068 0.383524 -0.562710
H79   H     H_    0.345861 0.743716 0.396773 0.255900
H80   H     H_    0.293656 0.651509 0.396699 0.239453
N35   N     N_3   0.203332 0.225588 0.612702 -0.566734
H81   H     H_    0.159299 0.232850 0.600704 0.249787
H82   H     H_    0.221041 0.159245 0.596470 0.236900
N36   N     N_3   0.803517 0.225066 0.383522 -0.562727
H83   H     H_    0.845863 0.243715 0.396770 0.255905
H84   H     H_    0.793660 0.151506 0.396696 0.239447
N37   N     N_3   0.846022 0.816886 0.450290 -0.622389
H85   H     H_    0.885330 0.846034 0.435170 0.234374
H86   H     H_    0.838172 0.744799 0.434347 0.240453
N38   N     N_3   0.131002 0.863962 0.551994 -0.613314
H87   H     H_    0.102932 0.926380 0.559240 0.234603
H88   H     H_    0.117370 0.802545 0.574319 0.252615
N39   N     N_3   0.346032 0.316902 0.450289 -0.622372
H89   H     H_    0.385338 0.346061 0.435171 0.234374
H90   H     H_    0.338188 0.244814 0.434345 0.240459
N40   N     N_3   0.631003 0.363983 0.551988 -0.613297
H91   H     H_    0.602937 0.426408 0.559231 0.234547
H92   H     H_    0.617363 0.302571 0.574314 0.252804
C193  C     C_1   0.506409 0.448868 0.945473 0.230107
N41   N     N_1   0.508412 0.525567 0.923644 -0.257960
C194  C     C_1   0.521086 0.451100 0.050119 0.231477
N42   N     N_1   0.527473 0.528693 0.070502 -0.232825
C195  C     C_1   0.003636 0.950936 0.945726 0.232504
N43   N     N_1   0.004297 0.028085 0.924203 -0.254859
C196  C     C_1   0.018231 0.951782 0.050482 0.234288
N44   N     N_1   0.023190 0.029253 0.071248 -0.234311
N45   N     N_3   0.743215 0.092801 0.957117 -0.626487
H93   H     H_    0.780090 0.135175 0.945572 0.246697
H94   H     H_    0.705739 0.124160 0.939770 0.225636
N46   N     N_3   0.324904 0.038124 0.046861 -0.629583
H95   H     H_    0.301568 0.091748 0.025432 0.231972
H96   H     H_    0.357668 0.005039 0.024587 0.243891
N47   N     N_3   0.246660 0.592930 0.957648 -0.627652
H97   H     H_    0.284201 0.633801 0.946276 0.248991
H98   H     H_    0.209697 0.626136 0.940331 0.223770
N48   N     N_3   0.830868 0.528901 0.047029 -0.630943
H99   H     H_    0.809397 0.585112 0.025759 0.232407
H100  H     H_    0.862461 0.492757 0.024675 0.243623
C197  C     C_1   0.847916 0.999526 0.026562 0.229837
N49   N     N_1   0.890366 0.025175 0.005894 -0.247552
C198  C     C_1   0.166741 0.030757 0.979262 0.194185
N50   N     N_1   0.130175 0.070677 0.002366 -0.230794
C199  C     C_1   0.348574 0.499560 0.026886 0.231126
N51   N     N_1   0.391086 0.525344 0.006321 -0.249641
C200  C     C_1   0.670191 0.536853 0.980726 0.194404
N52   N     N_1   0.634887 0.578623 0.004428 -0.230123

loop_
_geom_bond_atom_site_label_1
_geom_bond_atom_site_label_2
_ccdc_geom_bond_type
C9    H30   S    
C99   C103  A    
C7    C168  A    
C189  N29   T    
C55   C59   A    
C142  C146  A    
C77   C101  A    
N3    H49   S    
C175  H19   S    
C53   C69   A    
C88   C96   A    
C185  N21   T    
C144  C148  A    
C62   H2    S    
C179  N7    T    
C108  C164  S    
Cr12  O36   S    
C165  N2    S    
N47   H98   S    
C37   C69   S    
N45   H94   S    
C95   C99   A    
Cr5   O25   S    
C42   C178  S    
C56   N48   S    
Cr6   O30   S    
C29   C33   A    
C100  C104  A    
C133  O45   A    
Cr12  O20   S    
C3    C74   S    
C9    C13   A    
C146  C150  A    
C123  N39   S    
C12   C16   A    
C27   C51   A    
C56   C72   A    
C169  C174  A    
C86   H14   S    
C58   H38   S    
C172  C175  A    
C141  C145  A    
C122  C126  A    
C138  C154  A    
Cr3   O3    S    
C45   O33   A    
C6    C165  A    
C67   H43   S    
C4    O28   A    
C21   C22   A    
C61   H1    S    
C161  O13   A    
C90   O38   A    
C2    O22   A    
C41   C49   A    
N34   H79   S    
C32   H36   S    
C53   N45   S    
C18   C170  A    
C25   C29   A    
Cr1   O41   S    
C184  N16   T    
C28   C32   A    
C30   H34   S    
Cr10  O10   S    
C83   H7    S    
C62   C66   A    
C167  C171  A    
N12   H59   S    
C98   C102  A    
C60   C76   A    
C54   N46   S    
C78   C82   A    
C180  N8    T    
C54   C70   A    
Cr3   O43   S    
C68   C72   A    
C137  C153  A    
Cr8   O28   S    
C161  O41   A    
C158  O6    A    
N18   H64   S    
C20   C172  A    
C144  N36   S    
C193  N41   T    
C132  C152  A    
N48   H100  S    
N39   H89   S    
C130  C138  A    
C123  C127  A    
C195  N43   T    
C47   O35   A    
C114  C190  S    
C121  N37   S    
C84   C88   A    
C166  N1    S    
Cr6   O50   S    
Cr1   O1    S    
C119  C123  A    
C26   C90   S    
C5    C46   S    
C44   C180  S    
C105  C125  A    
C7    C48   S    
C176  H20   S    
C19   C20   A    
C148  H24   S    
C8    C47   S    
C107  C127  A    
N1    H46   S    
N33   H77   S    
C136  C153  S    
C127  H27   S    
C66   C70   A    
C3    O27   A    
N26   H71   S    
Cr8   O32   S    
C21   C194  S    
Cr11  O19   S    
C136  O52   A    
C143  N35   S    
Cr9   O17   S    
C128  H28   S    
C61   C65   A    
C129  C137  A    
Cr4   O4    S    
C183  N15   T    
C190  N30   T    
C174  H18   S    
C39   C71   S    
C117  C149  S    
C197  N49   T    
C122  N38   S    
Cr8   O8    S    
C55   C71   A    
C2    C75   S    
N38   H87   S    
C113  C189  S    
N27   H73   S    
Cr4   O48   S    
C6    C9    A    
Cr9   O33   S    
C121  C125  A    
C64   C68   A    
N3    H50   S    
C65   C69   A    
C91   O3    A    
C158  O10   A    
C89   O1    A    
N17   H62   S    
N36   H83   S    
Cr11  O15   S    
C140  N28   S    
C78   C158  S    
N9    H54   S    
C87   C95   A    
C99   H12   S    
C130  C150  A    
C23   C24   A    
C27   C91   S    
C110  C114  A    
Cr3   O23   S    
C44   C52   A    
Cr12  O40   S    
C142  N34   S    
C79   C103  A    
C125  H25   S    
N10   H56   S    
C145  H21   S    
C7    C12   A    
Cr6   O26   S    
Cr10  O18   S    
C30   C34   A    
C10   C14   A    
Cr2   O2    S    
N20   H67   S    
C34   C198  S    
C81   H5    S    
C88   H16   S    
C116  C120  A    
C60   H40   S    
N2    H48   S    
C144  C156  A    
C147  C151  A    
C129  C149  A    
C45   O29   A    
C139  C155  A    
C17   C18   A    
C130  C186  S    
C138  N26   S    
C5    C166  A    
C160  O12   A    
C4    C73   S    
C42   C50   A    
C113  C117  A    
C23   C196  S    
C107  C163  S    
C166  C170  A    
C115  C119  A    
N11   H58   S    
C105  C161  S    
C4    O24   A    
C117  C121  A    
C93   C97   A    
Cr10  O14   S    
C58   C74   A    
Cr5   O5    S    
C105  C109  A    
C40   C72   S    
C98   H9    S    
C1    C76   S    
C107  C111  A    
C148  C152  A    
N18   H63   S    
C50   N10   S    
C26   C30   A    
Cr2   O22   S    
Cr9   O37   S    
C171  C176  A    
N28   H76   S    
C65   H41   S    
C14   C22   A    
Cr6   O18   S    
N45   H93   S    
C162  O42   A    
C141  C153  A    
C63   C75   A    
C84   H8    S    
C96   C100  A    
C37   C41   A    
N37   H86   S    
C131  C139  A    
C40   C44   A    
C102  C181  S    
N28   H75   S    
C142  C154  A    
C81   C85   A    
C68   H44   S    
C10   H29   S    
C83   C87   A    
C35   C199  S    
C199  N51   T    
C6    C45   S    
C78   C102  A    
C133  C156  S    
C55   N47   S    
C112  C116  A    
C80   C84   A    
N34   H80   S    
C112  N20   S    
C109  N17   S    
C163  O43   A    
C15   C19   A    
C134  O50   A    
C135  C154  S    
C52   N12   S    
C80   C104  A    
C135  O47   A    
C136  O48   A    
C17   C169  A    
C49   N9    S    
C79   C159  S    
N4    H51   S    
C92   O40   A    
C80   C160  S    
C94   C98   A    
N12   H60   S    
N35   H81   S    
C87   H15   S    
C118  C150  S    
C126  H26   S    
C64   H4    S    
C41   C177  S    
C95   C96   S    
C192  N32   T    
N25   H70   S    
C59   H39   S    
C51   N11   S    
C85   H13   S    
C124  C128  A    
Cr10  O34   S    
C167  N4    S    
Cr11  O39   S    
C165  C169  A    
C147  H23   S    
C159  O11   A    
C1    O21   A    
C1    O25   A    
C129  C185  S    
C134  O46   A    
C135  O51   A    
Cr11  O11   S    
C53   C57   A    
N46   H95   S    
Cr9   O9    S    
C61   C73   A    
C82   C86   A    
C27   C31   A    
C33   C37   A    
C56   C60   A    
C35   C39   A    
C178  N6    T    
N1    H45   S    
C8    C167  A    
Cr3   O19   S    
C186  N22   T    
C115  C191  S    
C46   O34   A    
Cr1   O17   S    
N26   H72   S    
C116  C192  S    
C157  O5    A    
C38   C70   S    
Cr7   O27   S    
C31   C35   A    
Cr12  O12   S    
C32   C36   A    
N38   H88   S    
C137  N25   S    
C164  O44   A    
Cr8   O52   S    
C141  N33   S    
C196  N44   T    
N27   H74   S    
C13   C17   A    
C132  C140  A    
C106  C126  A    
C25   C89   S    
C143  C155  A    
N40   H91   S    
C79   C83   A    
C43   C51   A    
C63   H3    S    
C92   O4    A    
C67   C71   A    
C106  C162  S    
N17   H61   S    
C25   C49   A    
C82   H6    S    
C182  N14   T    
C108  C112  A    
C168  C172  A    
Cr5   O29   S    
C168  N3    S    
N9    H53   S    
Cr7   O51   S    
C139  N27   S    
C198  N50   T    
C159  O7    A    
N48   H99   S    
C62   C74   A    
C173  H17   S    
C145  C149  A    
C101  C182  S    
C170  C173  A    
C188  N24   T    
C93   C94   S    
Cr4   O20   S    
C177  N5    T    
C14   C18   A    
N40   H92   S    
N47   H97   S    
N19   H65   S    
Cr4   O24   S    
C124  N40   S    
C194  N42   T    
C26   C50   A    
C173  C174  A    
C143  C147  A    
C43   C179  S    
C29   H33   S    
C103  C184  S    
C89   O37   A    
Cr8   O20   S    
C19   C171  A    
C38   C42   A    
C91   O39   A    
N33   H78   S    
C118  C122  A    
N20   H68   S    
C48   O36   A    
C111  N19   S    
C90   O2    A    
Cr2   O46   S    
C157  O9    A    
C86   C94   A    
Cr7   O7    S    
C175  C176  A    
N35   H82   S    
Cr2   O18   S    
C163  O15   A    
C77   C81   A    
C24   C195  S    
C131  C187  S    
C12   H31   S    
C16   C20   A    
Cr2   O42   S    
C15   C23   A    
Cr3   O47   S    
C16   C24   A    
C132  C188  S    
C85   C93   A    
C146  H22   S    
C119  C151  S    
C63   C67   A    
C120  C152  S    
C13   C21   A    
C36   C40   A    
N46   H96   S    
C39   C43   A    
N11   H57   S    
C47   O31   A    
C48   O32   A    
C162  O14   A    
C104  C183  S    
N39   H90   S    
Cr5   O49   S    
Cr10  O38   S    
C200  N52   T    
Cr11  O35   S    
Cr7   O31   S    
C64   C76   A    
C28   C92   S    
C109  C113  A    
N19   H66   S    
N37   H85   S    
C114  C118  A    
C31   H35   S    
C2    O26   A    
Cr7   O19   S    
C140  C156  A    
C11   C15   A    
C110  N18   S    
C59   C75   A    
N10   H55   S    
Cr6   O6    S    
Cr9   O13   S    
C54   C58   A    
C134  C155  S    
C160  O8    A    
C36   C200  S    
C34   C38   A    
C57   C73   A    
C97   H10   S    
Cr1   O45   S    
C46   O30   A    
Cr1   O21   S    
C191  N31   T    
C66   H42   S    
N2    H47   S    
C57   H37   S    
C5    C10   A    
Cr4   O44   S    
Cr5   O17   S    
N4    H52   S    
C28   C52   A    
C8    C11   A    
C133  O49   A    
N36   H84   S    
C131  C151  A    
Cr12  O16   S    
C33   C197  S    
C181  N13   T    
C164  O16   A    
C3    O23   A    
C22   C193  S    
C100  H11   S    
C106  C110  A    
C187  N23   T    
C111  C115  A    
C108  C128  A    
N25   H69   S    
C11   H32   S    
C97   C101  A    
C120  C124  A    
C77   C157  S    
