data_mof_unit_20060.cif
_audit_creation_date              2013-03-05T15:41:45-0500
_audit_creation_method            fapswitch 2.2
_symmetry_space_group_name_H-M    P1
_symmetry_Int_Tables_number       1
_space_group_crystal_system       triclinic
_cell_length_a                    11.115875
_cell_length_b                    12.698671
_cell_length_c                    23.601081
_cell_angle_alpha                 90.728441
_cell_angle_beta                  97.000382
_cell_angle_gamma                 68.874934
_cell_volume                      3082.64781885

loop_
_atom_site_label
_atom_site_type_symbol
_atom_site_description
_atom_site_fract_x
_atom_site_fract_y
_atom_site_fract_z
_atom_type_partial_charge
O1    O     O_R   0.196340 0.303200 0.448500 -0.502857
O2    O     O_R   0.199310 0.519670 0.454880 -0.509918
C1    C     C_R   0.149869 0.616524 0.429100 0.533462
O3    O     O_R   0.045660 0.691380 0.441680 -0.516869
O4    O     O_R   0.811930 0.659460 0.430950 -0.509783
C2    C     C_R   0.808931 0.573187 0.400828 0.560373
O5    O     O_R   0.757900 0.507620 0.421760 -0.482442
O6    O     O_R   0.988630 0.322990 0.439840 -0.488074
C3    C     C_R   0.087470 0.325635 0.416415 0.544256
O7    O     O_R   0.196380 0.301720 0.573850 -0.477054
O8    O     O_R   0.199350 0.518300 0.571080 -0.517321
C4    C     C_R   0.149114 0.616321 0.590564 0.543650
O9    O     O_R   0.045700 0.689900 0.567030 -0.507759
O10   O     O_R   0.811960 0.658090 0.547150 -0.492777
C5    C     C_R   0.749760 0.601950 0.565773 0.551851
O11   O     O_R   0.757930 0.506140 0.547110 -0.508894
O12   O     O_R   0.988670 0.321620 0.556040 -0.508086
C6    C     C_R   0.100326 0.279856 0.585924 0.569757
Cr1   Cr    Cr6+3 0.189770 0.415650 0.511620 1.009186
Cr2   Cr    Cr6+3 0.930400 0.667320 0.496770 1.014720
Cr3   Cr    Cr6+3 0.879870 0.417010 0.491650 1.025510
O13   O     O_3   0.000020 0.499990 0.500010 -0.286713
C7    C     C_R   0.681168 0.750962 0.136936 0.009586
C8    C     C_R   0.786648 0.589891 0.338123 0.020086
C9    C     C_R   0.771437 0.516533 0.242871 -0.129436
C10   C     C_R   0.780978 0.501298 0.301932 0.115294
C11   C     C_R   0.777953 0.693419 0.313729 -0.161363
C12   C     C_R   0.756650 0.711238 0.254546 0.041685
C13   C     C_R   0.755118 0.621528 0.219080 0.020987
C14   C     C_R   0.723926 0.640806 0.160360 -0.119317
C15   C     C_R   0.690210 0.839109 0.171607 -0.119674
C16   C     C_R   0.729136 0.818903 0.230230 -0.102792
H1    H     H_    0.718791 0.571917 0.133716 0.124145
H2    H     H_    0.657907 0.924806 0.154358 0.128032
H3    H     H_    0.767495 0.448288 0.215497 0.104302
H4    H     H_    0.728660 0.888923 0.256991 0.105864
H5    H     H_    0.781930 0.762173 0.340653 0.133163
C17   C     C_1   0.232329 0.173819 0.119377 -0.022631
C18   C     C_2   0.176539 0.269573 0.218029 0.023282
C19   C     C_2   0.129546 0.216962 0.254134 -0.111706
C20   C     C_1   0.111496 0.252259 0.311853 -0.065422
C21   C     C_1   0.205842 0.220075 0.163557 -0.048780
C22   C     C_1   0.098927 0.283728 0.359901 -0.001825
H6    H     H_    0.108341 0.142604 0.240833 0.108420
C23   C     C_1   0.170961 0.758012 0.125536 -0.028381
C24   C     C_2   0.137482 0.735258 0.233481 0.159368
C25   C     C_2   0.232499 0.660475 0.269679 -0.111308
C26   C     C_1   0.217028 0.644416 0.328571 -0.061729
C27   C     C_1   0.157021 0.743002 0.174308 -0.025121
C28   C     C_1   0.193604 0.631894 0.376096 -0.013720
H7    H     H_    0.322521 0.607667 0.254360 0.097359
C29   C     C_1   0.617517 0.763694 0.863775 -0.039919
C30   C     C_2   0.650770 0.750394 0.754603 0.145144
C31   C     C_2   0.674450 0.649241 0.729408 0.021044
C32   C     C_1   0.685940 0.641371 0.669121 -0.038095
C33   C     C_1   0.638013 0.757039 0.814881 -0.046219
C34   C     C_1   0.706083 0.628718 0.620231 -0.029389
C35   C     C_R   0.196891 0.186104 0.856540 0.009341
C36   C     C_R   0.111297 0.232435 0.643342 0.036628
C37   C     C_R   0.004490 0.184896 0.717445 -0.151916
C38   C     C_R   0.007861 0.206546 0.660097 -0.167827
C39   C     C_R   0.213735 0.234782 0.684809 0.136070
C40   C     C_R   0.198822 0.230778 0.742447 0.053123
C41   C     C_R   0.098168 0.198913 0.758932 0.022942
C42   C     C_R   0.098970 0.174548 0.816501 -0.128295
C43   C     C_R   0.278058 0.240058 0.840920 -0.134686
C44   C     C_R   0.283059 0.257650 0.784160 -0.141665
H8    H     H_    0.032531 0.136751 0.829052 0.123292
H9    H     H_    0.349806 0.255085 0.872053 0.132027
H10   H     H_    0.926293 0.161435 0.729504 0.111734
H11   H     H_    0.356323 0.288692 0.773968 0.120871
H12   H     H_    0.929063 0.204106 0.628859 0.131957
C45   C     C_R   0.138954 0.748210 0.851005 0.019042
C46   C     C_R   0.180788 0.632914 0.649774 0.013803
C47   C     C_R   0.329859 0.635836 0.731659 -0.134985
C48   C     C_R   0.307547 0.615372 0.674094 -0.155703
C49   C     C_R   0.077243 0.666626 0.682490 -0.116247
C50   C     C_R   0.097991 0.689534 0.739195 0.040958
C51   C     C_R   0.225250 0.674261 0.763945 0.039872
C52   C     C_R   0.244954 0.701958 0.820002 -0.119193
C53   C     C_R   0.012811 0.763117 0.826688 -0.141109
C54   C     C_R   0.992784 0.731732 0.770789 -0.141876
H13   H     H_    0.342592 0.692920 0.838574 0.132418
H14   H     H_    0.931009 0.799262 0.850606 0.119899
H15   H     H_    0.427344 0.624734 0.750570 0.120527
H16   H     H_    0.895446 0.743683 0.751533 0.126308
H17   H     H_    0.387427 0.587866 0.648608 0.115026
H18   H     H_    0.979478 0.677314 0.663259 0.123646
O14   O     O_R   0.113660 0.883270 0.047820 -0.510270
O15   O     O_R   0.186930 0.068530 0.043990 -0.497239
C55   C     C_R   0.265572 0.111262 0.068917 0.543292
O16   O     O_R   0.377770 0.089040 0.054220 -0.514435
O17   O     O_R   0.562800 0.872960 0.056970 -0.501868
C56   C     C_R   0.601256 0.774797 0.081054 0.541256
O18   O     O_R   0.555390 0.700940 0.062700 -0.518536
O19   O     O_R   0.295020 0.731920 0.049950 -0.493483
C57   C     C_R   0.189648 0.788384 0.069788 0.544203
O20   O     O_R   0.094290 0.884230 0.921550 -0.514657
O21   O     O_R   0.168980 0.069410 0.926940 -0.503733
C58   C     C_R   0.240013 0.117232 0.908745 0.546365
O22   O     O_R   0.358400 0.089990 0.927950 -0.519444
O23   O     O_R   0.544850 0.873850 0.939920 -0.490971
C59   C     C_R   0.574426 0.776652 0.918664 0.542216
O24   O     O_R   0.536020 0.701900 0.936430 -0.519921
O25   O     O_R   0.277070 0.732810 0.932890 -0.508104
C60   C     C_R   0.165568 0.787188 0.906902 0.541997
Cr4   Cr    Cr6+3 0.149500 0.973980 0.985330 1.019357
Cr5   Cr    Cr6+3 0.457000 0.976510 0.994660 1.020551
Cr6   Cr    Cr6+3 0.411170 0.724270 0.995270 1.017033
O26   O     O_3   0.339220 0.891590 0.991750 -0.242929
N1    N     N_2   0.018993 0.809504 0.252181 -0.497124
H19   H     H_    0.003678 0.797138 0.293359 0.260324
C61   C     C_3   0.980893 0.927658 0.235728 -0.300228
H20   H     H_    0.890407 0.977837 0.253678 0.122593
H21   H     H_    0.961392 0.939557 0.188514 0.165014
H22   H     H_    0.058508 0.959806 0.252526 0.144440
C62   C     C_3   0.710325 0.539881 0.764882 -0.282206
C63   C     C_3   0.705727 0.438569 0.730012 -0.439464
H23   H     H_    0.607899 0.457873 0.705620 0.145273
H24   H     H_    0.780149 0.415879 0.700036 0.170791
H25   H     H_    0.726646 0.364542 0.759233 0.132311
H26   H     H_    0.810215 0.518780 0.787559 0.150985
H27   H     H_    0.643306 0.551665 0.797678 0.139842
N2    N     N_2   0.629596 0.851682 0.721833 -0.508324
H28   H     H_    0.673197 0.841578 0.684986 0.251969
C64   C     C_3   0.630541 0.951026 0.752505 -0.302067
H29   H     H_    0.617966 0.020509 0.721648 0.125697
H30   H     H_    0.724764 0.932577 0.779978 0.139745
H31   H     H_    0.549274 0.979695 0.779001 0.173296
N3    N     N_2   0.336238 0.228535 0.668736 -0.496771
H32   H     H_    0.414011 0.160383 0.686994 0.243834
C65   C     C_3   0.362724 0.332348 0.668249 -0.264042
H33   H     H_    0.447231 0.326383 0.700196 0.089360
H34   H     H_    0.277104 0.405754 0.677656 0.165802
H35   H     H_    0.388915 0.345965 0.625824 0.187854
N4    N     N_2   0.781263 0.397603 0.324192 -0.485044
H36   H     H_    0.841304 0.328004 0.305308 0.242195
C66   C     C_3   0.652672 0.393210 0.323117 -0.280451
H37   H     H_    0.607759 0.394329 0.278280 0.114217
H38   H     H_    0.589165 0.466037 0.345298 0.181083
H39   H     H_    0.659815 0.314098 0.345190 0.141405
C67   C     C_3   0.212536 0.370973 0.234550 -0.245276
C68   C     C_3   0.349369 0.333980 0.266957 -0.432493
H40   H     H_    0.356164 0.284371 0.306411 0.168767
H41   H     H_    0.421692 0.281805 0.239593 0.149214
H42   H     H_    0.373064 0.409381 0.279370 0.126692
H43   H     H_    0.208429 0.421003 0.195555 0.144346
H44   H     H_    0.141860 0.427913 0.261240 0.154622

loop_
_geom_bond_atom_site_label_1
_geom_bond_atom_site_label_2
_geom_bond_distance
_ccdc_geom_bond_type
C68   H42   1.108089 S    
C29   C59   1.422573 S    
O17   C56   1.278432 A    
C4    C46   1.430805 S    
C20   C22   1.204979 T    
C39   N3    1.432413 S    
N1    H19   1.030343 S    
C8    C11   1.408279 A    
C47   C48   1.389317 A    
C53   C54   1.388485 A    
C45   C60   1.437610 S    
O4    Cr2   1.936356 S    
C30   C31   1.359355 D    
C24   C27   1.449142 S    
O8    Cr1   1.922741 S    
C39   C40   1.394035 A    
C46   C48   1.394388 A    
C16   H4    1.082909 S    
N2    C64   1.449165 S    
C12   C13   1.408879 A    
C8    C10   1.418724 A    
O15   Cr4   1.925820 S    
C17   C21   1.205633 T    
C65   H35   1.108587 S    
O17   Cr5   1.946204 S    
O24   Cr6   2.027500 S    
C68   H40   1.110444 S    
C43   H9    1.084265 S    
C5    O11   1.264512 A    
C63   H23   1.110347 S    
C31   C32   1.443018 S    
C35   C43   1.397296 A    
O21   C58   1.269464 A    
C49   H18   1.086475 S    
O6    C3    1.299630 A    
C46   C49   1.399032 A    
O23   Cr5   1.915525 S    
C37   H10   1.083716 S    
C14   H1    1.084984 S    
C61   H22   1.111118 S    
O22   Cr5   2.062840 S    
C26   C28   1.206953 T    
C43   C44   1.371963 A    
Cr3   O13   1.969250 S    
C5    C34   1.423113 S    
C56   O18   1.267963 A    
C52   H13   1.085716 S    
C45   C53   1.395207 A    
C1    C28   1.436013 S    
O16   Cr5   2.033988 S    
O6    Cr3   1.914421 S    
C18   C21   1.444951 S    
C9    C13   1.394890 A    
O7    C6    1.260225 A    
C40   C44   1.399812 A    
C36   C38   1.404655 A    
C3    C22   1.432808 S    
C7    C14   1.401662 A    
C67   H44   1.111939 S    
C12   C16   1.402814 A    
Cr1   O13   1.977193 S    
O1    C3    1.285576 A    
N4    C66   1.447592 S    
O18   Cr6   2.058687 S    
C55   O16   1.266758 A    
C50   C51   1.408413 A    
C65   H33   1.110930 S    
C25   H7    1.086327 S    
C64   H31   1.111068 S    
C9    C10   1.395592 A    
C49   C50   1.375548 A    
O1    Cr1   2.039824 S    
C17   C55   1.434390 S    
C30   N2    1.438965 S    
O12   Cr3   1.944796 S    
O20   Cr4   2.043720 S    
C51   C52   1.376618 A    
O14   C57   1.268715 A    
C37   C38   1.392185 A    
C63   H25   1.110499 S    
C7    C15   1.403705 A    
N3    C65   1.451087 S    
C62   H26   1.111523 S    
C13   C14   1.389623 A    
O10   Cr2   1.912379 S    
C50   C54   1.400530 A    
C35   C42   1.400071 A    
C25   C26   1.446977 S    
C18   C67   1.513523 S    
C23   C27   1.206503 T    
O7    Cr1   2.051018 S    
C42   H8    1.084432 S    
C2    C8    1.475545 S    
O19   C57   1.274772 A    
O14   Cr4   2.043996 S    
O12   C6    1.280954 A    
C15   H2    1.083000 S    
C35   C58   1.447064 S    
N1    C61   1.448455 S    
C48   H17   1.083296 S    
C66   H38   1.111240 S    
C9    H3    1.084705 S    
C38   H12   1.083180 S    
C19   C20   1.443292 S    
Cr2   O13   1.980962 S    
C32   C34   1.199849 T    
Cr4   O26   1.975041 S    
C1    O3    1.271430 A    
C18   C19   1.349023 D    
C53   H14   1.083438 S    
C47   H15   1.080240 S    
C61   H20   1.110049 S    
O19   Cr6   1.911636 S    
C30   C33   1.445206 S    
C68   H41   1.110900 S    
O25   Cr6   1.937486 S    
C24   C25   1.350906 D    
C36   C39   1.416818 A    
C64   H30   1.110744 S    
O9    Cr2   2.051658 S    
O2    Cr1   1.931289 S    
C67   C68   1.526321 S    
C67   H43   1.111945 S    
C15   C16   1.396555 A    
N4    H36   1.030777 S    
C66   H39   1.110256 S    
O8    C4    1.272664 A    
O11   Cr3   2.029916 S    
C2    O5    1.295479 A    
O21   Cr4   1.928429 S    
O25   C60   1.264034 A    
O20   C60   1.272014 A    
C7    C56   1.466583 S    
C37   C41   1.398338 A    
C41   C42   1.395551 A    
N3    H32   1.030257 S    
C62   H27   1.110735 S    
C54   H16   1.078803 S    
C62   C63   1.531423 S    
O5    Cr3   2.064361 S    
O15   C55   1.270123 A    
O4    C2    1.306702 A    
C11   H5    1.083918 S    
C64   H29   1.109524 S    
C58   O22   1.259906 A    
C45   C52   1.403239 A    
Cr5   O26   1.968638 S    
O2    C1    1.278764 A    
C44   H11   1.076119 S    
O23   C59   1.270886 A    
C63   H24   1.110668 S    
C10   N4    1.422730 S    
C66   H37   1.111620 S    
C40   C41   1.415403 A    
O3    Cr2   2.030676 S    
C6    C36   1.463352 S    
C19   H6    1.086537 S    
C4    O9    1.259483 A    
C65   H34   1.109411 S    
C31   C62   1.528881 S    
Cr6   O26   1.981031 S    
C59   O24   1.266892 A    
O10   C5    1.271529 A    
C23   C57   1.435361 S    
C61   H21   1.110538 S    
C24   N1    1.433345 S    
C47   C51   1.402994 A    
C29   C33   1.199325 T    
N2    H28   1.030867 S    
C11   C12   1.395374 A    
