data_mof_unit_47810.cif
_audit_creation_date              2012-12-11T16:07:14-0500
_audit_creation_method            fapswitch 2.2
_symmetry_space_group_name_H-M    P1
_symmetry_Int_Tables_number       1
_space_group_crystal_system       triclinic
_cell_length_a                    17.207726
_cell_length_b                    17.207732
_cell_length_c                    17.159088
_cell_angle_alpha                 89.999984
_cell_angle_beta                  89.999979
_cell_angle_gamma                 90.0
_cell_volume                      5080.90783609

loop_
_atom_site_label
_atom_site_type_symbol
_atom_type_description
_atom_site_fract_x
_atom_site_fract_y
_atom_site_fract_z
_atom_type_partial_charge
C1    C     C_R   0.418706 0.672660 0.645361 0.443888
C2    C     C_R   0.610342 0.700814 0.593543 0.474429
C3    C     C_3   0.739391 0.260609 0.728605 -0.135401
C4    C     C_3   0.739391 0.739391 0.271395 -0.135401
C5    C     C_3   0.202124 0.202122 0.624184 -0.144386
C6    C     C_3   0.797877 0.202123 0.375815 -0.144386
C7    C     C_3   0.260609 0.739391 0.728605 -0.135401
C8    C     C_3   0.760609 0.760608 0.771395 -0.135401
C9    C     C_3   0.297877 0.297877 0.124185 -0.144387
C10   C     C_3   0.702123 0.297877 0.875815 -0.144386
C11   C     C_3   0.239390 0.760608 0.228605 -0.135401
C12   C     C_3   0.239390 0.239392 0.771395 -0.135400
C13   C     C_R   0.700814 0.389658 0.406457 0.474428
C14   C     C_3   0.702123 0.702123 0.124185 -0.144387
C15   C     C_3   0.297877 0.702122 0.875815 -0.144386
C16   C     C_3   0.760609 0.239391 0.228605 -0.135400
C17   C     C_R   0.327340 0.581294 0.645361 0.443888
C18   C     C_R   0.581294 0.672660 0.354639 0.443889
C19   C     C_R   0.389658 0.299185 0.593543 0.474428
C20   C     C_R   0.299186 0.610341 0.406457 0.474428
C21   C     C_R   0.672660 0.418706 0.645361 0.443888
C22   C     C_R   0.918706 0.172660 0.145361 0.443888
C23   C     C_R   0.110342 0.799185 0.906457 0.474429
C24   C     C_R   0.200814 0.110341 0.093543 0.474428
C25   C     C_R   0.610342 0.299185 0.406457 0.474429
C26   C     C_R   0.827340 0.918706 0.854639 0.443888
C27   C     C_R   0.081294 0.827340 0.145361 0.443889
C28   C     C_R   0.889658 0.200814 0.906457 0.474429
C29   C     C_R   0.799185 0.889658 0.093543 0.474428
C30   C     C_R   0.172660 0.081294 0.854639 0.443887
C31   C     C_R   0.918706 0.827340 0.854639 0.443888
C32   C     C_R   0.110341 0.200814 0.093543 0.474428
C33   C     C_R   0.200814 0.889658 0.906457 0.474427
C34   C     C_R   0.827340 0.081294 0.145361 0.443888
C35   C     C_R   0.081294 0.172660 0.854639 0.443888
C36   C     C_R   0.700814 0.610341 0.593543 0.474428
C37   C     C_R   0.889658 0.799185 0.093543 0.474429
C38   C     C_R   0.799185 0.110342 0.906457 0.474428
C39   C     C_R   0.172660 0.918706 0.145361 0.443887
C40   C     C_3   0.321002 0.321002 0.246253 0.190683
C41   C     C_3   0.737861 0.737861 0.650759 0.144382
C42   C     C_3   0.262139 0.737861 0.349241 0.144382
C43   C     C_3   0.678998 0.321002 0.753747 0.190683
C44   C     C_3   0.678998 0.678998 0.246253 0.190684
C45   C     C_3   0.262139 0.262139 0.650759 0.144382
C46   C     C_3   0.737861 0.262139 0.349241 0.144382
C47   C     C_R   0.327340 0.418706 0.354639 0.443889
C48   C     C_3   0.321002 0.678998 0.753747 0.190684
C49   C     C_3   0.821002 0.821002 0.746253 0.190683
C50   C     C_3   0.237861 0.237861 0.150759 0.144382
C51   C     C_3   0.762139 0.237861 0.849241 0.144381
C52   C     C_3   0.178998 0.821002 0.253747 0.190683
C53   C     C_3   0.178998 0.178998 0.746253 0.190683
C54   C     C_3   0.762139 0.762139 0.150758 0.144381
C55   C     C_3   0.237861 0.762139 0.849241 0.144382
C56   C     C_3   0.821002 0.178998 0.253747 0.190683
C57   C     C_R   0.360733 0.639267 0.689621 -0.283666
C58   C     C_R   0.581294 0.327340 0.645361 0.443888
C59   C     C_R   0.686792 0.313208 0.393380 -0.239017
C60   C     C_R   0.686792 0.686792 0.606619 -0.239017
C61   C     C_R   0.360733 0.360733 0.310379 -0.283666
C62   C     C_R   0.639267 0.360733 0.689621 -0.283666
C63   C     C_R   0.313208 0.686792 0.393381 -0.239017
C64   C     C_R   0.313208 0.313208 0.606619 -0.239017
C65   C     C_R   0.639267 0.639267 0.310379 -0.283666
C66   C     C_R   0.860733 0.139267 0.189621 -0.283666
C67   C     C_R   0.186792 0.813208 0.893381 -0.239016
C68   C     C_R   0.186792 0.186792 0.106620 -0.239017
C69   C     C_R   0.389658 0.700814 0.406457 0.474429
C70   C     C_R   0.860733 0.860733 0.810379 -0.283666
C71   C     C_R   0.139267 0.860734 0.189621 -0.283666
C72   C     C_R   0.813208 0.186792 0.893381 -0.239016
C73   C     C_R   0.813208 0.813208 0.106619 -0.239015
C74   C     C_R   0.139267 0.139266 0.810379 -0.283666
C75   C     C_3   0.794335 0.704125 0.710987 -0.080794
C76   C     C_3   0.264950 0.355225 0.185658 -0.074496
C77   C     C_3   0.644775 0.264950 0.814342 -0.074498
C78   C     C_3   0.295874 0.794334 0.289012 -0.080798
C79   C     C_3   0.205664 0.295874 0.710986 -0.080792
C80   C     C_R   0.299185 0.389658 0.593543 0.474428
C81   C     C_3   0.735050 0.644775 0.185658 -0.074497
C82   C     C_3   0.355225 0.735050 0.814342 -0.074497
C83   C     C_3   0.704126 0.205665 0.289013 -0.080795
C84   C     C_3   0.794335 0.295874 0.289013 -0.080794
C85   C     C_3   0.264950 0.644775 0.814342 -0.074497
C86   C     C_3   0.644775 0.735050 0.185658 -0.074497
C87   C     C_3   0.295874 0.205666 0.710988 -0.080798
C88   C     C_3   0.205664 0.704126 0.289014 -0.080791
C89   C     C_3   0.735050 0.355225 0.814342 -0.074497
C90   C     C_3   0.355225 0.264950 0.185658 -0.074497
C91   C     C_R   0.672660 0.581294 0.354639 0.443888
C92   C     C_3   0.704125 0.794334 0.710987 -0.080796
C93   C     C_3   0.294334 0.204125 0.210987 -0.080795
C94   C     C_3   0.764950 0.855225 0.685658 -0.074496
C95   C     C_3   0.144774 0.764951 0.314343 -0.074500
C96   C     C_3   0.795874 0.294334 0.789013 -0.080794
C97   C     C_3   0.705665 0.795875 0.210987 -0.080795
C98   C     C_3   0.235051 0.144775 0.685659 -0.074494
C99   C     C_3   0.855225 0.235050 0.314342 -0.074498
C100  C     C_3   0.204125 0.705665 0.789013 -0.080795
C101  C     C_3   0.294335 0.795874 0.789013 -0.080794
C102  C     C_R   0.418706 0.327340 0.354639 0.443888
C103  C     C_3   0.764950 0.144775 0.314342 -0.074497
C104  C     C_3   0.144774 0.235049 0.685657 -0.074500
C105  C     C_3   0.795875 0.705665 0.210987 -0.080795
C106  C     C_3   0.705665 0.204125 0.789013 -0.080795
C107  C     C_3   0.235051 0.855225 0.314341 -0.074495
C108  C     C_3   0.855225 0.764950 0.685658 -0.074498
C109  C     C_3   0.204125 0.294334 0.210987 -0.080796
C110  C     C_3   0.260609 0.260609 0.271395 -0.135401
C111  C     C_3   0.797877 0.797878 0.624185 -0.144387
C112  C     C_3   0.202124 0.797878 0.375816 -0.144386
Cl1   Cl    Cl    0.456501 0.765461 0.663453 -0.563050
Cl2   Cl    Cl    0.586177 0.787496 0.544931 -0.433116
Cl3   Cl    Cl    0.787496 0.413823 0.455069 -0.433115
Cl4   Cl    Cl    0.234539 0.543499 0.663453 -0.563051
Cl5   Cl    Cl    0.543499 0.765460 0.336547 -0.563051
Cl6   Cl    Cl    0.413823 0.212504 0.544931 -0.433115
Cl7   Cl    Cl    0.212504 0.586177 0.455069 -0.433116
Cl8   Cl    Cl    0.765461 0.456501 0.663453 -0.563050
Cl9   Cl    Cl    0.956501 0.265461 0.163453 -0.563050
Cl10  Cl    Cl    0.086177 0.712504 0.955069 -0.433116
Cl11  Cl    Cl    0.287496 0.086177 0.044930 -0.433115
Cl12  Cl    Cl    0.586177 0.212504 0.455069 -0.433116
Cl13  Cl    Cl    0.734539 0.956501 0.836547 -0.563050
Cl14  Cl    Cl    0.043498 0.734540 0.163454 -0.563052
Cl15  Cl    Cl    0.913823 0.287495 0.955069 -0.433115
Cl16  Cl    Cl    0.712504 0.913823 0.044930 -0.433115
Cl17  Cl    Cl    0.265461 0.043499 0.836548 -0.563049
Cl18  Cl    Cl    0.956501 0.734539 0.836547 -0.563050
Cl19  Cl    Cl    0.086177 0.287495 0.044930 -0.433116
Cl20  Cl    Cl    0.287496 0.913823 0.955069 -0.433115
Cl21  Cl    Cl    0.734539 0.043499 0.163453 -0.563050
Cl22  Cl    Cl    0.043499 0.265460 0.836546 -0.563051
Cl23  Cl    Cl    0.787496 0.586177 0.544931 -0.433116
Cl24  Cl    Cl    0.913823 0.712504 0.044930 -0.433115
Cl25  Cl    Cl    0.712504 0.086177 0.955069 -0.433115
Cl26  Cl    Cl    0.265461 0.956500 0.163452 -0.563049
Cl27  Cl    Cl    0.234540 0.456501 0.336547 -0.563051
Cl28  Cl    Cl    0.543499 0.234539 0.663453 -0.563050
Cl29  Cl    Cl    0.413823 0.787495 0.455069 -0.433116
Cl30  Cl    Cl    0.212504 0.413823 0.544930 -0.433116
Cl31  Cl    Cl    0.765461 0.543499 0.336547 -0.563050
Cl32  Cl    Cl    0.456501 0.234539 0.336547 -0.563051
H1    H     H_    0.245775 0.245775 0.332621 0.176497
H2    H     H_    0.311694 0.311694 0.062543 0.165052
H3    H     H_    0.688306 0.311694 0.937457 0.165052
H4    H     H_    0.254223 0.745774 0.167379 0.176497
H5    H     H_    0.254223 0.254226 0.832621 0.176497
H6    H     H_    0.688306 0.688306 0.062543 0.165051
H7    H     H_    0.311694 0.688306 0.937457 0.165052
H8    H     H_    0.745775 0.254225 0.167379 0.176497
H9    H     H_    0.806013 0.641491 0.721226 0.203755
H10   H     H_    0.254176 0.417892 0.174864 0.181863
H11   H     H_    0.582108 0.254177 0.825136 0.181863
H12   H     H_    0.811694 0.811695 0.562543 0.165052
H13   H     H_    0.358509 0.806010 0.278772 0.203754
H14   H     H_    0.193985 0.358509 0.721224 0.203756
H15   H     H_    0.745823 0.582108 0.174864 0.181863
H16   H     H_    0.417892 0.745823 0.825136 0.181862
H17   H     H_    0.641491 0.193988 0.278774 0.203755
H18   H     H_    0.806013 0.358509 0.278774 0.203755
H19   H     H_    0.254176 0.582108 0.825136 0.181863
H20   H     H_    0.582108 0.745823 0.174864 0.181863
H21   H     H_    0.358509 0.193990 0.721227 0.203754
H22   H     H_    0.193985 0.641491 0.278776 0.203756
H23   H     H_    0.188307 0.811696 0.437457 0.165052
H24   H     H_    0.745823 0.417892 0.825136 0.181862
H25   H     H_    0.417892 0.254177 0.174864 0.181862
H26   H     H_    0.641491 0.806011 0.721227 0.203754
H27   H     H_    0.306012 0.141491 0.221226 0.203754
H28   H     H_    0.754176 0.917892 0.674865 0.181863
H29   H     H_    0.082108 0.754179 0.325137 0.181862
H30   H     H_    0.858509 0.306012 0.778774 0.203755
H31   H     H_    0.693988 0.858509 0.221226 0.203755
H32   H     H_    0.245825 0.082108 0.674865 0.181863
H33   H     H_    0.917892 0.245823 0.325136 0.181862
H34   H     H_    0.754225 0.245775 0.667379 0.176497
H35   H     H_    0.141491 0.693988 0.778774 0.203755
H36   H     H_    0.306013 0.858509 0.778774 0.203755
H37   H     H_    0.754177 0.082108 0.325136 0.181863
H38   H     H_    0.082108 0.245821 0.674863 0.181861
H39   H     H_    0.858509 0.693988 0.221226 0.203755
H40   H     H_    0.693988 0.141491 0.778774 0.203755
H41   H     H_    0.245825 0.917892 0.325134 0.181863
H42   H     H_    0.917892 0.754177 0.674864 0.181862
H43   H     H_    0.141491 0.306012 0.221226 0.203754
H44   H     H_    0.754225 0.754225 0.332621 0.176497
H45   H     H_    0.188307 0.188304 0.562543 0.165051
H46   H     H_    0.811694 0.188306 0.437457 0.165052
H47   H     H_    0.245775 0.754225 0.667379 0.176497
H48   H     H_    0.745776 0.745775 0.832621 0.176497
N1    N     N_R   0.424590 0.632770 0.578330 -0.105300
N2    N     N_R   0.575410 0.632770 0.578330 -0.141231
N3    N     N_R   0.632770 0.424590 0.421670 -0.141231
N4    N     N_R   0.367230 0.575410 0.578330 -0.105300
N5    N     N_R   0.575410 0.632770 0.421670 -0.105300
N6    N     N_R   0.424590 0.367230 0.578330 -0.141231
N7    N     N_R   0.367230 0.575410 0.421670 -0.141231
N8    N     N_R   0.632770 0.424590 0.578330 -0.105300
N9    N     N_R   0.924590 0.132770 0.078330 -0.105300
N10   N     N_R   0.075410 0.867230 0.921670 -0.141231
N11   N     N_R   0.132770 0.075410 0.078330 -0.141232
N12   N     N_R   0.575410 0.367230 0.421670 -0.141231
N13   N     N_R   0.867230 0.924590 0.921670 -0.105300
N14   N     N_R   0.075410 0.867230 0.078330 -0.105300
N15   N     N_R   0.924590 0.132770 0.921670 -0.141231
N16   N     N_R   0.867230 0.924590 0.078330 -0.141232
N17   N     N_R   0.132770 0.075410 0.921670 -0.105300
N18   N     N_R   0.924590 0.867230 0.921670 -0.105300
N19   N     N_R   0.075410 0.132770 0.078330 -0.141232
N20   N     N_R   0.132770 0.924590 0.921670 -0.141231
N21   N     N_R   0.867230 0.075410 0.078330 -0.105300
N22   N     N_R   0.075410 0.132770 0.921670 -0.105300
N23   N     N_R   0.632770 0.575410 0.578330 -0.141231
N24   N     N_R   0.924590 0.867230 0.078330 -0.141231
N25   N     N_R   0.867230 0.075410 0.921670 -0.141231
N26   N     N_R   0.132770 0.924590 0.078330 -0.105300
N27   N     N_R   0.367230 0.424590 0.421670 -0.105300
N28   N     N_R   0.575410 0.367230 0.578330 -0.105300
N29   N     N_R   0.424590 0.632770 0.421670 -0.141231
N30   N     N_R   0.367230 0.424590 0.578330 -0.141231
N31   N     N_R   0.632770 0.575410 0.421670 -0.105300
N32   N     N_R   0.424590 0.367230 0.421670 -0.105300
Ni1   Ni    Ni4+2 0.500000 0.631570 0.500000 0.313967
Ni2   Ni    Ni4+2 0.500000 0.368430 0.500000 0.313967
Ni3   Ni    Ni4+2 0.631570 0.500000 0.500000 0.313967
Ni4   Ni    Ni4+2 0.368430 0.500000 0.500000 0.313967
Ni5   Ni    Ni4+2 0.000000 0.131570 0.000000 0.313967
Ni6   Ni    Ni4+2 0.000000 0.868430 0.000000 0.313967
Ni7   Ni    Ni4+2 0.131570 0.000000 0.000000 0.313968
Ni8   Ni    Ni4+2 0.868430 0.000000 0.000000 0.313967

loop_
_geom_bond_atom_site_label_1
_geom_bond_atom_site_label_2
_ccdc_geom_bond_type
C58   C62   A    
C21   Cl8   S    
C104  H38   S    
N4    Ni4   S    
C24   N11   A    
C97   H31   S    
C46   C59   S    
N14   Ni6   S    
C107  C112  S    
C94   C111  S    
C39   N26   A    
C53   C74   S    
C25   N12   A    
C7    H47   S    
N25   Ni8   S    
C34   C66   A    
C30   N17   A    
C15   H7    S    
N20   Ni7   S    
C102  N32   A    
C48   C57   S    
C35   C74   A    
C109  H43   S    
C18   C65   A    
C3    C43   S    
C43   C89   S    
C29   N16   A    
C1    Cl1   S    
C90   C93   S    
C101  H36   S    
C81   H15   S    
N2    Ni1   S    
C108  H42   S    
C77   C106  S    
N6    N30   A    
C3    H34   S    
C55   C101  S    
C99   H33   S    
C31   Cl18  S    
C7    C101  S    
C95   C112  S    
C36   N23   A    
C30   C74   A    
C33   N20   A    
N31   Ni3   S    
C11   H4    S    
C29   C73   A    
C53   C104  S    
C69   Cl29  S    
C12   C79   S    
N29   Ni1   S    
C9    H2    S    
C16   C84   S    
C98   H32   S    
C96   H30   S    
C52   C95   S    
N17   Ni7   S    
C23   C67   A    
C10   C89   S    
C86   C97   S    
C42   C112  S    
C22   C66   A    
C80   N30   A    
C11   C52   S    
C94   H28   S    
N27   N32   A    
C20   N7    A    
C58   N28   A    
C52   C107  S    
C31   C70   A    
C63   C69   A    
C19   Cl6   S    
C92   H26   S    
C76   C109  S    
C55   C100  S    
N24   Ni6   S    
C56   C66   S    
C54   C97   S    
C3    C96   S    
C8    C92   S    
C9    C76   S    
C16   C83   S    
C49   C94   S    
C15   C82   S    
C110  H1    S    
N19   Ni5   S    
N7    Ni4   S    
C11   C88   S    
C37   N24   A    
C69   N29   A    
C12   C53   S    
C22   N9    A    
C28   Cl15  S    
C51   C96   S    
N10   Ni6   S    
C87   C98   S    
C56   C103  S    
N9    Ni5   S    
C83   H17   S    
C5    C104  S    
C75   C108  S    
N16   N24   A    
C4    C97   S    
C64   C80   A    
C38   N25   A    
N11   N19   A    
C44   C65   S    
C28   C72   A    
C2    C60   A    
C102  Cl32  S    
C79   H14   S    
C44   C86   S    
C10   C51   S    
C35   Cl22  S    
C50   C68   S    
C25   Cl12  S    
C10   C77   S    
C49   C108  S    
C91   Cl31  S    
C3    C106  S    
C38   C72   A    
N15   N25   A    
C7    C100  S    
C23   N10   A    
C14   C86   S    
C16   H8    S    
C44   C81   S    
N2    N23   A    
C32   N19   A    
C24   C68   A    
N15   Ni5   S    
C40   C110  S    
N3    N12   A    
C4    C44   S    
C34   Cl21  S    
C36   C60   A    
C112  H23   S    
C5    C45   S    
C24   Cl11  S    
N14   N26   A    
C15   C85   S    
C40   C76   S    
C78   C107  S    
C2    N2    A    
C26   Cl13  S    
C15   C55   S    
C107  H41   S    
C1    N1    A    
C16   C56   S    
C89   H24   S    
C23   Cl10  S    
C20   Cl7   S    
C11   C78   S    
C1    C57   A    
C41   C75   S    
C54   C73   S    
C82   H16   S    
C75   H9    S    
C78   H13   S    
C26   C70   A    
N8    N28   A    
N30   Ni4   S    
C19   C64   A    
N1    N4    A    
N9    N21   A    
C14   H6    S    
C18   N5    A    
C92   C94   S    
N18   Ni6   S    
C37   Cl24  S    
N28   Ni2   S    
C45   C79   S    
C6    C103  S    
C105  H39   S    
C40   C61   S    
C18   Cl5   S    
C106  H40   S    
C21   C62   A    
C13   Cl3   S    
N21   Ni8   S    
C83   C103  S    
N16   Ni8   S    
N7    N29   A    
C33   Cl20  S    
C14   C54   S    
C42   C78   S    
C88   H22   S    
C49   C70   S    
C41   C111  S    
N27   Ni4   S    
C46   C84   S    
C79   C104  S    
C29   Cl16  S    
C26   N13   A    
C42   C88   S    
C51   C72   S    
C21   N8    A    
C91   N31   A    
C36   Cl23  S    
C6    H46   S    
C27   C71   A    
C33   C67   A    
C22   Cl9   S    
C88   C95   S    
C111  H12   S    
C58   Cl28  S    
C65   C91   A    
C81   C105  S    
C37   C73   A    
C93   H27   S    
C19   N6    A    
C6    C46   S    
C54   C105  S    
C45   C87   S    
C103  H37   S    
C84   C99   S    
C12   H5    S    
C9    C50   S    
C41   C60   S    
N10   N20   A    
N5    N31   A    
C34   N21   A    
N32   Ni2   S    
C9    C90   S    
C47   C61   A    
C55   C67   S    
C50   C93   S    
C82   C101  S    
C13   C59   A    
N3    Ni3   S    
C53   C98   S    
C43   C77   S    
C30   Cl17  S    
C4    C105  S    
C10   H3    S    
C45   C64   S    
C80   Cl30  S    
N17   N22   A    
C14   C81   S    
C108  C111  S    
C32   C68   A    
C27   N14   A    
C40   C90   S    
C7    C48   S    
C4    H44   S    
C20   C63   A    
C61   C102  A    
C95   H29   S    
C5    H45   S    
C12   C87   S    
C85   C100  S    
C109  C110  S    
C6    C99   S    
N11   Ni7   S    
C2    Cl2   S    
C87   H21   S    
C31   N18   A    
C47   N27   A    
N13   N18   A    
C8    H48   S    
C51   C106  S    
C85   H19   S    
C8    C49   S    
C90   H25   S    
C76   H10   S    
C27   Cl14  S    
C38   Cl25  S    
C48   C82   S    
N23   Ni3   S    
C50   C109  S    
C35   N22   A    
N26   Ni7   S    
C39   Cl26  S    
C8    C75   S    
N1    Ni1   S    
C46   C83   S    
C41   C92   S    
C86   H20   S    
C5    C98   S    
C43   C62   S    
C13   N3    A    
C84   H18   S    
C47   Cl27  S    
C52   C71   S    
C28   N15   A    
C39   C71   A    
C48   C85   S    
C17   N4    A    
N13   Ni8   S    
C25   C59   A    
C56   C99   S    
C89   C96   S    
N22   Ni5   S    
C100  H35   S    
N12   Ni2   S    
C42   C63   S    
N8    Ni3   S    
C32   Cl19  S    
C77   H11   S    
N6    Ni2   S    
C17   Cl4   S    
C17   C57   A    
C93   C110  S    
N5    Ni1   S    
