data_mof_unit_38460.cif
_audit_creation_date              2012-12-10T17:52:21-0500
_audit_creation_method            fapswitch 2.2
_symmetry_space_group_name_H-M    P1
_symmetry_Int_Tables_number       1
_space_group_crystal_system       triclinic
_cell_length_a                    19.012263
_cell_length_b                    10.63101
_cell_length_c                    9.914579
_cell_angle_alpha                 89.922286
_cell_angle_beta                  89.961042
_cell_angle_gamma                 91.741049
_cell_volume                      2003.00284673

loop_
_atom_site_label
_atom_site_type_symbol
_atom_type_description
_atom_site_fract_x
_atom_site_fract_y
_atom_site_fract_z
_atom_type_partial_charge
C1    C     C_R   0.501759 0.260717 0.500104 0.853508
C2    C     C_R   0.289136 0.474040 0.500095 -0.033953
C3    C     C_R   0.927096 0.389755 0.499367 0.287437
C4    C     C_R   0.069137 0.389195 0.499704 0.287994
C5    C     C_R   0.815136 0.421634 0.621723 -0.168482
C6    C     C_R   0.744974 0.453885 0.622099 -0.216774
C7    C     C_R   0.710078 0.475311 0.500019 -0.031446
C8    C     C_R   0.746217 0.463963 0.377574 -0.185352
C9    C     C_R   0.816386 0.431763 0.377179 -0.162888
C10   C     C_R   0.851483 0.410962 0.499283 0.090922
C11   C     C_R   0.619706 0.137621 0.624351 -0.170830
C12   C     C_R   0.365191 0.496437 0.500075 0.845058
C13   C     C_R   0.674943 0.074994 0.684500 -0.127141
C14   C     C_R   0.675016 0.944100 0.684467 -0.137555
C15   C     C_R   0.619910 0.875389 0.624088 -0.191340
C16   C     C_R   0.563070 0.937488 0.563817 0.095707
C17   C     C_R   0.562944 0.069372 0.564022 0.097480
C18   C     C_R   0.506596 0.128703 0.499906 -0.088280
C19   C     C_R   0.453481 0.061780 0.432359 -0.213371
C20   C     C_R   0.453635 0.933265 0.432088 -0.197567
C21   C     C_R   0.506878 0.872055 0.499408 -0.103364
C22   C     C_R   0.407521 0.335208 0.140370 -0.163023
C23   C     C_R   0.502099 0.739470 0.499881 0.877425
C24   C     C_R   0.361822 0.254298 0.070358 -0.200659
C25   C     C_R   0.361828 0.254261 0.930751 -0.191308
C26   C     C_R   0.407556 0.335099 0.860331 -0.159211
C27   C     C_R   0.454455 0.418744 0.927868 0.168744
C28   C     C_R   0.454450 0.418801 0.072459 0.172858
C29   C     C_R   0.543647 0.577602 0.071310 -0.115750
C30   C     C_R   0.543630 0.577581 0.928202 -0.115653
C31   C     C_R   0.634733 0.497199 0.499950 0.828339
C32   C     C_R   0.252986 0.457393 0.622451 -0.202167
C33   C     C_R   0.181696 0.425312 0.622362 -0.162529
C34   C     C_R   0.145510 0.409905 0.499906 0.087272
C35   C     C_R   0.181883 0.425629 0.377566 -0.162555
C36   C     C_R   0.253148 0.457728 0.377663 -0.206700
H1    H     H_    0.279773 0.467965 0.718336 0.161512
H2    H     H_    0.622612 0.239248 0.623974 0.153396
H3    H     H_    0.718135 0.128253 0.730089 0.140931
H4    H     H_    0.718258 0.895632 0.730112 0.138643
H5    H     H_    0.622995 0.774003 0.623340 0.141893
H6    H     H_    0.411318 0.881127 0.381850 0.154088
H7    H     H_    0.579308 0.641036 0.124881 0.147283
H8    H     H_    0.404408 0.329412 0.247308 0.198149
H9    H     H_    0.326220 0.191179 0.124974 0.149529
H10   H     H_    0.326213 0.191130 0.876467 0.153497
H11   H     H_    0.154899 0.414310 0.718257 0.150822
H12   H     H_    0.579264 0.641029 0.874269 0.144526
H13   H     H_    0.155253 0.414846 0.281577 0.151001
H14   H     H_    0.280044 0.468565 0.281818 0.161900
H15   H     H_    0.840963 0.406519 0.717442 0.148885
H16   H     H_    0.717951 0.460384 0.717936 0.156859
H17   H     H_    0.720219 0.478779 0.281929 0.155818
H18   H     H_    0.843231 0.424924 0.281229 0.148924
H19   H     H_    0.411068 0.109311 0.382257 0.139910
N1    N     N_R   0.033088 0.387581 0.381795 -0.179178
N2    N     N_R   0.963312 0.387867 0.381627 -0.179125
N3    N     N_R   0.963046 0.386329 0.617267 -0.179843
N4    N     N_R   0.032834 0.386072 0.617434 -0.179241
N5    N     N_R   0.499340 0.498800 0.142780 -0.120521
N6    N     N_R   0.499320 0.498720 0.857170 -0.120252
O1    O     O_R   0.500000 0.316780 0.614690 -0.638468
O2    O     O_R   0.499990 0.316750 0.385360 -0.626090
O3    O     O_R   0.398140 0.500000 0.614700 -0.632412
O4    O     O_R   0.398130 0.499970 0.385370 -0.637068
O5    O     O_R   0.500010 0.683250 0.614640 -0.610435
O6    O     O_R   0.500000 0.683220 0.385310 -0.607849
O7    O     O_R   0.601870 0.500030 0.614630 -0.631827
O8    O     O_R   0.601860 0.500000 0.385300 -0.612814
Zn1   Zn    Zn3+2 0.500000 0.500020 0.653130 0.930851
Zn2   Zn    Zn3+2 0.500000 0.499980 0.346870 0.938889
H20   H     H_    0.404510 0.329217 0.753385 0.202973

loop_
_geom_bond_atom_site_label_1
_geom_bond_atom_site_label_2
_ccdc_geom_bond_type
C8    H17   S    
C35   H13   S    
C11   H2    S    
C20   H6    S    
C24   C25   A    
C16   C21   A    
C29   C30   A    
O3    Zn1   S    
C26   H20   S    
C9    C10   A    
C19   C20   A    
C29   N5    A    
C29   H7    S    
C2    C12   S    
C32   C33   A    
C2    C36   A    
C33   H11   S    
C21   C23   S    
C17   C18   A    
C26   C27   A    
O8    Zn2   S    
C5    C10   A    
O7    Zn1   S    
N6    Zn1   S    
C22   C28   A    
C32   H1    S    
C4    N1    A    
C18   C19   A    
C11   C13   A    
O1    Zn1   S    
C1    C18   S    
O5    Zn1   S    
C5    C6    A    
C24   H9    S    
C1    O2    A    
C4    N4    A    
C30   H12   S    
C25   C26   A    
O2    Zn2   S    
C33   C34   A    
C6    C7    A    
O6    Zn2   S    
C28   N5    A    
C4    C34   S    
C31   O7    A    
C12   O3    A    
C22   C24   A    
C13   H3    S    
C7    C31   S    
N1    N2    A    
C14   H4    S    
C23   O5    A    
C3    N3    A    
C3    N2    A    
C31   O8    A    
C36   H14   S    
C20   C21   A    
C15   H5    S    
C1    O1    A    
C2    C32   A    
C34   C35   A    
C12   O4    A    
C30   N6    A    
C23   O6    A    
C27   C28   A    
C3    C10   S    
C7    C8    A    
C19   H19   S    
C14   C15   A    
C5    H15   S    
C9    H18   S    
C27   N6    A    
N5    Zn2   S    
C6    H16   S    
N3    N4    A    
C13   C14   A    
C25   H10   S    
C22   H8    S    
C15   C16   A    
C16   C17   A    
O4    Zn2   S    
C8    C9    A    
C35   C36   A    
C11   C17   A    
