data_mof_unit_66671.cif
_audit_creation_date              2012-12-11T15:14:54-0500
_audit_creation_method            fapswitch 2.2
_symmetry_space_group_name_H-M    P1
_symmetry_Int_Tables_number       1
_space_group_crystal_system       triclinic
_cell_length_a                    11.430603
_cell_length_b                    11.400681
_cell_length_c                    18.424172
_cell_angle_alpha                 89.323863
_cell_angle_beta                  89.402973
_cell_angle_gamma                 120.316854
_cell_volume                      2072.11869096

loop_
_atom_site_label
_atom_site_type_symbol
_atom_type_description
_atom_site_fract_x
_atom_site_fract_y
_atom_site_fract_z
_atom_type_partial_charge
C1    C     C_R   0.525215 0.453671 0.643091 0.560776
C2    C     C_R   0.455916 0.521419 0.354585 0.540676
C3    C     C_R   0.482761 0.940184 0.147365 0.512765
C4    C     C_R   0.065281 0.543090 0.354287 0.543297
C5    C     C_3   0.378607 0.991634 0.478198 0.287500
C6    C     C_3   0.599388 0.562618 0.036509 0.317501
C7    C     C_3   0.992866 0.382521 0.472718 0.282077
C8    C     C_3   0.444694 0.068309 0.033554 0.293968
C9    C     C_3   0.620460 0.610929 0.470015 0.287703
C10   C     C_3   0.969951 0.395065 0.036607 0.311652
C11   C     C_3   0.041084 0.441247 0.961338 0.314290
C12   C     C_R   0.880961 0.455737 0.862943 0.538976
C13   C     C_3   0.536134 0.617836 0.532418 0.281089
C14   C     C_3   0.374163 0.954273 0.979680 0.318230
C15   C     C_3   0.086023 0.467709 0.532788 0.286058
C16   C     C_3   0.575228 0.610906 0.962256 0.318498
C17   C     C_3   0.379399 0.901217 0.539763 0.276629
C18   C     C_3   0.503125 0.116444 0.510531 -0.200226
C19   C     C_3   0.539819 0.417871 0.008188 -0.180618
C20   C     C_3   0.873541 0.388900 0.509034 -0.214692
C21   C     C_3   0.572139 0.133229 0.982554 -0.153530
C22   C     C_3   0.614802 0.484731 0.506251 -0.211082
C23   C     C_R   0.546615 0.069728 0.644065 0.542364
C24   C     C_3   0.860541 0.427165 0.012595 -0.184959
C25   C     C_3   0.130216 0.586629 0.988015 -0.164935
C26   C     C_3   0.405941 0.527878 0.489473 -0.069799
C27   C     C_3   0.427072 0.873062 0.021858 -0.110917
C28   C     C_3   0.127505 0.597234 0.486511 -0.060821
C29   C     C_3   0.434327 0.580421 0.988581 -0.175834
C30   C     C_3   0.471554 0.868902 0.492013 -0.065360
C31   C     C_3   0.507716 0.021694 0.570117 0.009834
C32   C     C_3   0.515776 0.466284 0.934889 0.007737
C33   C     C_3   0.972410 0.483869 0.567550 0.017620
C34   C     C_R   0.538614 0.428067 0.862853 0.532661
C35   C     C_3   0.502296 0.013112 0.930177 -0.004562
C36   C     C_3   0.521470 0.488589 0.566952 0.008934
C37   C     C_3   0.932156 0.472212 0.937725 0.010686
C38   C     C_3   0.058674 0.540191 0.063192 0.016123
C39   C     C_3   0.491612 0.515272 0.429197 0.037354
C40   C     C_3   0.500183 0.990450 0.073487 0.018775
C41   C     C_3   0.026917 0.509708 0.429136 0.041720
C42   C     C_3   0.458871 0.531494 0.062093 0.020374
C43   C     C_3   0.476091 0.965966 0.432293 0.031611
C44   C     C_3   0.598611 0.991669 0.522724 -0.117747
C45   C     C_R   0.930269 0.476976 0.643422 0.560345
C46   C     C_3   0.375028 0.434638 0.960096 -0.178087
C47   C     C_3   0.010646 0.610145 0.520679 -0.106206
C48   C     C_3   0.556375 0.935347 0.973475 -0.196104
C49   C     C_3   0.395250 0.398751 0.523516 -0.116312
C50   C     C_3   0.019121 0.616741 0.964800 -0.122803
C51   C     C_3   0.950674 0.573655 0.039364 -0.147866
C52   C     C_3   0.485627 0.391535 0.463439 -0.219434
C53   C     C_3   0.627359 0.053469 0.024456 -0.179136
C54   C     C_3   0.910947 0.517680 0.463014 -0.221484
C55   C     C_3   0.397701 0.387028 0.033193 -0.147327
C56   C     C_R   0.539654 0.059137 0.853822 0.517769
C57   C     C_3   0.598153 0.087763 0.463573 -0.215370
C58   C     C_3   0.216221 0.055826 0.467213 -0.037344
C59   C     C_3   0.208675 0.130796 0.400240 -0.361513
C60   C     C_3   0.711322 0.552169 0.139935 -0.004051
C61   C     C_3   0.803293 0.642898 0.199187 -0.336741
C62   C     C_3   0.927391 0.156315 0.452789 -0.030270
C63   C     C_3   0.861761 0.083065 0.383703 -0.360029
C64   C     C_3   0.407545 0.168181 0.137577 -0.000932
C65   C     C_3   0.277927 0.099270 0.184105 -0.309517
C66   C     C_3   0.846602 0.776072 0.445889 -0.027585
C67   C     C_R   0.424424 0.545521 0.137496 0.532092
C68   C     C_3   0.921145 0.786785 0.375402 -0.362344
C69   C     C_3   0.858044 0.255772 0.137946 0.007193
C70   C     C_3   0.865719 0.156415 0.190559 -0.328873
C71   C     C_3   0.164780 0.456701 0.857495 -0.008958
C72   C     C_3   0.167188 0.367840 0.798099 -0.353255
C73   C     C_3   0.694145 0.765837 0.615329 0.015572
C74   C     C_3   0.808376 0.910968 0.620766 -0.439840
C75   C     C_3   0.204843 0.955312 0.908043 -0.014550
C76   C     C_3   0.230348 0.095460 0.925925 -0.309955
C77   C     C_3   0.072301 0.306532 0.615853 0.007191
C78   C     C_R   0.474923 0.929178 0.356324 0.533833
C79   C     C_3   0.107867 0.197870 0.631109 -0.436159
C80   C     C_3   0.607623 0.747923 0.858840 0.009975
C81   C     C_3   0.718669 0.854602 0.809624 -0.338930
C82   C     C_3   0.243422 0.893525 0.636939 0.002105
C83   C     C_3   0.105076 0.841633 0.671374 -0.371503
C84   C     C_R   0.114443 0.574022 0.136877 0.532733
Cr1   Cr    Cr6+3 0.769930 0.543130 0.750000 0.960533
Cr2   Cr    Cr6+3 0.773200 0.230070 0.750000 0.962029
Cr3   Cr    Cr6+3 0.456870 0.226800 0.750000 0.932399
Cr4   Cr    Cr6+3 0.543130 0.769930 0.250000 0.996313
Cr5   Cr    Cr6+3 0.230070 0.773200 0.250000 0.978179
Cr6   Cr    Cr6+3 0.226800 0.456870 0.250000 0.996371
H1    H     H_    0.683771 0.986019 0.542841 0.178613
H2    H     H_    0.837431 0.526507 0.428480 0.128881
H3    H     H_    0.309433 0.296113 0.057927 0.207539
H4    H     H_    0.680589 0.166895 0.429180 0.125232
H5    H     H_    0.518217 0.214602 0.528415 0.122341
H6    H     H_    0.574930 0.349707 0.023692 0.118785
H7    H     H_    0.772489 0.306388 0.526483 0.117639
H8    H     H_    0.627652 0.234047 0.955403 0.096747
H9    H     H_    0.693811 0.465124 0.525267 0.119018
H10   H     H_    0.758799 0.361599 0.033669 0.079954
H11   H     H_    0.228259 0.659401 0.963897 0.116586
H12   H     H_    0.281666 0.361458 0.933849 0.200459
H13   H     H_    0.324122 0.545614 0.473266 0.140906
H14   H     H_    0.367819 0.770367 0.046856 0.098272
H15   H     H_    0.227367 0.679340 0.467980 0.131222
H16   H     H_    0.401937 0.650499 0.972191 0.079751
H17   H     H_    0.458114 0.772193 0.473766 0.140326
H18   H     H_    0.281528 0.127769 0.508320 0.109066
H19   H     H_    0.114530 0.996652 0.493036 0.116652
H20   H     H_    0.121951 0.061749 0.366839 0.119537
H21   H     H_    0.197956 0.217954 0.416575 0.193801
H22   H     H_    0.301014 0.168036 0.365748 0.162892
H23   H     H_    0.025119 0.708690 0.536732 0.169820
H24   H     H_    0.743847 0.479995 0.124513 0.093839
H25   H     H_    0.609683 0.487199 0.164445 0.140300
H26   H     H_    0.900463 0.725460 0.175895 0.174197
H27   H     H_    0.824343 0.580493 0.237705 0.101120
H28   H     H_    0.753850 0.690402 0.229287 0.171056
H29   H     H_    0.851571 0.145115 0.492997 0.109685
H30   H     H_    0.983324 0.110441 0.476644 0.123833
H31   H     H_    0.938341 0.084176 0.346002 0.122138
H32   H     H_    0.783727 0.976973 0.397149 0.198496
H33   H     H_    0.814959 0.135091 0.355784 0.156961
H34   H     H_    0.621996 0.893496 0.963175 0.198179
H35   H     H_    0.449375 0.278063 0.142010 0.136275
H36   H     H_    0.488985 0.155568 0.161045 0.092256
H37   H     H_    0.214295 0.990470 0.170657 0.192847
H38   H     H_    0.303798 0.107834 0.242360 0.098035
H39   H     H_    0.216933 0.148637 0.174148 0.141909
H40   H     H_    0.860418 0.714625 0.487353 0.109359
H41   H     H_    0.890652 0.878888 0.467400 0.123990
H42   H     H_    0.916176 0.860403 0.337516 0.118018
H43   H     H_    0.028176 0.820648 0.386570 0.200167
H44   H     H_    0.873322 0.687344 0.348747 0.158214
H45   H     H_    0.301938 0.312661 0.544012 0.178658
H46   H     H_    0.751822 0.214888 0.122781 0.090526
H47   H     H_    0.879849 0.348747 0.167183 0.143845
H48   H     H_    0.966846 0.204321 0.215907 0.156077
H49   H     H_    0.786372 0.125939 0.233397 0.111724
H50   H     H_    0.848431 0.064281 0.161586 0.175805
H51   H     H_    0.269785 0.528892 0.873119 0.103707
H52   H     H_    0.127783 0.521943 0.834252 0.156994
H53   H     H_    0.062288 0.298907 0.780375 0.162000
H54   H     H_    0.235196 0.432543 0.752993 0.121960
H55   H     H_    0.204044 0.301803 0.818235 0.171682
H56   H     H_    0.022875 0.702075 0.935913 0.200672
H57   H     H_    0.748646 0.713751 0.596420 0.152860
H58   H     H_    0.651875 0.735286 0.671137 0.172734
H59   H     H_    0.776123 0.973753 0.649268 0.183304
H60   H     H_    0.887909 0.910053 0.654149 0.078108
H61   H     H_    0.853694 0.955619 0.567353 0.115726
H62   H     H_    0.095129 0.897028 0.897115 0.134405
H63   H     H_    0.251828 0.949685 0.856654 0.142868
H64   H     H_    0.340032 0.166863 0.930893 0.197447
H65   H     H_    0.190081 0.130586 0.881798 0.097070
H66   H     H_    0.176566 0.091334 0.977272 0.194634
H67   H     H_    0.932235 0.648915 0.065591 0.213264
H68   H     H_    0.966206 0.248670 0.596917 0.152858
H69   H     H_    0.079806 0.353116 0.667987 0.174658
H70   H     H_    0.205039 0.240911 0.657044 0.197553
H71   H     H_    0.035497 0.126562 0.672588 0.080506
H72   H     H_    0.102688 0.140913 0.582027 0.112487
H73   H     H_    0.534593 0.780701 0.872304 0.089476
H74   H     H_    0.542744 0.656624 0.827246 0.153667
H75   H     H_    0.780192 0.813673 0.785909 0.137495
H76   H     H_    0.672476 0.883806 0.765569 0.121340
H77   H     H_    0.786261 0.946236 0.841080 0.182621
H78   H     H_    0.475019 0.306794 0.430359 0.128084
H79   H     H_    0.268457 0.994899 0.614539 0.154968
H80   H     H_    0.303580 0.893592 0.683765 0.172495
H81   H     H_    0.087020 0.764196 0.713661 0.191099
H82   H     H_    0.106353 0.925850 0.701877 0.056622
H83   H     H_    0.024753 0.811236 0.631045 0.152465
H84   H     H_    0.733292 0.084122 0.035842 0.200330
O1    O     O_R   0.913270 0.574260 0.668550 -0.543464
O2    O     O_R   0.574260 0.913270 0.331450 -0.539608
O3    O     O_R   0.086730 0.660990 0.168550 -0.543366
O4    O     O_R   0.339010 0.425740 0.331450 -0.530296
O5    O     O_R   0.640160 0.530400 0.673300 -0.549227
O6    O     O_R   0.890240 0.359840 0.826700 -0.479726
O7    O     O_R   0.469600 0.109760 0.673300 -0.550399
O8    O     O_R   0.640160 0.530400 0.826700 -0.488865
O9    O     O_R   0.890240 0.359840 0.673300 -0.553094
O10   O     O_R   0.469600 0.109760 0.826700 -0.541758
O11   O     O_R   0.530400 0.640160 0.173300 -0.486693
O12   O     O_R   0.660990 0.086730 0.831450 -0.515857
O13   O     O_R   0.359840 0.890240 0.326700 -0.476736
O14   O     O_R   0.109760 0.469600 0.173300 -0.499575
O15   O     O_R   0.530400 0.640160 0.326700 -0.471318
O16   O     O_R   0.359840 0.890240 0.173300 -0.513798
O17   O     O_R   0.109760 0.469600 0.326700 -0.465338
O18   O     O_3   0.666667 0.333333 0.750000 -0.287764
O19   O     O_3   0.333333 0.666667 0.250000 -0.318412
O20   O     O_3   0.257311 0.965006 0.445293 -0.550011
O21   O     O_3   0.716111 0.633444 0.079226 -0.540005
O22   O     O_3   0.019561 0.291383 0.435091 -0.537768
O23   O     O_R   0.425740 0.339010 0.668550 -0.543713
O24   O     O_3   0.376041 0.130617 0.064032 -0.592499
O25   O     O_3   0.711346 0.729519 0.430311 -0.542490
O26   O     O_3   0.944756 0.277751 0.076686 -0.539560
O27   O     O_3   0.085771 0.371597 0.917025 -0.549168
O28   O     O_3   0.585052 0.742804 0.569612 -0.570059
O29   O     O_3   0.233932 0.893164 0.966447 -0.576147
O30   O     O_3   0.160785 0.415540 0.568430 -0.570520
O31   O     O_3   0.669244 0.726646 0.920987 -0.540692
O32   O     O_3   0.259319 0.814969 0.582445 -0.569483
O33   O     O_R   0.913270 0.574260 0.831450 -0.550561
O34   O     O_R   0.660990 0.086730 0.668550 -0.547917
O35   O     O_R   0.425740 0.339010 0.831450 -0.563486
O36   O     O_R   0.574260 0.913270 0.168550 -0.531946
O37   O     O_R   0.086730 0.660990 0.331450 -0.540414
O38   O     O_R   0.339010 0.425740 0.168550 -0.552526

loop_
_geom_bond_atom_site_label_1
_geom_bond_atom_site_label_2
_ccdc_geom_bond_type
C27   C48   S    
C72   H53   S    
C66   C68   S    
Cr6   O4    S    
C28   C47   S    
C70   H50   S    
Cr1   O8    S    
C18   H5    S    
C64   O24   S    
C30   H17   S    
C58   H19   S    
C33   C45   S    
C73   C74   S    
C28   C41   S    
C60   H24   S    
C2    O15   A    
C62   O22   S    
C55   H3    S    
C82   H80   S    
C15   O30   S    
Cr5   O37   S    
C43   C78   S    
C6    C19   S    
C46   H12   S    
Cr1   O33   S    
C4    O37   A    
C73   H57   S    
C65   H37   S    
C68   H43   S    
C23   O7    A    
C45   O1    A    
C74   H61   S    
C29   C42   S    
C9    C22   S    
C5    C17   S    
C4    C41   S    
C35   C48   S    
Cr5   O16   S    
C72   H55   S    
C26   H13   S    
C27   H14   S    
C9    C39   S    
C59   H20   S    
C21   H8    S    
C13   O28   S    
C68   H42   S    
C11   O27   S    
C76   H64   S    
C12   C37   S    
C11   C37   S    
C9    C13   S    
C25   C50   S    
C80   H74   S    
C8    O24   S    
C2    C39   S    
C20   H7    S    
C83   H81   S    
C46   C55   S    
C69   O26   S    
C59   H21   S    
C81   H76   S    
C74   H59   S    
C34   O8    A    
Cr5   O3    S    
C14   C27   S    
C44   C57   S    
C62   H30   S    
C66   O25   S    
C77   H68   S    
C71   H51   S    
C50   H56   S    
C24   C51   S    
C7    C15   S    
C80   O31   S    
C49   H45   S    
C82   H79   S    
C76   H66   S    
C70   H49   S    
Cr4   O36   S    
C83   H82   S    
C78   O2    A    
C17   C30   S    
Cr3   O35   S    
C4    O17   A    
C30   C44   S    
Cr5   O13   S    
C79   H71   S    
C79   H70   S    
C13   C26   S    
C19   C32   S    
C6    O21   S    
C63   H31   S    
C53   H84   S    
C50   C51   S    
C36   C49   S    
Cr6   O17   S    
C77   C79   S    
C48   H34   S    
C69   H47   S    
Cr4   O15   S    
C35   C56   S    
C31   C44   S    
C73   H58   S    
C61   H27   S    
C12   O33   A    
C13   C36   S    
C24   C37   S    
C16   O31   S    
C26   C49   S    
Cr2   O34   S    
Cr3   O10   S    
C75   O29   S    
C38   C51   S    
C56   O10   A    
C10   C24   S    
C16   C29   S    
C51   H67   S    
C18   C31   S    
C10   O26   S    
C60   C61   S    
Cr1   O18   S    
C23   C31   S    
C75   C76   S    
C65   H38   S    
C80   H73   S    
C54   H2    S    
C62   C63   S    
C34   O35   A    
C81   H75   S    
C42   C55   S    
C75   H63   S    
C18   C57   S    
C65   H39   S    
C75   H62   S    
Cr1   O5    S    
C49   C52   S    
Cr5   O19   S    
C14   O29   S    
C5    O20   S    
C61   H26   S    
Cr2   O6    S    
C59   H22   S    
C81   H77   S    
C67   O38   A    
C72   H54   S    
Cr6   O38   S    
C62   H29   S    
C8    C40   S    
C44   H1    S    
C77   H69   S    
C47   C54   S    
C21   C35   S    
C20   C33   S    
C20   C54   S    
Cr4   O11   S    
C12   O6    A    
C28   H15   S    
C56   O12   A    
C3    C40   S    
C7    C20   S    
C69   H46   S    
C64   H36   S    
C57   H4    S    
C71   H52   S    
Cr2   O9    S    
C17   C31   S    
C30   C43   S    
C84   O14   A    
Cr3   O23   S    
C79   H72   S    
C23   O34   A    
C77   O30   S    
C25   C38   S    
C82   O32   S    
C63   H32   S    
C14   C35   S    
C45   O9    A    
C22   C52   S    
C66   H41   S    
C19   C55   S    
C47   H23   S    
C29   H16   S    
C17   O32   S    
C8    C14   S    
C22   H9    S    
C27   C40   S    
C38   C84   S    
C61   H28   S    
C24   H10   S    
C32   C46   S    
Cr4   O19   S    
C1    O23   A    
C80   C81   S    
C8    C21   S    
Cr3   O7    S    
C63   H33   S    
C40   C53   S    
Cr2   O12   S    
C5    C18   S    
C48   C53   S    
C16   C32   S    
C22   C36   S    
C73   O28   S    
C76   H65   S    
Cr2   O18   S    
Cr4   O2    S    
C29   C46   S    
C10   C38   S    
C3    O16   A    
C83   H83   S    
C58   C59   S    
C71   C72   S    
C64   C65   S    
C21   C53   S    
C37   C50   S    
C1    O5    A    
C70   H48   S    
C25   H11   S    
C15   C28   S    
C42   C67   S    
Cr6   O19   S    
Cr6   O14   S    
C3    O36   A    
C33   C47   S    
C68   H44   S    
Cr1   O1    S    
C58   O20   S    
C39   C52   S    
C58   H18   S    
C7    C41   S    
C5    C43   S    
C69   C70   S    
C26   C39   S    
C41   C54   S    
C10   C11   S    
C43   C57   S    
C6    C16   S    
C84   O3    A    
C11   C25   S    
C9    O25   S    
C1    C36   S    
C64   H35   S    
C6    C42   S    
C71   O27   S    
C74   H60   S    
C60   H25   S    
C78   O13   A    
C2    O4    A    
C82   C83   S    
C7    O22   S    
C15   C33   S    
C52   H78   S    
C19   H6    S    
C67   O11   A    
C60   O21   S    
C32   C34   S    
Cr3   O18   S    
C66   H40   S    
