data_mof_unit_68479.cif
_audit_creation_date              2012-12-11T18:55:34-0500
_audit_creation_method            fapswitch 2.2
_symmetry_space_group_name_H-M    P1
_symmetry_Int_Tables_number       1
_space_group_crystal_system       triclinic
_cell_length_a                    8.84318
_cell_length_b                    15.029129
_cell_length_c                    16.544095
_cell_angle_alpha                 111.452785
_cell_angle_beta                  98.037759
_cell_angle_gamma                 81.129589
_cell_volume                      2013.64834999

loop_
_atom_site_label
_atom_site_type_symbol
_atom_type_description
_atom_site_fract_x
_atom_site_fract_y
_atom_site_fract_z
_atom_type_partial_charge
Ba1   Ba    Ba6+2 0.364200 0.465260 0.540910 1.584545
Ba2   Ba    Ba6+2 0.825640 0.534660 0.459080 1.597631
C1    C     C_3   0.318107 0.175774 0.775439 0.129463
C2    C     C_R   0.889273 0.526011 0.751569 -0.089306
C3    C     C_2   0.461310 0.380394 0.129813 -0.065021
C4    C     C_3   0.720758 0.280962 0.772073 0.359128
C5    C     C_2   0.449272 0.419094 0.217304 0.079084
C6    C     C_2   0.186881 0.500684 0.192362 0.054368
C7    C     C_3   0.222497 0.483623 0.100402 -0.091790
C8    C     C_3   0.324946 0.389157 0.065043 0.037448
C9    C     C_2   0.089103 0.498164 0.035963 -0.090015
C10   C     C_2   0.114086 0.515120 0.964484 -0.086223
C11   C     C_R   0.847018 0.583041 0.927654 0.008098
C12   C     C_3   0.249903 0.256350 0.737310 0.406611
C13   C     C_R   0.989012 0.533950 0.899701 -0.073644
C14   C     C_R   0.726893 0.605856 0.870565 -0.064391
C15   C     C_R   0.746114 0.579657 0.780957 0.006542
C16   C     C_3   0.781314 0.230888 0.842744 0.193122
C17   C     C_R   0.011811 0.506500 0.810644 0.051777
C18   C     C_R   0.858458 0.185579 0.546082 0.002234
C19   C     C_R   0.069968 0.203732 0.474661 0.074516
C20   C     C_R   0.274324 0.778962 0.511429 -0.189383
C21   C     C_R   0.339381 0.821722 0.463967 0.039467
C22   C     C_R   0.276776 0.913568 0.464843 -0.171268
C23   C     C_3   0.132630 0.778938 0.756253 0.323658
C24   C     C_R   0.138471 0.959476 0.503484 0.005428
C25   C     C_R   0.060035 0.906639 0.538069 -0.009369
C26   C     C_R   0.070722 0.054041 0.504952 0.013494
C27   C     C_R   0.925155 0.091168 0.539093 -0.023231
C28   C     C_3   0.683575 0.216749 0.325487 0.295765
C29   C     C_R   0.849264 0.033955 0.567096 -0.114809
C30   C     C_R   0.916974 0.945911 0.569266 -0.065163
C31   C     C_R   0.138054 0.110983 0.470169 -0.160525
C32   C     C_R   0.930808 0.239858 0.512646 -0.255424
C33   C     C_R   0.126275 0.815604 0.541124 0.025487
C34   C     C_3   0.107517 0.855244 0.848110 0.132058
C35   C     C_3   0.676400 0.107084 0.280599 -0.097615
C36   C     C_3   0.670385 0.798922 0.754184 0.339730
C37   C     C_3   0.674097 0.850677 0.855584 0.103170
C38   C     C_3   0.161540 0.241546 0.247811 0.441428
C39   C     C_3   0.101284 0.179606 0.152375 0.137902
C40   C     C_3   0.322741 0.235948 0.653119 -0.201706
C41   C     C_3   0.816788 0.058414 0.231478 -0.362635
C42   C     C_3   0.646453 0.059414 0.343016 -0.431149
C43   C     C_3   0.650492 0.872738 0.708206 -0.282511
C44   C     C_3   0.332536 0.223909 0.255258 -0.286847
C45   C     C_3   0.463433 0.716546 0.231281 0.493109
C46   C     C_3   0.079182 0.256387 0.719986 -0.352601
C47   C     C_3   0.124675 0.680935 0.760807 -0.288199
C48   C     C_3   0.884674 0.136299 0.803319 -0.354141
C49   C     C_3   0.299667 0.712352 0.241654 -0.311470
C50   C     C_3   0.630005 0.727160 0.121880 -0.300042
C51   C     C_3   0.621734 0.377238 0.810473 -0.325259
C52   C     C_3   0.599613 0.315537 0.092222 -0.357692
C53   C     C_3   0.579262 0.653841 0.909232 -0.355736
C54   C     C_3   0.374757 0.706274 0.543654 -0.257481
C55   C     C_3   0.870544 0.298875 0.923165 -0.400220
C56   C     C_3   0.469768 0.753282 0.152375 0.254370
C57   C     C_3   0.957924 0.749321 0.282853 0.375284
C58   C     C_3   0.929342 0.836693 0.249692 0.097989
C59   C     C_2   0.301400 0.479691 0.248326 -0.074556
H1    H     H_    0.580963 0.092771 0.228313 0.128788
H2    H     H_    0.972775 0.493557 0.046503 0.114655
H3    H     H_    0.561113 0.255070 0.883851 0.202096
H4    H     H_    0.232235 0.513804 0.952982 0.116435
H5    H     H_    0.875873 0.309469 0.513723 0.060112
H6    H     H_    0.735765 0.056275 0.589028 0.124075
H7    H     H_    0.244553 0.086055 0.440150 0.080168
H8    H     H_    0.815159 0.305036 0.753967 -0.020143
H9    H     H_    0.337535 0.946648 0.433232 0.084495
H10   H     H_    0.853832 0.909437 0.596256 0.113060
H11   H     H_    0.802453 0.232789 0.352062 0.021011
H12   H     H_    0.607510 0.247223 0.379445 0.056315
H13   H     H_    0.780702 0.753502 0.737579 0.026934
H14   H     H_    0.376502 0.160922 0.624468 0.082506
H15   H     H_    0.240092 0.249967 0.603508 0.079731
H16   H     H_    0.405027 0.287923 0.665759 0.189412
H17   H     H_    0.923436 0.071739 0.275951 0.162971
H18   H     H_    0.819008 0.084810 0.177853 0.126470
H19   H     H_    0.806726 0.981096 0.197970 0.158027
H20   H     H_    0.740640 0.067196 0.395194 0.136362
H21   H     H_    0.536153 0.092375 0.371496 0.158109
H22   H     H_    0.634966 0.982076 0.307887 0.154376
H23   H     H_    0.751225 0.914025 0.725234 0.115760
H24   H     H_    0.737231 0.798840 0.885514 0.056117
H25   H     H_    0.638285 0.836311 0.636797 0.134993
H26   H     H_    0.545387 0.923654 0.726167 0.054478
H27   H     H_    0.458313 0.922722 0.854598 0.173849
H28   H     H_    0.467029 0.815149 0.864903 0.217267
H29   H     H_    0.778413 0.956576 0.955136 0.189198
H30   H     H_    0.683941 0.994395 0.876644 0.180877
H31   H     H_    0.363768 0.154965 0.266288 0.081080
H32   H     H_    0.379977 0.221813 0.195828 0.053000
H33   H     H_    0.376055 0.282170 0.312467 0.114886
H34   H     H_    0.083691 0.354836 0.204937 0.148068
H35   H     H_    0.440275 0.161211 0.764233 0.097522
H36   H     H_    0.019132 0.366366 0.298814 0.256654
H37   H     H_    0.111249 0.059100 0.187731 0.205826
H38   H     H_    0.246610 0.053110 0.123815 0.151335
H39   H     H_    0.891839 0.152403 0.080152 0.189436
H40   H     H_    0.879222 0.221398 0.187180 0.228503
H41   H     H_    0.041095 0.284766 0.785143 0.091144
H42   H     H_    0.025444 0.304226 0.684098 0.054500
H43   H     H_    0.045387 0.184272 0.684365 0.100517
H44   H     H_    0.277101 0.057611 0.665320 0.163041
H45   H     H_    0.311705 0.033757 0.756714 0.161552
H46   H     H_    0.162157 0.195435 0.105373 0.064683
H47   H     H_    0.011985 0.679814 0.781682 -0.000912
H48   H     H_    0.141796 0.622873 0.697548 0.161227
H49   H     H_    0.213814 0.668383 0.809970 0.127018
H50   H     H_    0.192846 0.788922 0.936980 0.165423
H51   H     H_    0.219212 0.904066 0.972103 0.198044
H52   H     H_    0.076754 0.001958 0.907305 0.179281
H53   H     H_    0.208602 0.962488 0.834605 0.171972
H54   H     H_    0.360718 0.155346 0.893498 0.164402
H55   H     H_    0.188750 0.215964 0.881242 0.190315
H56   H     H_    0.998016 0.146751 0.792713 0.129719
H57   H     H_    0.244660 0.784007 0.736471 0.039072
H58   H     H_    0.903496 0.096710 0.849232 0.142525
H59   H     H_    0.828747 0.089250 0.741690 0.127447
H60   H     H_    0.512507 0.573504 0.151831 0.130205
H61   H     H_    0.660601 0.619517 0.222077 0.217832
H62   H     H_    0.295971 0.676172 0.288642 0.055171
H63   H     H_    0.247166 0.786619 0.266163 0.058905
H64   H     H_    0.235309 0.671488 0.180694 0.070985
H65   H     H_    0.660342 0.777420 0.093243 0.120187
H66   H     H_    0.650429 0.651136 0.078285 0.102606
H67   H     H_    0.705722 0.734020 0.179149 0.146394
H68   H     H_    0.995690 0.846854 0.864727 0.120727
H69   H     H_    0.251554 0.742514 0.083957 0.167595
H70   H     H_    0.367413 0.636804 0.060191 0.154779
H71   H     H_    0.431146 0.882173 0.129670 0.183870
H72   H     H_    0.331367 0.881257 0.207953 0.160934
H73   H     H_    0.790705 0.830769 0.365337 0.188291
H74   H     H_    0.791668 0.710621 0.335125 0.257613
H75   H     H_    0.003098 0.743394 0.128034 0.207704
H76   H     H_    0.082468 0.848816 0.170172 0.177954
H77   H     H_    0.106776 0.913300 0.324965 0.173112
H78   H     H_    0.936805 0.939698 0.370478 0.175187
H79   H     H_    0.072464 0.744604 0.315401 0.029473
H80   H     H_    0.695990 0.429896 0.856142 0.046951
H81   H     H_    0.568719 0.406336 0.759606 0.169153
H82   H     H_    0.532931 0.375475 0.849394 0.148107
H83   H     H_    0.595287 0.241748 0.091262 0.125901
H84   H     H_    0.601821 0.313714 0.025662 0.127548
H85   H     H_    0.707091 0.344052 0.127553 0.182707
H86   H     H_    0.539535 0.608934 0.940545 0.146152
H87   H     H_    0.597022 0.726125 0.956235 0.113723
H88   H     H_    0.484656 0.664854 0.862814 0.157406
H89   H     H_    0.278723 0.461770 0.362276 0.214866
H90   H     H_    0.804762 0.857093 0.242322 0.115647
H91   H     H_    0.367230 0.557871 0.369380 0.188234
H92   H     H_    0.836306 0.448316 0.624720 0.196903
H93   H     H_    0.914642 0.552973 0.642706 0.199091
H94   H     H_    0.497969 0.715645 0.550739 0.131592
H95   H     H_    0.346074 0.714894 0.608655 0.111209
H96   H     H_    0.359174 0.632567 0.501161 0.131987
H97   H     H_    0.790668 0.358491 0.962507 0.121980
H98   H     H_    0.928726 0.259574 0.966351 0.142606
H99   H     H_    0.957366 0.332848 0.906528 0.091767
H100  H     H_    0.630750 0.135455 0.843694 0.171243
N1    N     N_3   0.520575 0.877405 0.885436 -0.487235
N2    N     N_3   0.542590 0.618867 0.215188 -0.480840
N3    N     N_3   0.364095 0.710745 0.075035 -0.519896
N4    N     N_3   0.437990 0.858979 0.182674 -0.483198
N5    N     N_3   0.860815 0.765594 0.352403 -0.468075
N6    N     N_3   0.983117 0.816644 0.163912 -0.507698
N7    N     N_3   0.988288 0.922888 0.313258 -0.530388
N8    N     N_3   0.278274 0.517180 0.338671 -0.478173
N9    N     N_3   0.917209 0.493924 0.661941 -0.472652
N10   N     N_3   0.657772 0.205537 0.877804 -0.508700
N11   N     N_3   0.755266 0.936853 0.887467 -0.516186
N12   N     N_3   0.114699 0.343470 0.263835 -0.518036
N13   N     N_3   0.130730 0.075422 0.134287 -0.512782
N14   N     N_3   0.938387 0.207543 0.132961 -0.512754
N15   N     N_3   0.252916 0.084135 0.730389 -0.528469
N16   N     N_3   0.223056 0.841546 0.916701 -0.540948
N17   N     N_3   0.100927 0.952093 0.845890 -0.473500
N18   N     N_3   0.303510 0.208154 0.869494 -0.476637
O1    O     O_2   0.428380 0.595290 0.716080 -0.472324
O2    O     O_2   0.646679 0.817668 0.470507 -0.492541
O3    O     O_3   0.530497 0.784141 0.309545 -0.613668
O4    O     O_3   0.649320 0.571640 0.606850 -0.489248
O5    O     O_3   0.067570 0.379360 0.450830 -0.478595
O6    O     O_2   0.850910 0.734710 0.551660 -0.441200
O7    O     O_3   0.009354 0.798071 0.699271 -0.646332
O8    O     O_2   0.872183 0.490020 0.186394 -0.505635
O9    O     O_3   0.931540 0.663326 0.210956 -0.644345
O10   O     O_3   0.202060 0.415890 0.655600 -0.469582
O11   O     O_2   0.325839 0.517563 0.810139 -0.510461
O12   O     O_3   0.106769 0.212053 0.309134 -0.656572
O13   O     O_3   0.545176 0.743541 0.721692 -0.658242
O14   O     O_3   0.282681 0.347317 0.799912 -0.606623
O15   O     O_2   0.338780 0.265250 0.448290 -0.484091
O16   O     O_3   0.612600 0.359160 0.609560 -0.496135
O17   O     O_2   0.551056 0.183564 0.531216 -0.497319
O18   O     O_3   0.649043 0.217151 0.694591 -0.635211
O19   O     O_2   0.761310 0.404670 0.283870 -0.464507
O20   O     O_3   0.540390 0.428280 0.393140 -0.518396
O21   O     O_3   0.987650 0.584030 0.344390 -0.432240
O22   O     O_3   0.636004 0.255036 0.259842 -0.661575
O23   O     O_3   0.122140 0.620560 0.549160 -0.491980
O24   O     O_3   0.577110 0.640760 0.390430 -0.474975
P1    P     P_3+3 0.592580 0.619730 0.703530 0.935965
P2    P     P_3+3 0.156500 0.273340 0.422460 0.963622
P3    P     P_3+3 0.675034 0.239036 0.597975 0.870647
P4    P     P_3+3 0.597130 0.380190 0.296460 0.952116
P5    P     P_3+3 0.517589 0.763443 0.407698 0.911366
P6    P     P_3+3 0.203124 0.447286 0.768858 0.919112
P7    P     P_3+3 0.030007 0.742537 0.586647 0.927839
P8    P     P_3+3 0.996737 0.558361 0.233626 0.933724

loop_
_geom_bond_atom_site_label_1
_geom_bond_atom_site_label_2
_ccdc_geom_bond_type
C4    H8    S    
C52   H83   S    
C39   N13   S    
C21   P5    S    
C48   H56   S    
C49   H62   S    
Ba2   O23   S    
C18   P3    S    
C54   H95   S    
C42   H22   S    
C56   N3    S    
C23   H57   S    
C32   H5    S    
C55   H97   S    
C35   H1    S    
C50   H67   S    
C22   H9    S    
C16   N10   S    
C41   H17   S    
C29   H6    S    
C20   C33   A    
C38   O12   S    
C40   H16   S    
C40   H14   S    
C58   N7    S    
C2    N9    S    
H30   N11   S    
C48   H59   S    
O4    P1    S    
C57   H79   S    
C26   C27   A    
C43   H26   S    
C33   P7    S    
C22   C24   A    
Ba1   Ba2   S    
C42   H21   S    
C45   O3    S    
C36   C37   S    
H37   N13   S    
Ba1   O1    S    
H89   N8    S    
C19   C31   A    
C41   H18   S    
H60   N2    S    
H93   N9    S    
H77   N7    S    
C51   H81   S    
O12   P2    S    
C19   P2    S    
O15   P2    D    
C56   N4    S    
C1    N18   S    
C5    C59   S    
C36   C43   S    
C2    C17   A    
O14   P6    S    
Ba1   O5    S    
C6    C7    S    
H53   N17   S    
H44   N15   S    
H92   N9    S    
C21   C22   A    
H73   N5    S    
C1    H35   S    
C47   H47   S    
C6    P8    S    
Ba1   P2    S    
C7    C8    S    
O3    P5    S    
C6    C59   D    
C52   H85   S    
C18   C32   A    
H52   N17   S    
C39   N14   S    
C57   C58   S    
C17   P6    S    
O17   P3    D    
C49   H63   S    
C46   H43   S    
O18   P3    S    
Ba1   O20   S    
O23   P7    S    
C54   H94   S    
Ba1   O23   S    
C24   C26   A    
C50   H66   S    
C53   H88   S    
C30   H10   S    
C18   C27   A    
O22   P4    S    
C4    C16   S    
O21   P8    S    
H36   N12   S    
Ba2   O24   S    
Ba2   O20   S    
C58   N6    S    
C3    C52   S    
O2    P5    D    
C34   N17   S    
H71   N4    S    
C5    P4    S    
C42   H20   S    
C3    C5    D    
C28   H12   S    
C50   H65   S    
C14   C15   A    
C45   C49   S    
C19   C32   A    
C25   C33   A    
C41   H19   S    
C46   H42   S    
O5    P2    S    
C48   H58   S    
C28   C35   S    
C51   H82   S    
C58   H90   S    
C49   H64   S    
C35   C41   S    
C15   P1    S    
C13   C17   A    
C54   H96   S    
H72   N4    S    
H61   N2    S    
C16   C55   S    
C53   H86   S    
C29   C30   A    
C44   H33   S    
C10   C13   S    
C46   H41   S    
H39   N14   S    
O20   P4    S    
C24   C25   A    
C57   O9    S    
O6    P7    D    
Ba2   O5    S    
C12   C40   S    
C37   N1    S    
C7    C9    S    
C57   N5    S    
C50   C56   S    
Ba1   O4    S    
C52   H84   S    
C2    C15   A    
C38   C39   S    
C55   H99   S    
O8    P8    D    
C26   C31   A    
C36   O13   S    
O7    P7    S    
Ba2   O21   S    
H40   N14   S    
C43   H23   S    
C59   N8    S    
H38   N13   S    
C38   C44   S    
C4    C51   S    
H28   N1    S    
H76   N6    S    
C16   C48   S    
C47   H48   S    
C36   H13   S    
H69   N3    S    
C28   O22   S    
H45   N15   S    
O13   P1    S    
Ba1   O16   S    
O19   P4    D    
Ba2   O19   S    
C40   H15   S    
O11   P6    D    
C34   N16   S    
O1    P1    D    
O16   P3    S    
C4    O18   S    
C28   H11   S    
C9    C10   D    
C11   C14   A    
H75   N6    S    
C1    C12   S    
C10   H4    S    
C9    H2    S    
C20   C54   S    
H3    N10   S    
C11   C13   A    
Ba1   O15   S    
H34   N12   S    
Ba2   O6    S    
C45   N2    S    
C3    C8    S    
C27   C29   A    
O10   P6    S    
C34   H68   S    
C45   C56   S    
H91   N8    S    
C53   H87   S    
C38   N12   S    
C44   H32   S    
H70   N3    S    
C35   C42   S    
C12   C46   S    
H27   N1    S    
O9    P8    S    
H74   N5    S    
C43   H25   S    
O24   P5    S    
C51   H80   S    
Ba2   O4    S    
C55   H98   S    
H78   N7    S    
C23   C47   S    
C14   C53   S    
C23   O7    S    
C25   C30   A    
C23   C34   S    
H100  N10   S    
C39   H46   S    
C1    N15   S    
C44   H31   S    
C37   N11   S    
H55   N18   S    
H29   N11   S    
H50   N16   S    
C37   H24   S    
C20   C21   A    
H51   N16   S    
Ba2   P4    S    
Ba1   P1    S    
C12   O14   S    
H54   N18   S    
C31   H7    S    
C47   H49   S    
Ba1   O10   S    
