data_mof_unit_19304.cif
_audit_creation_date              2012-12-11T16:32:33-0500
_audit_creation_method            fapswitch 2.2
_symmetry_space_group_name_H-M    P1
_symmetry_Int_Tables_number       1
_space_group_crystal_system       triclinic
_cell_length_a                    6.945863
_cell_length_b                    14.434805
_cell_length_c                    15.865799
_cell_angle_alpha                 90.008793
_cell_angle_beta                  89.816201
_cell_angle_gamma                 90.105292
_cell_volume                      1590.72867465

loop_
_atom_site_label
_atom_site_type_symbol
_atom_type_description
_atom_site_fract_x
_atom_site_fract_y
_atom_site_fract_z
_atom_type_partial_charge
O1    O     O_R   0.361630 0.167340 0.164570 -0.534884
O2    O     O_R   0.638370 0.832660 0.835430 -0.534884
O3    O     O_R   0.690860 0.157560 0.338690 -0.540374
O4    O     O_R   0.309140 0.842440 0.661310 -0.540374
O5    O     O_R   0.861260 0.336420 0.339380 -0.538471
O6    O     O_R   0.138740 0.663580 0.660620 -0.538471
C1    C     C_R   0.521524 0.134576 0.367883 0.663564
C2    C     C_R   0.478475 0.865424 0.632116 0.663564
O7    O     O_R   0.691330 0.156310 0.165190 -0.539917
O8    O     O_R   0.308670 0.843690 0.834810 -0.539917
O9    O     O_R   0.861730 0.335160 0.164640 -0.536129
O10   O     O_R   0.138270 0.664840 0.835360 -0.536129
C3    C     C_R   0.522668 0.134616 0.136051 0.697699
C4    C     C_R   0.477332 0.865383 0.863949 0.697698
O11   O     O_R   0.361150 0.168600 0.339320 -0.537042
O12   O     O_R   0.638850 0.831400 0.660680 -0.537042
O13   O     O_3   0.527950 0.310560 0.252000 -0.366914
O14   O     O_3   0.472050 0.689440 0.748000 -0.366914
V1    V     V_3+5 0.802770 0.240990 0.251980 1.407229
V2    V     V_3+5 0.197230 0.759010 0.748020 1.407230
O15   O     O_R   0.191450 0.346190 0.165260 -0.535932
O16   O     O_R   0.808550 0.653810 0.834740 -0.535932
C5    C     C_R   0.022897 0.367947 0.136650 0.701901
C6    C     C_R   0.977103 0.632053 0.863349 0.701901
O17   O     O_R   0.190980 0.347440 0.338770 -0.544630
O18   O     O_R   0.809020 0.652560 0.661230 -0.544630
C7    C     C_R   0.022131 0.369560 0.367633 0.665604
C8    C     C_R   0.977869 0.630439 0.632367 0.665604
V3    V     V_3+5 0.302780 0.262760 0.251980 1.413311
V4    V     V_3+5 0.697220 0.737240 0.748020 1.413311
O19   O     O_3   0.027730 0.193200 0.251960 -0.367069
O20   O     O_3   0.972270 0.806800 0.748040 -0.367069
C9    C     C_3   0.920950 0.419530 0.524738 -0.143930
C10   C     C_3   0.079050 0.580470 0.475262 -0.143930
C11   C     C_3   0.094762 0.467646 0.567484 -0.145008
C12   C     C_3   0.905238 0.532354 0.432516 -0.145008
H1    H     H_    0.172454 0.441488 0.623674 0.088579
H2    H     H_    0.827546 0.558512 0.376326 0.088579
H3    H     H_    0.855869 0.352704 0.544701 0.089409
H4    H     H_    0.144131 0.647296 0.455299 0.089409
C13   C     C_3   0.988292 0.560830 0.562119 0.000817
C14   C     C_3   0.011708 0.439170 0.437881 0.000817
C15   C     C_3   0.814252 0.513542 0.520182 -0.115450
C16   C     C_3   0.185747 0.486458 0.479818 -0.115450
H5    H     H_    0.661030 0.524987 0.537283 0.103554
H6    H     H_    0.338970 0.475013 0.462716 0.103554
H7    H     H_    0.858509 0.318369 0.756591 0.085204
H8    H     H_    0.141491 0.681631 0.243408 0.085204
C17   C     C_R   0.062337 0.690736 0.032845 -0.107493
C18   C     C_R   0.937663 0.309263 0.967155 -0.107493
C19   C     C_R   0.102697 0.720988 0.114275 -0.068511
C20   C     C_R   0.897303 0.279012 0.885725 -0.068511
C21   C     C_R   0.113822 0.657616 0.179958 -0.106304
C22   C     C_R   0.886179 0.342384 0.820041 -0.106304
C23   C     C_R   0.085879 0.563497 0.164701 -0.122710
C24   C     C_R   0.914121 0.436503 0.835299 -0.122710
C25   C     C_R   0.044904 0.530750 0.082594 0.091182
C26   C     C_R   0.955096 0.469250 0.917406 0.091182
C27   C     C_R   0.032256 0.595556 0.015473 0.088192
C28   C     C_R   0.967743 0.404444 0.984527 0.088192
C29   C     C_R   0.012944 0.435366 0.066910 -0.187822
C30   C     C_R   0.987056 0.564634 0.933090 -0.187822
H9    H     H_    0.052840 0.742918 0.984096 0.096529
H10   H     H_    0.947160 0.257082 0.015904 0.096529
H11   H     H_    0.123825 0.794077 0.126574 0.107888
H12   H     H_    0.876175 0.205923 0.873425 0.107888
H13   H     H_    0.094290 0.517106 0.218114 0.084142
H14   H     H_    0.905710 0.482894 0.781886 0.084142
C31   C     C_3   0.321542 0.025700 0.478066 -0.108964
C32   C     C_3   0.678457 0.974300 0.521934 -0.108964
C33   C     C_3   0.401514 0.925574 0.473219 -0.140188
C34   C     C_3   0.598486 0.074426 0.526781 -0.140188
H15   H     H_    0.319926 0.864108 0.450949 0.091536
H16   H     H_    0.680075 0.135892 0.549051 0.091536
H17   H     H_    0.173463 0.046682 0.460204 0.107587
H18   H     H_    0.826537 0.953318 0.539796 0.107587
C35   C     C_3   0.490088 0.937264 0.561642 -0.010324
C36   C     C_3   0.509912 0.062735 0.438358 -0.010325
C37   C     C_3   0.410175 0.036733 0.567122 -0.143029
C38   C     C_3   0.589825 0.963267 0.432878 -0.143029
H19   H     H_    0.335292 0.067180 0.622419 0.094819
H20   H     H_    0.664708 0.932820 0.377581 0.094819
H21   H     H_    0.643406 0.826318 0.246577 0.108896
H22   H     H_    0.356593 0.173682 0.753423 0.108896
C39   C     C_R   0.442735 0.190422 0.964353 -0.218653
C40   C     C_R   0.557265 0.809578 0.035646 -0.218653
C41   C     C_R   0.404667 0.221341 0.882492 0.535221
C42   C     C_R   0.595332 0.778659 0.117508 0.535221
C43   C     C_R   0.389550 0.154744 0.817659 -0.251405
C44   C     C_R   0.610449 0.845256 0.182341 -0.251405
C45   C     C_R   0.416817 0.061012 0.834636 -0.214810
C46   C     C_R   0.583183 0.938988 0.165364 -0.214810
C47   C     C_R   0.457457 0.029548 0.916923 0.077918
C48   C     C_R   0.542543 0.970452 0.083076 0.077918
C49   C     C_R   0.470135 0.095465 0.983193 -0.017900
C50   C     C_R   0.529865 0.904535 0.016806 -0.017900
C51   C     C_R   0.487451 0.934096 0.933566 -0.140457
C52   C     C_R   0.512549 0.065904 0.066434 -0.140457
H23   H     H_    0.452851 0.242600 0.013160 0.133245
H24   H     H_    0.547149 0.757400 0.986840 0.133244
H25   H     H_    0.405892 0.013487 0.782122 0.120318
H26   H     H_    0.594108 0.986513 0.217878 0.120318
O21   O     O_3   0.379260 0.316680 0.872116 -0.545935
C53   C     C_3   0.382568 0.346120 0.787304 -0.234510
H27   H     H_    0.250615 0.323557 0.753776 0.125793
H28   H     H_    0.513312 0.321544 0.753728 0.117652
H29   H     H_    0.385218 0.422961 0.786183 0.166980
O22   O     O_3   0.620740 0.683320 0.127884 -0.545935
C54   C     C_3   0.617433 0.653880 0.212695 -0.234509
H30   H     H_    0.486688 0.678456 0.246272 0.117651
H31   H     H_    0.749386 0.676443 0.246224 0.125792
H32   H     H_    0.614783 0.577039 0.213817 0.166980

loop_
_geom_bond_atom_site_label_1
_geom_bond_atom_site_label_2
_ccdc_geom_bond_type
C26   C30   A    
C17   H9    S    
O13   V3    S    
C12   C14   S    
O4    C2    A    
V1    O19   S    
C53   H28   S    
C49   C52   A    
O9    V1    S    
C9    H3    S    
C10   H4    S    
C9    C14   S    
C11   H1    S    
C34   C37   S    
O3    C1    A    
C54   H31   S    
C42   O22   S    
C40   C42   A    
C25   C27   A    
C48   C52   A    
O12   V4    S    
C8    C13   S    
C18   H10   S    
O22   C54   S    
C19   H11   S    
C3    C52   S    
C31   C33   S    
O7    C3    A    
C53   H27   S    
C34   C36   S    
C9    C11   S    
O5    C7    A    
O7    V1    S    
O6    C8    A    
C16   H6    S    
C17   C19   A    
C18   C20   A    
O3    V1    S    
O14   V4    S    
C43   C45   A    
C40   H24   S    
O14   V2    S    
C46   H26   S    
C35   C37   S    
C2    O12   A    
C32   C35   S    
C13   C15   S    
C31   C36   S    
C10   C13   S    
C14   C16   S    
C45   H25   S    
C11   C13   S    
O1    V3    S    
C33   C38   S    
C20   C22   A    
O11   V3    S    
C21   C23   A    
O15   C5    A    
O17   V3    S    
H8    C21   S    
C22   C24   A    
C39   C41   A    
C32   C38   S    
C9    C15   S    
C10   C16   S    
C38   H20   S    
O8    C4    A    
C54   H32   S    
O8    V2    S    
C37   H19   S    
C1    O11   A    
C24   H14   S    
O15   V3    S    
C28   C29   A    
C19   C21   A    
C39   H23   S    
C45   C47   A    
C44   C46   A    
C50   C51   A    
O10   V2    S    
C46   C48   A    
C48   C50   A    
C11   C16   S    
C15   H5    S    
C40   C50   A    
H7    C22   S    
C41   O21   S    
C34   H16   S    
C42   C44   A    
O18   V4    S    
C1    C36   S    
C32   H18   S    
C2    C35   S    
O16   C6    A    
C31   C37   S    
O1    C3    A    
H22   C43   S    
C12   H2    S    
C47   C51   A    
C33   C35   S    
C20   H12   S    
C4    C51   S    
C33   H15   S    
V2    O20   S    
H21   C44   S    
C27   C30   A    
C6    C30   S    
O16   V4    S    
C23   H13   S    
C25   C29   A    
O5    V1    S    
O17   C7    A    
O6    V2    S    
O10   C6    A    
O18   C8    A    
C17   C27   A    
O2    V4    S    
C18   C28   A    
C23   C25   A    
V3    O19   S    
C54   H30   S    
V4    O20   S    
C39   C49   A    
C7    C14   S    
O9    C5    A    
O13   V1    S    
C10   C12   S    
C24   C26   A    
C31   H17   S    
C36   C38   S    
O2    C4    A    
O4    V2    S    
C5    C29   S    
C47   C49   A    
O21   C53   S    
C41   C43   A    
C12   C15   S    
C32   C34   S    
C26   C28   A    
C53   H29   S    
