data_mof_unit_9879.cif
_audit_creation_date              2012-12-10T16:50:55-0500
_audit_creation_method            fapswitch 2.2
_symmetry_space_group_name_H-M    P1
_symmetry_Int_Tables_number       1
_space_group_crystal_system       triclinic
_cell_length_a                    8.041533
_cell_length_b                    8.5758
_cell_length_c                    10.540729
_cell_angle_alpha                 91.147883
_cell_angle_beta                  88.258543
_cell_angle_gamma                 92.257026
_cell_volume                      725.887317668

loop_
_atom_site_label
_atom_site_type_symbol
_atom_type_description
_atom_site_fract_x
_atom_site_fract_y
_atom_site_fract_z
_atom_type_partial_charge
C1    C     C_R   0.542665 0.792523 0.493615 0.858101
C2    C     C_R   0.936942 0.507557 0.076728 -0.068576
C3    C     C_R   0.068632 0.598783 0.027378 -0.142754
C4    C     C_R   0.931368 0.401206 0.972619 -0.142744
C5    C     C_R   0.209666 0.612345 0.101140 -0.211381
C6    C     C_R   0.790334 0.387647 0.898860 -0.211377
C7    C     C_R   0.351633 0.536691 0.060821 0.099244
C8    C     C_R   0.648368 0.463301 0.939180 0.099250
C9    C     C_R   0.352798 0.457711 0.943638 0.096362
C10   C     C_R   0.647204 0.542285 0.056364 0.096358
C11   C     C_R   0.498080 0.554149 0.125472 -0.242775
C12   C     C_R   0.457337 0.207476 0.506387 0.858098
C13   C     C_R   0.501920 0.445838 0.874531 -0.242796
C14   C     C_2   0.557117 0.954618 0.471492 0.192517
C15   C     C_2   0.442884 0.045380 0.528510 0.192521
C16   C     C_R   0.501324 0.479123 0.738584 0.865861
C17   C     C_R   0.498675 0.520872 0.261417 0.865890
C18   C     C_R   0.202934 0.410403 0.891260 -0.192544
C19   C     C_R   0.797069 0.589590 0.108740 -0.192556
C20   C     C_R   0.063058 0.492433 0.923270 -0.068573
H1    H     H_    0.963216 0.282737 0.995799 0.158910
H2    H     H_    0.990880 0.618204 0.595291 0.199864
H3    H     H_    0.734960 0.925552 0.342748 0.330918
H4    H     H_    0.265066 0.074451 0.657271 0.330915
H5    H     H_    0.036781 0.717249 0.004197 0.158913
H6    H     H_    0.197800 0.326831 0.812490 0.150595
H7    H     H_    0.802212 0.673161 0.187505 0.150605
H8    H     H_    0.032367 0.550130 0.835905 0.171821
H9    H     H_    0.967633 0.449856 0.164092 0.171821
H10   H     H_    0.211850 0.693717 0.181253 0.162218
H11   H     H_    0.788135 0.306276 0.818744 0.162214
H12   H     H_    0.009120 0.381796 0.404709 0.199864
N1    N     N_2   0.950330 0.457950 0.466250 -0.185469
N2    N     N_2   0.049670 0.542050 0.533750 -0.185469
O1    O     O_R   0.389250 0.738570 0.508280 -0.551742
O2    O     O_3   0.326721 0.987253 0.617671 -0.775894
O3    O     O_R   0.610750 0.261430 0.491720 -0.551751
O4    O     O_R   0.678390 0.711630 0.486650 -0.645639
O5    O     O_R   0.321610 0.288370 0.513350 -0.645623
O6    O     O_R   0.355430 0.513480 0.694040 -0.605749
O7    O     O_R   0.644570 0.486520 0.305960 -0.605753
O8    O     O_R   0.644570 0.486540 0.672410 -0.623052
O9    O     O_R   0.355430 0.513460 0.327590 -0.623058
O10   O     O_3   0.673270 0.012748 0.382326 -0.775891
Zn1   Zn    Zn3+2 0.306940 0.517990 0.514440 0.959157
Zn2   Zn    Zn3+2 0.693060 0.482010 0.485560 0.959152

loop_
_geom_bond_atom_site_label_1
_geom_bond_atom_site_label_2
_ccdc_geom_bond_type
C2    C4    A    
O7    Zn2   S    
C17   O9    A    
C8    C13   A    
C4    H1    S    
C19   H7    S    
C9    C18   A    
C18   H6    S    
C12   C15   S    
C10   C19   A    
O5    Zn1   S    
H12   N1    S    
C12   O5    A    
C2    C3    A    
C2    C19   A    
C5    C7    A    
C3    C20   A    
N2    Zn1   S    
C7    C11   A    
N1    Zn2   S    
O9    Zn1   S    
H4    O2    S    
C1    O4    A    
C16   O6    A    
C2    H9    S    
C6    C8    A    
C8    C10   A    
N1    N2    D    
C18   C20   A    
O6    Zn1   S    
H2    N2    S    
C17   O7    A    
O4    Zn2   S    
C4    C6    A    
C10   C11   A    
C4    C20   A    
C16   O8    A    
C15   O2    S    
C3    H5    S    
C1    O1    A    
C14   O10   S    
C5    H10   S    
O8    Zn2   S    
C13   C16   S    
C12   O3    A    
C7    C9    A    
C9    C13   A    
C14   C15   D    
C11   C17   S    
C6    H11   S    
C1    C14   S    
C20   H8    S    
O3    Zn2   S    
H3    O10   S    
C3    C5    A    
O1    Zn1   S    
