data_mof_unit_12070.cif
_audit_creation_date              2012-12-11T14:52:44-0500
_audit_creation_method            fapswitch 2.2
_symmetry_space_group_name_H-M    P1
_symmetry_Int_Tables_number       1
_space_group_crystal_system       triclinic
_cell_length_a                    18.792033
_cell_length_b                    10.976907
_cell_length_c                    18.744031
_cell_angle_alpha                 90.148359
_cell_angle_beta                  90.900943
_cell_angle_gamma                 89.890315
_cell_volume                      3865.99095051

loop_
_atom_site_label
_atom_site_type_symbol
_atom_type_description
_atom_site_fract_x
_atom_site_fract_y
_atom_site_fract_z
_atom_type_partial_charge
C1    C     C_R   0.270990 0.044666 0.852572 0.526604
C2    C     C_R   0.695802 0.535349 0.035581 -0.095552
C3    C     C_3   0.009112 0.327610 0.070144 0.024682
C4    C     C_R   0.804265 0.035154 0.964199 -0.095524
C5    C     C_R   0.195814 0.035317 0.035591 -0.095256
C6    C     C_R   0.301086 0.521764 0.038038 -0.116810
C7    C     C_R   0.698914 0.522146 0.961721 -0.116813
C8    C     C_R   0.801088 0.021768 0.038038 -0.116810
C9    C     C_R   0.198923 0.022123 0.961730 -0.117109
C10   C     C_R   0.249398 0.585525 0.076771 0.033782
C11   C     C_R   0.750472 0.585920 0.923182 0.034014
C12   C     C_R   0.749395 0.085521 0.076769 0.034046
C13   C     C_R   0.728996 0.044537 0.147394 0.522650
C14   C     C_R   0.250482 0.085895 0.923192 0.033138
C15   C     C_R   0.205047 0.669386 0.041996 -0.119034
C16   C     C_R   0.794672 0.669732 0.958142 -0.118521
C17   C     C_R   0.705040 0.169373 0.041993 -0.118944
C18   C     C_R   0.294690 0.169690 0.958156 -0.118942
C19   C     C_R   0.206808 0.679985 0.968968 -0.070512
C20   C     C_R   0.792984 0.680135 0.031181 -0.070399
C21   C     C_R   0.706802 0.179971 0.968964 -0.070533
C22   C     C_R   0.293003 0.180087 0.031195 -0.069863
C23   C     C_R   0.255373 0.611645 0.929053 0.092110
C24   C     C_R   0.770987 0.544674 0.852569 0.524089
C25   C     C_R   0.744607 0.611693 0.070901 0.092667
C26   C     C_R   0.755371 0.111637 0.929051 0.092240
C27   C     C_R   0.244621 0.111653 0.070913 0.094161
C28   C     C_R   0.484206 0.723582 0.532848 -0.203107
C29   C     C_R   0.486807 0.729575 0.460294 -0.201957
C30   C     C_R   0.998385 0.223330 0.535704 -0.216090
C31   C     C_R   0.998066 0.223932 0.462929 -0.211387
C32   C     C_R   0.509770 0.835727 0.427622 0.055722
C33   C     C_R   0.495672 0.827895 0.574794 0.043702
C34   C     C_R   0.004333 0.333475 0.425765 0.041644
C35   C     C_R   0.228996 0.544538 0.147394 0.524109
C36   C     C_R   0.994723 0.332596 0.573879 0.039710
C37   C     C_R   0.527497 0.940060 0.469189 0.207191
C38   C     C_R   0.516374 0.937718 0.543482 0.202151
C39   C     C_R   0.004407 0.445781 0.462876 0.232782
C40   C     C_R   0.996692 0.445414 0.537752 0.232326
C41   C     C_R   0.471102 0.821620 0.854847 0.586792
C42   C     C_R   0.528910 0.821552 0.145157 0.585196
C43   C     C_R   0.971102 0.321620 0.854848 0.584213
C44   C     C_R   0.028911 0.321551 0.145156 0.582957
C45   C     C_R   0.221554 0.732789 0.517652 0.232980
C46   C     C_3   0.530314 0.726316 0.971725 -0.141517
C47   C     C_R   0.784254 0.727175 0.481034 0.241277
C48   C     C_R   0.718654 0.231673 0.518037 0.232045
C49   C     C_R   0.315482 0.071297 0.454784 0.214660
C50   C     C_R   0.215109 0.703098 0.445735 -0.114831
C51   C     C_R   0.791330 0.697412 0.552654 -0.113849
C52   C     C_R   0.712302 0.203270 0.445884 -0.123556
C53   C     C_R   0.322415 0.059568 0.527817 -0.125818
C54   C     C_R   0.255347 0.607668 0.417472 0.000679
C55   C     C_R   0.744811 0.614250 0.583734 0.003610
C56   C     C_R   0.756376 0.114915 0.415717 0.001158
C57   C     C_3   0.469876 0.726190 0.027892 -0.141600
C58   C     C_R   0.262189 0.066940 0.571106 0.034341
C59   C     C_R   0.310073 0.554190 0.457848 -0.155857
C60   C     C_R   0.682235 0.581255 0.547500 -0.130768
C61   C     C_R   0.817008 0.075734 0.453100 -0.135493
C62   C     C_R   0.194314 0.079587 0.542126 -0.124832
C63   C     C_R   0.318674 0.585889 0.528893 -0.182419
C64   C     C_R   0.673432 0.612325 0.475859 -0.183287
C65   C     C_R   0.825237 0.105445 0.524970 -0.179031
C66   C     C_R   0.186788 0.088422 0.469188 -0.187167
C67   C     C_R   0.272361 0.670627 0.559994 0.062718
C68   C     C_3   0.030310 0.226310 0.971726 -0.141487
C69   C     C_R   0.727072 0.677489 0.440962 0.058897
C70   C     C_R   0.773354 0.176404 0.559000 0.063302
C71   C     C_R   0.247474 0.088257 0.426038 0.071792
C72   C     C_R   0.261864 0.641197 0.853709 0.578121
C73   C     C_R   0.738157 0.641124 0.146302 0.577356
C74   C     C_R   0.761862 0.141191 0.853707 0.578894
C75   C     C_R   0.238164 0.141100 0.146310 0.572968
C76   C     C_R   0.272536 0.043522 0.645034 0.544132
C77   C     C_R   0.730486 0.051084 0.351998 0.554170
C78   C     C_R   0.769727 0.550615 0.647765 0.549970
C79   C     C_3   0.969872 0.226194 0.027893 -0.141650
C80   C     C_R   0.230021 0.549394 0.352546 0.550150
C81   C     C_R   0.470358 0.822923 0.647282 0.577133
C82   C     C_R   0.531875 0.824362 0.354108 0.576987
C83   C     C_R   0.969970 0.323751 0.646822 0.569232
C84   C     C_R   0.029822 0.324090 0.353060 0.576202
C85   C     C_R   0.275108 0.691275 0.636687 0.590338
C86   C     C_R   0.724691 0.692669 0.363305 0.592054
C87   C     C_R   0.775303 0.192284 0.636665 0.594844
C88   C     C_R   0.239952 0.135516 0.355604 0.595041
C89   C     C_3   0.470283 0.927327 0.028020 0.201857
C90   C     C_R   0.304264 0.535154 0.964200 -0.095501
C91   C     C_3   0.529448 0.927444 0.972414 0.201826
C92   C     C_3   0.970287 0.427331 0.028018 0.201861
C93   C     C_3   0.029453 0.427438 0.972413 0.201623
C94   C     C_3   0.431370 0.827701 0.985827 0.218455
C95   C     C_3   0.568585 0.827693 0.014200 0.218284
C96   C     C_3   0.931370 0.327709 0.985826 0.218756
C97   C     C_3   0.068585 0.327683 0.014200 0.218586
C98   C     C_3   0.490844 0.827876 0.929882 0.023896
C99   C     C_3   0.509112 0.827610 0.070144 0.024304
C100  C     C_3   0.990845 0.327874 0.929882 0.024403
Cr1   Cr    Cr6+3 0.229630 0.835900 0.747350 1.066088
Cr2   Cr    Cr6+3 0.614200 0.677120 0.250660 1.022381
Cr3   Cr    Cr6+3 0.885800 0.177120 0.749340 1.022790
Cr4   Cr    Cr6+3 0.114200 0.177120 0.250660 1.023180
Cr5   Cr    Cr6+3 0.770370 0.835900 0.252650 1.063330
Cr6   Cr    Cr6+3 0.729630 0.335900 0.747350 1.067578
Cr7   Cr    Cr6+3 0.270370 0.335900 0.252650 1.052914
Cr8   Cr    Cr6+3 0.387410 0.989850 0.750850 1.071029
Cr9   Cr    Cr6+3 0.612590 0.989850 0.249150 1.082761
Cr10  Cr    Cr6+3 0.887410 0.489850 0.750850 1.075797
Cr11  Cr    Cr6+3 0.112590 0.489850 0.249150 1.082593
Cr12  Cr    Cr6+3 0.385800 0.677120 0.749340 1.023458
H1    H     H_    0.174165 0.747174 0.413578 0.125367
H2    H     H_    0.626901 0.579481 0.446999 0.141490
H3    H     H_    0.869691 0.066919 0.554627 0.136914
H4    H     H_    0.133945 0.103104 0.447060 0.144011
H5    H     H_    0.556529 0.645394 0.948068 0.138934
H6    H     H_    0.443849 0.645167 0.051204 0.138717
H7    H     H_    0.056522 0.145383 0.948071 0.138789
H8    H     H_    0.943841 0.145175 0.051205 0.138527
H9    H     H_    0.344200 0.485621 0.934776 0.113301
H10   H     H_    0.656008 0.485773 0.064879 0.112811
H11   H     H_    0.844204 0.985626 0.934776 0.113049
H12   H     H_    0.837361 0.731004 0.582101 0.131569
H13   H     H_    0.156016 0.985748 0.064888 0.112538
H14   H     H_    0.336720 0.457969 0.064249 0.114650
H15   H     H_    0.663394 0.458357 0.935341 0.115130
H16   H     H_    0.836728 0.957985 0.064252 0.114516
H17   H     H_    0.163396 0.958347 0.935348 0.114981
H18   H     H_    0.169888 0.743066 0.943976 0.131291
H19   H     H_    0.829838 0.743117 0.056333 0.131376
H20   H     H_    0.669879 0.243048 0.943972 0.131415
H21   H     H_    0.329861 0.243064 0.056347 0.131685
H22   H     H_    0.468983 0.637166 0.555542 0.150733
H23   H     H_    0.668202 0.241306 0.415316 0.136695
H24   H     H_    0.474786 0.647698 0.429991 0.149699
H25   H     H_    0.996737 0.135337 0.561673 0.148676
H26   H     H_    0.997992 0.136297 0.436167 0.149034
H27   H     H_    0.349325 0.902255 0.943515 0.332291
H28   H     H_    0.650499 0.902275 0.056640 0.332765
H29   H     H_    0.849325 0.402291 0.943530 0.332504
H30   H     H_    0.150505 0.402259 0.056632 0.332689
H31   H     H_    0.139801 0.842305 0.512334 0.311955
H32   H     H_    0.873511 0.818320 0.483502 0.303404
H33   H     H_    0.631818 0.329344 0.514724 0.303980
H34   H     H_    0.374841 0.043474 0.550726 0.138793
H35   H     H_    0.417219 0.080754 0.440896 0.339788
H36   H     H_    0.433157 0.089069 0.019356 0.319005
H37   H     H_    0.566655 0.088838 0.981901 0.318904
H38   H     H_    0.933134 0.589051 0.019336 0.319068
H39   H     H_    0.066664 0.588829 0.981899 0.319028
H40   H     H_    0.165322 0.721060 0.070528 0.123260
H41   H     H_    0.834274 0.721393 0.929742 0.123889
H42   H     H_    0.665311 0.221041 0.070523 0.123604
H43   H     H_    0.334296 0.221348 0.929759 0.124227
H44   H     H_    0.586109 0.085591 0.472156 0.333208
H45   H     H_    0.342306 0.481227 0.436428 0.147867
H46   H     H_    0.513374 0.113081 0.557180 0.323392
H47   H     H_    0.038312 0.612612 0.456981 0.329471
H48   H     H_    0.966412 0.614346 0.545180 0.326720
H49   H     H_    0.642558 0.526077 0.573154 0.171665
H50   H     H_    0.855347 0.016644 0.428100 0.172683
H51   H     H_    0.147822 0.081783 0.575602 0.139586
H52   H     H_    0.358256 0.537496 0.560415 0.140955
O1    O     O_R   0.214270 0.709000 0.827470 -0.512497
O2    O     O_R   0.543270 0.717630 0.330160 -0.555755
O3    O     O_R   0.956730 0.217630 0.669840 -0.554246
O4    O     O_R   0.043270 0.217630 0.330160 -0.547743
O5    O     O_R   0.320620 0.625640 0.672920 -0.525181
O6    O     O_R   0.679380 0.625640 0.327080 -0.523402
O7    O     O_R   0.820620 0.125640 0.672920 -0.523472
O8    O     O_R   0.179380 0.125640 0.327080 -0.532374
O9    O     O_3   0.334280 0.834290 0.749180 -0.298402
O10   O     O_3   0.665720 0.834290 0.250820 -0.297003
O11   O     O_3   0.834280 0.334290 0.749180 -0.296944
O12   O     O_R   0.785730 0.709000 0.172530 -0.512339
O13   O     O_3   0.165720 0.334290 0.250820 -0.271023
O14   O     O_R   0.236160 0.958490 0.823130 -0.511534
O15   O     O_R   0.763840 0.958490 0.176870 -0.513011
O16   O     O_R   0.736160 0.458490 0.823130 -0.512811
O17   O     O_R   0.263840 0.458490 0.176870 -0.510824
O18   O     O_R   0.332080 0.075470 0.831280 -0.523743
O19   O     O_R   0.667920 0.075470 0.168720 -0.528854
O20   O     O_R   0.832080 0.575470 0.831280 -0.526509
O21   O     O_R   0.167920 0.575470 0.168720 -0.528750
O22   O     O_R   0.446300 0.918110 0.826620 -0.475210
O23   O     O_R   0.714270 0.209000 0.827470 -0.511201
O24   O     O_R   0.553700 0.918110 0.173380 -0.479195
O25   O     O_R   0.946300 0.418110 0.826620 -0.477952
O26   O     O_R   0.053700 0.418110 0.173380 -0.480563
O27   O     O_R   0.457110 0.716200 0.831760 -0.519401
O28   O     O_R   0.542890 0.716200 0.168240 -0.519970
O29   O     O_R   0.957110 0.216200 0.831760 -0.519912
O30   O     O_R   0.042890 0.216200 0.168240 -0.520591
O31   O     O_R   0.320980 0.624310 0.823030 -0.495095
O32   O     O_R   0.679020 0.624310 0.176970 -0.496319
O33   O     O_R   0.820980 0.124310 0.823030 -0.495904
O34   O     O_R   0.285730 0.209000 0.172530 -0.511946
O35   O     O_R   0.179020 0.124310 0.176970 -0.501051
O36   O     O_R   0.213890 0.710430 0.665540 -0.432287
O37   O     O_R   0.786110 0.710430 0.334460 -0.427594
O38   O     O_R   0.713890 0.210430 0.665540 -0.424092
O39   O     O_R   0.286110 0.210430 0.334460 -0.456826
O40   O     O_R   0.235810 0.959820 0.673020 -0.485752
O41   O     O_R   0.764190 0.959820 0.326980 -0.497545
O42   O     O_R   0.735810 0.459820 0.673020 -0.492036
O43   O     O_R   0.264190 0.459820 0.326980 -0.509874
O44   O     O_R   0.331700 0.076900 0.669350 -0.521593
O45   O     O_R   0.445950 0.919440 0.676520 -0.450349
O46   O     O_R   0.668300 0.076900 0.330650 -0.490584
O47   O     O_R   0.831700 0.576900 0.669350 -0.511033
O48   O     O_R   0.168300 0.576900 0.330650 -0.503423
O49   O     O_3   0.358417 0.826841 0.970800 -0.683025
O50   O     O_3   0.641538 0.826781 0.029218 -0.682944
O51   O     O_3   0.858418 0.326857 0.970796 -0.683067
O52   O     O_3   0.141538 0.326759 0.029219 -0.682808
O53   O     O_3   0.175761 0.815590 0.548327 -0.676159
O54   O     O_3   0.835177 0.797620 0.448575 -0.682161
O55   O     O_3   0.669224 0.306185 0.550105 -0.686060
O56   O     O_R   0.554050 0.919440 0.323480 -0.425005
O57   O     O_3   0.373839 0.070869 0.410941 -0.671310
O58   O     O_3   0.438191 0.029310 0.058618 -0.686379
O59   O     O_3   0.561295 0.029568 0.942259 -0.685557
O60   O     O_3   0.938199 0.529322 0.058611 -0.686969
O61   O     O_3   0.061304 0.529558 0.942258 -0.686829
O62   O     O_3   0.556495 0.040886 0.436789 -0.686238
O63   O     O_3   0.524826 0.039888 0.585986 -0.674556
O64   O     O_3   0.013522 0.552976 0.425622 -0.670985
O65   O     O_3   0.989850 0.552499 0.576002 -0.672476
O66   O     O_R   0.945950 0.419440 0.676520 -0.433825
O67   O     O_R   0.054050 0.419440 0.323480 -0.431336
O68   O     O_R   0.456730 0.717630 0.669840 -0.552844

loop_
_geom_bond_atom_site_label_1
_geom_bond_atom_site_label_2
_ccdc_geom_bond_type
Cr2   O6    S    
C81   O45   A    
C21   C26   A    
C58   C62   A    
C88   O8    A    
C53   C58   A    
C24   O20   A    
Cr11  O67   S    
C72   O1    A    
C14   C18   A    
Cr1   O9    S    
C2    C7    A    
C4    C8    A    
C3    C79   S    
H29   O51   S    
C72   O31   A    
C68   C100  S    
Cr8   O45   S    
Cr10  O47   S    
Cr1   O36   S    
C58   C76   S    
Cr7   O13   S    
C21   H20   S    
Cr12  O5    S    
Cr10  O11   S    
Cr3   O3    S    
C91   C98   S    
C50   C54   A    
C96   O51   S    
C66   H4    S    
Cr7   O17   S    
C28   H22   S    
Cr8   O22   S    
C28   C29   A    
C25   C73   S    
Cr6   O23   S    
C15   C19   A    
C29   C32   A    
C10   C15   A    
C68   H7    S    
C30   C31   A    
C95   C99   S    
Cr4   O4    S    
C20   C25   A    
C70   C87   S    
C36   C83   S    
H44   O62   S    
C65   C70   A    
C57   C99   S    
C11   C24   S    
C92   C96   S    
C45   O53   S    
C76   O44   A    
Cr3   O33   S    
C89   C94   S    
C84   O67   A    
H36   O58   S    
C68   C97   S    
C47   C69   A    
Cr1   O14   S    
Cr10  O66   S    
C44   O26   A    
C5    C27   A    
Cr8   O18   S    
C8    H16   S    
C46   C95   S    
Cr4   O13   S    
C13   O19   A    
C81   O68   A    
C30   C36   A    
C12   C17   A    
Cr8   O44   S    
Cr2   O28   S    
Cr6   O11   S    
C93   O61   S    
C10   C35   S    
C8    C12   A    
C89   C91   S    
C87   O38   A    
Cr7   O43   S    
H35   O57   S    
C16   C20   A    
C80   O48   A    
Cr9   O19   S    
C68   C79   S    
Cr12  O9    S    
C46   C98   S    
Cr10  O20   S    
Cr2   O2    S    
C30   H25   S    
C18   C22   A    
C55   C60   A    
C79   H8    S    
Cr3   O7    S    
C51   H12   S    
C65   H3    S    
Cr7   O39   S    
C34   C84   S    
Cr5   O15   S    
C27   C75   S    
C17   H42   S    
Cr6   O16   S    
C15   H40   S    
H46   O63   S    
C54   C80   S    
C54   C59   A    
C2    H10   S    
Cr9   O24   S    
C63   H52   S    
Cr11  O48   S    
C47   O54   S    
C63   C67   A    
C3    C44   S    
Cr11  O21   S    
C67   C85   S    
C62   C66   A    
C22   H21   S    
C86   O37   A    
C61   H50   S    
C92   O60   S    
C64   H2    S    
C43   C100  S    
C6    H14   S    
C39   C40   A    
C55   C78   S    
C41   O27   A    
Cr9   O10   S    
C47   C51   A    
C62   H51   S    
C6    C90   A    
C83   O3    A    
C97   O52   S    
C85   O5    A    
C56   C77   S    
C34   C39   A    
C46   H5    S    
H32   O54   S    
C3    C92   S    
C7    C11   A    
C9    C14   A    
C78   O42   A    
Cr12  O31   S    
C5    C9    A    
C37   C38   A    
C84   O4    A    
C77   O41   A    
Cr6   O38   S    
C1    O14   A    
C3    C97   S    
C85   O36   A    
Cr5   O37   S    
C66   C71   A    
H33   O55   S    
C74   O33   A    
C36   C40   A    
C35   O21   A    
C87   O7    A    
Cr8   O9    S    
C80   O43   A    
Cr3   O11   S    
C60   H49   S    
C23   C90   A    
C56   C61   A    
C32   C37   A    
C31   H26   S    
Cr1   O1    S    
Cr5   O12   S    
C93   C100  S    
C43   O25   A    
C39   O64   S    
C77   O46   A    
C61   C65   A    
C37   O62   S    
H39   O61   S    
C89   C99   S    
C28   C33   A    
C75   O35   A    
C57   C94   S    
C46   C57   S    
C22   C27   A    
C90   H9    S    
C9    H17   S    
C35   O17   A    
C20   H19   S    
C91   O59   S    
Cr9   O46   S    
C78   O47   A    
C93   C97   S    
C89   O58   S    
C31   C34   A    
C19   C23   A    
C74   O23   A    
C82   O2    A    
C75   O34   A    
C42   O24   A    
C52   H23   S    
C94   O49   S    
Cr4   O30   S    
C49   O57   S    
C86   O6    A    
C44   O30   A    
C23   C72   S    
C48   C70   A    
Cr1   O40   S    
Cr2   O32   S    
Cr5   O10   S    
Cr6   O42   S    
Cr7   O34   S    
C4    C26   A    
C1    O18   A    
C76   O40   A    
Cr5   O41   S    
C45   C67   A    
C83   O66   A    
H28   O50   S    
Cr2   O10   S    
C64   C69   A    
C43   O29   A    
Cr10  O25   S    
C59   C63   A    
C33   C38   A    
Cr12  O68   S    
Cr4   O8    S    
C60   C64   A    
C50   H1    S    
C53   H34   S    
C73   O12   A    
H30   O52   S    
C79   C96   S    
Cr9   O56   S    
C13   O15   A    
C42   C99   S    
C32   C82   S    
C59   H45   S    
C45   C50   A    
H27   O49   S    
C49   C53   A    
C24   O16   A    
C96   C100  S    
C92   C93   S    
Cr4   O35   S    
C41   O22   A    
C2    C25   A    
C51   C55   A    
C88   O39   A    
C17   C21   A    
H38   O60   S    
C11   C16   A    
H47   O64   S    
C6    C10   A    
C69   C86   S    
C91   C95   S    
C71   C88   S    
C42   O28   A    
C48   C52   A    
C29   H24   S    
C82   O56   A    
C12   C13   S    
C4    H11   S    
Cr11  O26   S    
C26   C74   S    
C49   C71   A    
C73   O32   A    
C5    H13   S    
C16   H41   S    
Cr11  O13   S    
C95   O50   S    
C94   C98   S    
H48   O65   S    
C57   H6    S    
C1    C14   S    
H37   O59   S    
C19   H18   S    
C7    H15   S    
C40   O65   S    
C33   C81   S    
H31   O53   S    
C41   C98   S    
C18   H43   S    
C52   C56   A    
Cr3   O29   S    
C38   O63   S    
Cr12  O27   S    
C48   O55   S    
