data_mof_unit_62658.cif
_audit_creation_date              2012-12-10T18:16:14-0500
_audit_creation_method            fapswitch 2.2
_symmetry_space_group_name_H-M    P1
_symmetry_Int_Tables_number       1
_space_group_crystal_system       triclinic
_cell_length_a                    42.379847
_cell_length_b                    29.209213
_cell_length_c                    29.202699
_cell_angle_alpha                 90.000014
_cell_angle_beta                  133.852031
_cell_angle_gamma                 89.999916
_cell_volume                      26068.5353192

loop_
_atom_site_label
_atom_site_type_symbol
_atom_type_description
_atom_site_fract_x
_atom_site_fract_y
_atom_site_fract_z
_atom_type_partial_charge
C1    C     C_R   0.499968 0.586678 0.499989 0.907691
C2    C     C_1   0.834570 0.000003 0.335710 -0.090862
C3    C     C_3   0.760826 0.962346 0.239818 0.133999
C4    C     C_1   0.372583 0.500002 0.373237 -0.208755
C5    C     C_1   0.872583 0.000002 0.373236 -0.208755
C6    C     C_1   0.121216 0.500000 0.121849 -0.208994
C7    C     C_1   0.621216 1.000000 0.121848 -0.208994
C8    C     C_3   0.261291 0.499430 0.306782 0.132327
C9    C     C_3   0.761291 0.999274 0.306778 0.132329
C10   C     C_3   0.288869 0.500002 0.290384 -0.051321
C11   C     C_3   0.788869 0.000003 0.290383 -0.051319
C12   C     C_3   0.283092 0.579410 0.240204 -0.388241
C13   C     C_1   0.159230 0.499999 0.160593 -0.083311
C14   C     C_3   0.250637 0.614038 0.188163 -0.883426
C15   C     C_3   0.283080 0.421808 0.238087 -0.388126
C16   C     C_3   0.250622 0.387504 0.185481 -0.883497
C17   C     C_3   0.783094 0.079566 0.240487 -0.388260
C18   C     C_3   0.750640 0.114270 0.188581 -0.883423
C19   C     C_3   0.783079 0.921974 0.237808 -0.388121
C20   C     C_3   0.750621 0.887748 0.185070 -0.883508
C21   C     C_3   0.210487 0.578054 0.258696 -0.379921
C22   C     C_3   0.242981 0.612623 0.311438 -0.362179
C23   C     C_3   0.219021 0.651548 0.311516 -0.876293
C24   C     C_1   0.659230 0.999999 0.160591 -0.083312
C25   C     C_3   0.210479 0.420721 0.256568 -0.379810
C26   C     C_3   0.242973 0.385826 0.308739 -0.362228
C27   C     C_3   0.218999 0.345718 0.306766 -0.876318
C28   C     C_3   0.710488 0.077889 0.258970 -0.379933
C29   C     C_3   0.742983 0.112380 0.311847 -0.362173
C30   C     C_3   0.719022 0.151237 0.312030 -0.876283
C31   C     C_3   0.710477 0.920565 0.256284 -0.379804
C32   C     C_3   0.742970 0.885594 0.308320 -0.362227
C33   C     C_3   0.718996 0.845423 0.306230 -0.876310
C34   C     C_3   0.209656 0.501226 0.120414 -0.383213
C35   C     C_1   0.499945 0.637261 0.499940 -0.225274
C36   C     C_3   0.241785 0.501554 0.112415 -0.360596
C37   C     C_3   0.217391 0.502738 0.042329 -0.876124
C38   C     C_3   0.709657 0.001547 0.120418 -0.383215
C39   C     C_3   0.741785 0.002030 0.112421 -0.360591
C40   C     C_3   0.717390 0.003340 0.042338 -0.876114
C41   C     C_3   0.284099 0.498789 0.376581 -0.385569
C42   C     C_3   0.252103 0.498463 0.384522 -0.885433
C43   C     C_3   0.784098 0.998468 0.376574 -0.385576
C44   C     C_3   0.752102 0.997987 0.384512 -0.885435
C45   C     C_1   0.499945 0.362739 0.499940 -0.225278
C46   C     C_1   0.999945 0.137261 0.499940 -0.225273
C47   C     C_1   0.999945 0.862739 0.499940 -0.225279
C48   C     C_1   0.499932 0.679398 0.499920 0.002106
C49   C     C_1   0.499932 0.320602 0.499920 0.002105
C50   C     C_1   0.999932 0.179398 0.499920 0.002107
C51   C     C_R   0.499968 0.413322 0.499989 0.907688
C52   C     C_1   0.999932 0.820602 0.499920 0.002104
C53   C     C_1   0.499927 0.729134 0.499918 0.004845
C54   C     C_1   0.499927 0.270866 0.499917 0.004848
C55   C     C_1   0.999927 0.229134 0.499918 0.004846
C56   C     C_1   0.999927 0.770866 0.499917 0.004847
C57   C     C_1   0.499930 0.771270 0.499927 0.004786
C58   C     C_1   0.499930 0.228729 0.499927 0.004788
C59   C     C_1   0.999930 0.271271 0.499927 0.004787
C60   C     C_1   0.999930 0.728729 0.499927 0.004788
C61   C     C_1   0.499939 0.821006 0.499946 0.003238
C62   C     C_R   0.999968 0.086678 0.499989 0.907691
C63   C     C_1   0.499939 0.178993 0.499946 0.003239
C64   C     C_1   0.999939 0.321006 0.499946 0.003238
C65   C     C_1   0.999939 0.678993 0.499946 0.003239
C66   C     C_1   0.499948 0.863144 0.499964 -0.215168
C67   C     C_1   0.499948 0.136856 0.499964 -0.215168
C68   C     C_1   0.999948 0.363144 0.499964 -0.215168
C69   C     C_1   0.999948 0.636856 0.499964 -0.215168
C70   C     C_R   0.417119 0.500000 0.417316 0.949695
C71   C     C_R   0.917119 0.000000 0.417316 0.949694
C72   C     C_1   0.635841 0.500000 0.635496 -0.222681
C73   C     C_R   0.999968 0.913322 0.499989 0.907688
C74   C     C_1   0.135841 0.000000 0.635496 -0.222681
C75   C     C_1   0.677113 0.500000 0.676746 0.015933
C76   C     C_1   0.177113 0.000000 0.676746 0.015933
C77   C     C_1   0.726260 0.500000 0.725954 0.002283
C78   C     C_1   0.226260 0.000000 0.725954 0.002283
C79   C     C_1   0.767533 0.500000 0.767309 0.002273
C80   C     C_1   0.267533 0.000000 0.767309 0.002273
C81   C     C_1   0.816680 0.500000 0.816566 0.015893
C82   C     C_1   0.316680 0.000000 0.816566 0.015893
C83   C     C_1   0.857953 0.500000 0.857931 -0.222852
C84   C     C_3   0.204939 0.500000 0.206636 -0.012114
C85   C     C_1   0.357953 0.000000 0.857931 -0.222852
C86   C     C_R   0.994883 0.500000 0.081699 0.909313
C87   C     C_R   0.494882 0.000000 0.081699 0.909312
C88   C     C_R   0.076685 0.500000 0.076369 0.950466
C89   C     C_R   0.576685 1.000000 0.076370 0.950467
C90   C     C_R   0.992996 0.500000 0.906367 0.906711
C91   C     C_R   0.492996 0.000000 0.906367 0.906712
C92   C     C_R   0.907988 0.500000 0.908066 0.892077
C93   C     C_R   0.407988 0.000000 0.908066 0.892077
C94   C     C_R   0.585808 0.500000 0.585699 0.892135
C95   C     C_3   0.704939 0.000000 0.206634 -0.012113
C96   C     C_R   0.085808 0.000000 0.585699 0.892135
C97   C     C_R   0.499068 0.000000 0.412877 0.897749
C98   C     C_R   0.999068 0.500000 0.412877 0.897749
C99   C     C_R   0.499957 0.913728 0.499983 0.897484
C100  C     C_R   0.499957 0.086272 0.499983 0.897484
C101  C     C_R   0.999957 0.413728 0.499983 0.897483
C102  C     C_R   0.999957 0.586272 0.499983 0.897484
C103  C     C_R   0.500780 0.000000 0.587070 0.897325
C104  C     C_R   0.000780 0.500000 0.587070 0.897325
C105  C     C_1   0.995642 0.500000 0.133029 -0.225201
C106  C     C_3   0.232526 0.500572 0.190257 0.080884
C107  C     C_1   0.495642 0.000000 0.133029 -0.225201
C108  C     C_1   0.996282 0.500000 0.175802 0.002045
C109  C     C_1   0.496282 0.000000 0.175802 0.002045
C110  C     C_1   0.997024 0.500000 0.226267 0.004925
C111  C     C_1   0.497024 0.000000 0.226267 0.004925
C112  C     C_1   0.497621 0.000000 0.268996 0.004856
C113  C     C_1   0.997621 0.500000 0.268996 0.004857
C114  C     C_1   0.498266 0.000000 0.319366 0.003149
C115  C     C_1   0.998266 0.500000 0.319366 0.003149
C116  C     C_1   0.498718 0.000000 0.361953 -0.215219
C117  C     C_3   0.732527 0.000729 0.190258 0.080882
C118  C     C_1   0.998718 0.500000 0.361953 -0.215219
C119  C     C_1   0.994078 0.500000 0.856853 -0.224813
C120  C     C_1   0.494078 0.000000 0.856853 -0.224813
C121  C     C_3   0.232950 0.537736 0.257036 0.078624
C122  C     C_3   0.232946 0.461694 0.256041 0.078579
C123  C     C_3   0.732951 0.037656 0.257169 0.078631
C124  C     C_3   0.732945 0.961618 0.255902 0.078574
C125  C     C_1   0.995324 0.500000 0.815966 0.002090
C126  C     C_1   0.495324 0.000000 0.815966 0.002090
C127  C     C_1   0.996961 0.500000 0.767875 0.004549
C128  C     C_1   0.334570 0.500003 0.335710 -0.090861
C129  C     C_1   0.496961 0.000000 0.767875 0.004549
C130  C     C_1   0.498327 0.000000 0.727114 0.004590
C131  C     C_1   0.998327 0.500000 0.727114 0.004590
C132  C     C_1   0.499756 0.000000 0.678806 0.003322
C133  C     C_1   0.999756 0.500000 0.678806 0.003322
C134  C     C_1   0.500596 0.000000 0.637500 -0.215487
C135  C     C_1   0.000596 0.500000 0.637500 -0.215486
C136  C     C_3   0.260831 0.538309 0.240950 0.134048
C137  C     C_3   0.260826 0.462266 0.239954 0.134003
C138  C     C_3   0.760832 0.038385 0.241086 0.134056
H1    H     H_    0.229976 0.598331 0.140515 0.261723
H2    H     H_    0.304820 0.403958 0.284587 0.200490
H3    H     H_    0.729954 0.098659 0.140874 0.261716
H4    H     H_    0.729435 0.128285 0.194603 0.261465
H5    H     H_    0.768958 0.143146 0.191395 0.253093
H6    H     H_    0.804598 0.096812 0.287398 0.200403
H7    H     H_    0.804527 0.067149 0.233995 0.202371
H8    H     H_    0.730155 0.872252 0.191653 0.261687
H9    H     H_    0.729198 0.904259 0.137818 0.261497
H10   H     H_    0.768930 0.859825 0.186220 0.253099
H11   H     H_    0.804281 0.935350 0.231335 0.202342
H12   H     H_    0.229407 0.628130 0.194098 0.261456
H13   H     H_    0.804812 0.904032 0.284241 0.200488
H14   H     H_    0.197535 0.670001 0.265399 0.262835
H15   H     H_    0.198895 0.637946 0.319891 0.262821
H16   H     H_    0.243199 0.676136 0.349993 0.253441
H17   H     H_    0.264799 0.595676 0.358463 0.230964
H18   H     H_    0.263508 0.627472 0.304577 0.231132
H19   H     H_    0.188672 0.595570 0.211916 0.202461
H20   H     H_    0.189335 0.564331 0.265125 0.201778
H21   H     H_    0.198036 0.357989 0.314243 0.263070
H22   H     H_    0.198339 0.327865 0.260287 0.262571
H23   H     H_    0.268954 0.642871 0.190897 0.253091
H24   H     H_    0.243179 0.320972 0.344966 0.253452
H25   H     H_    0.264281 0.372300 0.302633 0.230971
H26   H     H_    0.264018 0.402100 0.356130 0.231124
H27   H     H_    0.189085 0.433660 0.262927 0.200990
H28   H     H_    0.188903 0.403741 0.209436 0.203285
H29   H     H_    0.697562 0.169781 0.265982 0.262826
H30   H     H_    0.698867 0.137554 0.320315 0.262829
H31   H     H_    0.743200 0.175768 0.350607 0.253437
H32   H     H_    0.764775 0.095342 0.358810 0.230968
H33   H     H_    0.763535 0.127306 0.305075 0.231127
H34   H     H_    0.304588 0.596751 0.287050 0.200399
H35   H     H_    0.688681 0.095497 0.212257 0.202488
H36   H     H_    0.689327 0.064069 0.265336 0.201744
H37   H     H_    0.698055 0.857608 0.313785 0.263058
H38   H     H_    0.698312 0.827663 0.259683 0.262575
H39   H     H_    0.743174 0.820622 0.344331 0.253451
H40   H     H_    0.764258 0.872150 0.302135 0.230973
H41   H     H_    0.764038 0.901775 0.355772 0.231116
H42   H     H_    0.689090 0.933407 0.262701 0.201021
H43   H     H_    0.688895 0.903679 0.209089 0.203261
H44   H     H_    0.196126 0.472087 0.017476 0.263185
H45   H     H_    0.304533 0.566894 0.233770 0.202380
H46   H     H_    0.196978 0.534121 0.019446 0.262907
H47   H     H_    0.241305 0.502895 0.037746 0.253275
H48   H     H_    0.263369 0.531950 0.135993 0.231019
H49   H     H_    0.262575 0.470509 0.134040 0.231159
H50   H     H_    0.188025 0.470793 0.096129 0.200643
H51   H     H_    0.188274 0.531905 0.097142 0.201575
H52   H     H_    0.696151 0.972680 0.017410 0.263176
H53   H     H_    0.696950 0.034711 0.019529 0.262911
H54   H     H_    0.741304 0.003612 0.037755 0.253273
H55   H     H_    0.763346 0.032439 0.136072 0.231022
H56   H     H_    0.230180 0.372086 0.192152 0.261692
H57   H     H_    0.762599 0.971001 0.133971 0.231154
H58   H     H_    0.688032 0.971119 0.096030 0.200662
H59   H     H_    0.688267 0.032227 0.097249 0.201556
H60   H     H_    0.231544 0.529660 0.363894 0.261839
H61   H     H_    0.230757 0.467870 0.361941 0.261590
H62   H     H_    0.270793 0.497605 0.435898 0.253189
H63   H     H_    0.305474 0.468158 0.400208 0.202148
H64   H     H_    0.305720 0.529171 0.401187 0.202317
H65   H     H_    0.731519 0.029168 0.363961 0.261831
H66   H     H_    0.730778 0.967381 0.361855 0.261598
H67   H     H_    0.229177 0.403923 0.138168 0.261488
H68   H     H_    0.770792 0.997039 0.435886 0.253191
H69   H     H_    0.805480 0.967835 0.400097 0.202146
H70   H     H_    0.805713 0.028844 0.401283 0.202320
H71   H     H_    0.268931 0.359532 0.186708 0.253096
H72   H     H_    0.304274 0.435087 0.231553 0.202330
O1    O     O_R   0.500400 0.563130 0.536080 -0.597443
O2    O     O_R   0.963990 0.500000 0.400890 -0.593803
O3    O     O_R   0.534410 0.000000 0.471310 -0.594253
O4    O     O_R   0.034410 0.500000 0.471310 -0.594253
O5    O     O_R   0.464750 0.936830 0.464780 -0.594193
O6    O     O_R   0.464750 0.063170 0.464780 -0.594193
O7    O     O_R   0.964750 0.436830 0.464780 -0.594193
O8    O     O_R   0.964750 0.563170 0.464780 -0.594193
O9    O     O_R   0.535170 0.936820 0.535200 -0.593908
O10   O     O_R   0.535170 0.063180 0.535200 -0.593908
O11   O     O_R   0.035170 0.436820 0.535200 -0.593908
O12   O     O_R   0.500400 0.436870 0.536080 -0.597443
O13   O     O_R   0.035170 0.563180 0.535200 -0.593908
O14   O     O_R   0.465520 0.000000 0.528690 -0.593864
O15   O     O_R   0.965520 0.500000 0.528690 -0.593864
O16   O     O_R   0.535930 0.000000 0.599110 -0.593997
O17   O     O_R   0.035930 0.500000 0.599110 -0.593997
O18   O     O_R   0.499540 0.563080 0.463930 -0.597275
O19   O     O_R   0.499540 0.436920 0.463930 -0.597274
O20   O     O_R   0.999540 0.063080 0.463930 -0.597275
O21   O     O_R   0.999540 0.936920 0.463930 -0.597273
O22   O     O_R   0.438030 0.500000 0.473700 -0.616368
O23   O     O_R   0.000400 0.063130 0.536080 -0.597443
O24   O     O_R   0.938030 0.000000 0.473700 -0.616368
O25   O     O_R   0.437170 0.500000 0.401550 -0.616326
O26   O     O_R   0.937170 0.000000 0.401550 -0.616325
O27   O     O_R   0.562760 0.500000 0.598450 -0.591403
O28   O     O_R   0.062760 0.000000 0.598450 -0.591403
O29   O     O_R   0.561900 0.500000 0.526300 -0.591438
O30   O     O_R   0.061900 0.000000 0.526300 -0.591438
O31   O     O_R   0.994600 0.535610 0.057840 -0.597219
O32   O     O_R   0.994600 0.464390 0.057840 -0.597223
O33   O     O_R   0.494600 0.035610 0.057840 -0.597219
O34   O     O_R   0.000400 0.936870 0.536080 -0.597442
O35   O     O_R   0.494600 0.964390 0.057840 -0.597223
O36   O     O_R   0.056200 0.535620 0.056290 -0.615964
O37   O     O_R   0.056200 0.464380 0.056290 -0.615961
O38   O     O_R   0.556200 0.035620 0.056290 -0.615963
O39   O     O_R   0.556200 0.964380 0.056290 -0.615962
O40   O     O_R   0.993060 0.535640 0.930020 -0.597591
O41   O     O_R   0.993060 0.464360 0.930020 -0.597596
O42   O     O_R   0.493060 0.035640 0.930020 -0.597591
O43   O     O_R   0.493060 0.964360 0.930020 -0.597596
O44   O     O_R   0.931470 0.535630 0.931560 -0.591481
O45   O     O_R   0.931470 0.464370 0.931560 -0.591481
O46   O     O_R   0.431470 0.035630 0.931560 -0.591482
O47   O     O_R   0.431470 0.964370 0.931560 -0.591480
O48   O     O_R   0.463990 0.000000 0.400890 -0.593803
Zn1   Zn    Zn3+2 0.500540 0.500000 0.548170 0.962001
Zn2   Zn    Zn3+2 0.952950 0.500000 0.452980 0.966173
Zn3   Zn    Zn3+2 0.546980 0.000000 0.547020 0.966080
Zn4   Zn    Zn3+2 0.046980 0.500000 0.547020 0.966080
Zn5   Zn    Zn3+2 0.000540 0.000000 0.548170 0.962001
Zn6   Zn    Zn3+2 0.499390 0.500000 0.451830 0.961760
Zn7   Zn    Zn3+2 0.999390 0.000000 0.451830 0.961761
Zn8   Zn    Zn3+2 0.993830 0.547580 0.993940 0.962514
Zn9   Zn    Zn3+2 0.993830 0.452420 0.993940 0.962517
Zn10  Zn    Zn3+2 0.493830 0.047580 0.993940 0.962514
Zn11  Zn    Zn3+2 0.493830 0.952420 0.993940 0.962517
Zn12  Zn    Zn3+2 0.452950 0.000000 0.452980 0.966173

loop_
_geom_bond_atom_site_label_1
_geom_bond_atom_site_label_2
_ccdc_geom_bond_type
C95   C124  S    
C23   H14   S    
O1    Zn1   S    
O25   Zn6   S    
C104  C135  S    
C55   C59   T    
C51   O19   A    
C96   O30   A    
C21   H20   S    
C16   H71   S    
C130  C132  S    
O10   Zn3   S    
O9    Zn3   S    
C8    C122  S    
C112  C114  S    
O17   Zn4   S    
C28   C123  S    
C104  O15   A    
C12   H34   S    
C22   H18   S    
C69   C102  S    
C95   C117  S    
C103  O16   A    
C83   C92   S    
C39   H55   S    
C13   C84   S    
C6    C13   T    
C59   C64   S    
O7    Zn2   S    
C74   C76   T    
C46   C62   S    
C17   H6    S    
C64   C68   T    
C36   C37   S    
C103  C134  S    
C10   C136  S    
C30   H29   S    
C15   H2    S    
C15   H72   S    
C109  C111  S    
C27   H24   S    
C38   C39   S    
C8    C10   S    
C78   C80   T    
C8    C121  S    
C12   H45   S    
C1    O1    A    
O38   Zn10  S    
C2    C11   S    
C51   O12   A    
C27   H21   S    
C7    C24   T    
C7    C89   S    
C26   H25   S    
C9    C124  S    
C6    C88   S    
C27   H22   S    
C41   C42   S    
C71   O24   A    
O6    Zn12  S    
C33   H38   S    
C127  C131  T    
C3    C117  S    
C9    C123  S    
O48   Zn12  S    
C38   C117  S    
C85   C93   S    
C61   C66   T    
O42   Zn10  S    
C93   O46   A    
O44   Zn8   S    
C19   C20   S    
O43   Zn11  S    
C62   O20   A    
O22   Zn1   S    
O27   Zn1   S    
C44   H65   S    
C84   C106  S    
C20   H10   S    
C32   H41   S    
C98   C118  S    
C17   C138  S    
C10   C137  S    
C45   C49   T    
C29   H32   S    
C25   C122  S    
C34   C36   S    
O12   Zn1   S    
O8    Zn2   S    
O23   Zn5   S    
O37   Zn9   S    
C106  C136  S    
C98   O4    A    
C121  C136  S    
C62   O23   A    
C97   O3    A    
C21   C22   S    
C31   H43   S    
C133  C135  T    
C107  C109  T    
C32   H40   S    
O28   Zn5   S    
C21   H19   S    
C72   C75   T    
C10   C128  S    
C35   C48   T    
C4    C70   S    
C81   C83   T    
C97   O48   A    
C87   O35   A    
C63   C67   T    
C91   O42   A    
C77   C79   T    
C48   C53   S    
C105  C108  T    
C37   H47   S    
C9    C43   S    
C40   H53   S    
C15   C16   S    
C4    C128  T    
C43   H69   S    
C76   C78   S    
C34   C106  S    
C74   C96   S    
C42   H60   S    
C3    C11   S    
O33   Zn10  S    
C47   C73   S    
C18   H5    S    
O11   Zn4   S    
C24   C95   S    
C39   C40   S    
C79   C81   S    
C53   C57   T    
C106  C137  S    
C123  C138  S    
C91   O43   A    
C126  C129  S    
C25   H27   S    
C25   C26   S    
C71   O26   A    
C37   H46   S    
C33   H39   S    
O2    Zn2   S    
C29   H33   S    
C56   C60   T    
O3    Zn3   S    
C66   C99   S    
O35   Zn11  S    
C43   C44   S    
C30   H31   S    
C29   C30   S    
O39   Zn11  S    
C103  O14   A    
C90   O40   A    
C88   O36   A    
C28   H35   S    
C94   O27   A    
C87   O33   A    
C68   C101  S    
C40   H54   S    
C18   H4    S    
C86   O32   A    
C115  C118  T    
C14   H12   S    
C44   H68   S    
C17   C18   S    
C26   C27   S    
C20   H9    S    
C87   C107  S    
O34   Zn5   S    
O32   Zn9   S    
C8    C41   S    
C97   C116  S    
C3    C19   S    
C75   C77   S    
O16   Zn3   S    
O40   Zn8   S    
C120  C126  T    
C89   O39   A    
C67   C100  S    
C132  C134  T    
C93   O47   A    
C119  C125  T    
C1    O18   A    
C80   C82   S    
O24   Zn5   S    
O15   Zn2   S    
C99   O9    A    
C60   C65   S    
C16   H67   S    
C23   H15   S    
C17   H7    S    
C20   H8    S    
O29   Zn6   S    
C86   C105  S    
O47   Zn11  S    
C41   H63   S    
C34   H51   S    
O41   Zn9   S    
C73   O21   A    
C3    C124  S    
C1    C35   S    
C104  O17   A    
C125  C127  S    
C129  C130  T    
C54   C58   T    
O19   Zn6   S    
C95   C123  S    
C58   C63   S    
C101  O7    A    
C28   C29   S    
C49   C54   S    
C111  C112  T    
C43   H70   S    
C91   C120  S    
C96   O28   A    
O30   Zn7   S    
O4    Zn4   S    
C31   C32   S    
C122  C137  S    
C12   C14   S    
C131  C133  S    
C117  C138  S    
C38   H59   S    
C114  C116  T    
C19   H13   S    
C57   C61   S    
C47   C52   T    
C34   H50   S    
C25   H28   S    
C82   C85   T    
C90   O41   A    
C46   C50   T    
C50   C55   S    
C89   O38   A    
C31   H42   S    
C36   H49   S    
C11   C138  S    
C90   C119  S    
C14   H23   S    
O21   Zn7   S    
C84   C121  S    
C72   C94   S    
C5    C71   S    
C98   O2    A    
C32   C33   S    
C88   O37   A    
C102  O13   A    
C113  C115  S    
C28   H36   S    
C22   C23   S    
O26   Zn7   S    
C73   O34   A    
C39   H57   S    
C86   O31   A    
C65   C69   T    
C37   H44   S    
C9    C11   S    
C42   H62   S    
C19   H11   S    
O14   Zn12  S    
C108  C110  S    
C31   C124  S    
C36   H48   S    
C70   O25   A    
C38   H58   S    
O5    Zn12  S    
C21   C121  S    
C33   H37   S    
C70   O22   A    
C100  O10   A    
C26   H26   S    
C16   H56   S    
C102  O8    A    
C30   H30   S    
C22   H17   S    
C2    C5    T    
C92   O45   A    
C52   C56   S    
C94   O29   A    
C40   H52   S    
C14   H1    S    
O45   Zn9   S    
C100  O6    A    
C12   C136  S    
C23   H16   S    
C110  C113  T    
C44   H66   S    
C45   C51   S    
O31   Zn8   S    
O46   Zn10  S    
C42   H61   S    
C41   H64   S    
O36   Zn8   S    
C101  O11   A    
C84   C122  S    
C18   H3    S    
O13   Zn4   S    
O18   Zn6   S    
C99   O5    A    
C15   C137  S    
O20   Zn7   S    
C92   O44   A    
