data_mof_unit_34545.cif
_audit_creation_date              2012-12-10T18:02:05-0500
_audit_creation_method            fapswitch 2.2
_symmetry_space_group_name_H-M    P1
_symmetry_Int_Tables_number       1
_space_group_crystal_system       triclinic
_cell_length_a                    10.820454
_cell_length_b                    9.597558
_cell_length_c                    23.46896
_cell_angle_alpha                 90.118781
_cell_angle_beta                  91.542326
_cell_angle_gamma                 89.951243
_cell_volume                      2436.36098051

loop_
_atom_site_label
_atom_site_type_symbol
_atom_type_description
_atom_site_fract_x
_atom_site_fract_y
_atom_site_fract_z
_atom_type_partial_charge
C1    C     C_R   0.262337 0.500265 0.500451 0.816167
C2    C     C_R   0.737666 0.500182 0.499476 0.812421
C3    C     C_R   0.600107 0.559409 0.240799 0.265085
C4    C     C_R   0.384886 0.516450 0.757852 0.272922
C5    C     C_R   0.600662 0.558383 0.300532 0.132604
C6    C     C_R   0.387574 0.521844 0.698272 0.142950
C7    C     C_R   0.499864 0.500632 0.329019 -0.226759
C8    C     C_R   0.499492 0.499352 0.670693 -0.227938
C9    C     C_R   0.397874 0.444736 0.298011 0.114908
C10   C     C_R   0.609284 0.471576 0.702205 0.098410
C11   C     C_R   0.399584 0.442804 0.237955 0.182379
C12   C     C_R   0.608720 0.479028 0.762295 0.207937
C13   C     C_R   0.499947 0.501502 0.209805 0.177799
C14   C     C_R   0.495754 0.499897 0.789997 0.155965
C15   C     C_R   0.063903 0.375330 0.502641 -0.182048
C16   C     C_R   0.935849 0.627963 0.498879 -0.147133
C17   C     C_R   0.936449 0.375143 0.499298 -0.192629
C18   C     C_R   0.063843 0.628001 0.499139 -0.150210
C19   C     C_R   0.871621 0.501151 0.498939 -0.005258
C20   C     C_R   0.128386 0.501307 0.500982 0.001108
C21   C     C_R   0.429675 0.074630 0.460706 0.252057
C22   C     C_R   0.565844 0.925739 0.540921 0.253037
C23   C     C_R   0.569766 0.075155 0.539504 0.254854
C24   C     C_R   0.433410 0.925092 0.459315 0.253745
C25   C     C_R   0.500351 0.499977 0.391331 0.924661
C26   C     C_R   0.500820 0.499903 0.608587 0.938318
C27   C     C_R   0.523639 0.378472 0.879772 0.667786
C28   C     C_R   0.452582 0.613039 0.119955 0.634853
C29   C     C_R   0.461540 0.616468 0.879882 0.612022
C30   C     C_R   0.544714 0.387331 0.121156 0.643068
C31   C     C_R   0.447896 0.614001 0.939470 -0.065176
C32   C     C_R   0.542288 0.381366 0.060930 -0.078284
C33   C     C_R   0.490837 0.495433 0.969935 -0.103384
C34   C     C_R   0.491605 0.496051 0.030237 -0.091896
C35   C     C_R   0.534450 0.377387 0.939958 -0.116276
C36   C     C_R   0.442210 0.611797 0.059878 -0.096348
C37   C     C_R   0.391567 0.725330 0.968907 0.200674
C38   C     C_R   0.590700 0.265826 0.030934 0.183166
C39   C     C_R   0.384243 0.721409 0.028664 0.197457
C40   C     C_R   0.587050 0.263788 0.970842 0.232258
Cu1   Cu    Cu3+1 0.500000 0.640660 0.500000 1.002818
Cu2   Cu    Cu3+1 0.500000 0.359340 0.500000 1.007638
H1    H     H_    0.111538 0.276751 0.506310 0.161239
H2    H     H_    0.887574 0.726894 0.498294 0.152724
H3    H     H_    0.889112 0.276293 0.497188 0.160126
H4    H     H_    0.111863 0.726916 0.498179 0.147471
N1    N     N_R   0.493446 0.498302 0.851397 -0.441876
N2    N     N_R   0.499689 0.500900 0.148633 -0.432766
N3    N     N_R   0.500000 0.852070 0.500000 -0.209860
N4    N     N_R   0.500000 0.147930 0.500000 -0.220053
O1    O     O_R   0.319640 0.618740 0.500000 -0.581360
O2    O     O_R   0.680360 0.381260 0.500000 -0.561414
O3    O     O_R   0.680360 0.618740 0.500000 -0.577204
O4    O     O_R   0.319640 0.381260 0.500000 -0.555855
O5    O     O_R   0.499960 0.618810 0.417880 -0.539655
O6    O     O_R   0.500040 0.381190 0.582120 -0.560345
O7    O     O_R   0.500040 0.618810 0.582120 -0.544127
O8    O     O_R   0.499960 0.381190 0.417880 -0.560039
O9    O     O_2   0.540933 0.261426 0.849245 -0.455528
O10   O     O_2   0.419714 0.726078 0.150129 -0.488827
O11   O     O_2   0.443636 0.735458 0.850254 -0.470095
O12   O     O_2   0.592619 0.281952 0.152644 -0.486621
N5    N     N_2   0.337977 0.839409 0.938142 -0.361869
H5    H     H_    0.352359 0.935964 0.956475 0.287451
C41   C     C_3   0.211789 0.817627 0.918046 -0.474071
H6    H     H_    0.148544 0.812480 0.954443 0.229219
H7    H     H_    0.203943 0.719482 0.893191 0.251717
H8    H     H_    0.182755 0.905353 0.889972 0.237769
N6    N     N_2   0.646946 0.152833 0.061347 -0.382016
H9    H     H_    0.732487 0.123119 0.047296 0.290331
C42   C     C_3   0.565646 0.036711 0.071931 -0.440193
H10   H     H_    0.537788 0.984840 0.031288 0.216887
H11   H     H_    0.481821 0.072956 0.093914 0.262213
H12   H     H_    0.614267 0.959593 0.099722 0.250516
Br1   Br    Br    0.279484 0.858926 0.064363 -0.494724
Br2   Br    Br    0.664917 0.106784 0.933615 -0.441627
Br3   Br    Br    0.736396 0.637438 0.200512 -0.398268
Br4   Br    Br    0.228720 0.522458 0.795410 -0.446911
Br5   Br    Br    0.741071 0.632048 0.343200 -0.474710
Br6   Br    Br    0.236930 0.553269 0.654202 -0.481534
N7    N     N_2   0.292730 0.395661 0.327418 -0.425855
H13   H     H_    0.247811 0.311899 0.308873 0.261384
C43   C     C_3   0.208237 0.503713 0.344895 -0.638388
H14   H     H_    0.171425 0.561783 0.307248 0.243427
H15   H     H_    0.255110 0.577446 0.374762 0.222845
H16   H     H_    0.129531 0.456288 0.367207 0.229883
N8    N     N_2   0.717606 0.430899 0.673078 -0.434318
H17   H     H_    0.763504 0.346144 0.690278 0.263218
C44   C     C_3   0.798804 0.543191 0.657483 -0.642698
H18   H     H_    0.830891 0.601949 0.695908 0.248000
H19   H     H_    0.750597 0.614320 0.627171 0.229906
H20   H     H_    0.880576 0.499897 0.635944 0.245696
N9    N     N_2   0.301315 0.382105 0.204890 -0.431292
H21   H     H_    0.274671 0.283215 0.216332 0.263014
C45   C     C_3   0.200928 0.474229 0.187944 -0.555369
H22   H     H_    0.180941 0.461301 0.141615 0.244472
H23   H     H_    0.224009 0.585414 0.196340 0.255001
H24   H     H_    0.116619 0.447344 0.211548 0.230235
N10   N     N_2   0.720448 0.465093 0.795553 -0.401960
H25   H     H_    0.788785 0.401791 0.780165 0.279463
C46   C     C_3   0.765722 0.589697 0.824157 -0.592192
H26   H     H_    0.855164 0.621779 0.806106 0.232872
H27   H     H_    0.780505 0.567278 0.870207 0.240458
H28   H     H_    0.699847 0.678224 0.819557 0.244078
N11   N     N_2   0.357099 0.149914 0.419884 -0.354472
H29   H     H_    0.395703 0.159419 0.380452 0.262723
C47   C     C_3   0.224592 0.128645 0.418961 -0.678001
H30   H     H_    0.177899 0.230495 0.413392 0.247036
H31   H     H_    0.193643 0.079853 0.459058 0.206377
H32   H     H_    0.195806 0.062328 0.382194 0.213121
N12   N     N_2   0.630051 0.851526 0.584921 -0.387917
H33   H     H_    0.724909 0.851315 0.582344 0.234940
C48   C     C_3   0.583994 0.867948 0.642092 -0.602231
H34   H     H_    0.631160 0.954981 0.664757 0.206971
H35   H     H_    0.603885 0.772454 0.667090 0.231888
H36   H     H_    0.482319 0.885243 0.641167 0.243523
N13   N     N_2   0.640166 0.150932 0.581138 -0.358652
H37   H     H_    0.599727 0.161307 0.620159 0.263027
C49   C     C_3   0.772824 0.131152 0.583454 -0.676890
H38   H     H_    0.818154 0.233752 0.589635 0.249248
H39   H     H_    0.806141 0.082176 0.543736 0.206901
H40   H     H_    0.800350 0.065279 0.620453 0.213308
N14   N     N_2   0.365797 0.849712 0.416576 -0.387629
H41   H     H_    0.271298 0.849117 0.420733 0.236696
C50   C     C_3   0.407362 0.862689 0.358560 -0.589690
H42   H     H_    0.363243 0.952776 0.336799 0.201554
H43   H     H_    0.379948 0.768389 0.334002 0.229550
H44   H     H_    0.509643 0.872851 0.357671 0.254892

loop_
_geom_bond_atom_site_label_1
_geom_bond_atom_site_label_2
_ccdc_geom_bond_type
C38   C40   A    
N8    H17   S    
N5    C41   S    
N9    H21   S    
C8    C26   S    
Cu1   Cu2   S    
C45   H22   S    
Cu2   O8    S    
N7    H13   S    
C45   H24   S    
N14   H41   S    
N11   C47   S    
C46   H26   S    
C29   N1    A    
C30   N2    A    
C17   H3    S    
N13   C49   S    
N14   C50   S    
C15   C17   A    
N6    C42   S    
Cu1   O5    S    
C12   N10   S    
Cu2   O6    S    
C37   N5    S    
N10   H25   S    
C41   H7    S    
C50   H44   S    
C47   H30   S    
C31   C33   A    
C32   C38   A    
C5    Br5   S    
C16   H2    S    
C18   C20   A    
C3    C13   A    
C48   H36   S    
C11   N9    S    
C28   O10   S    
C38   N6    S    
C46   H27   S    
C47   H31   S    
C18   H4    S    
Cu1   N3    S    
C21   N4    A    
N7    C43   S    
C10   C12   A    
C49   H39   S    
C15   C20   A    
C29   O11   S    
C10   N8    S    
C4    C6    A    
C42   H11   S    
C17   C19   A    
C23   N4    A    
C6    C8    A    
C27   C35   A    
C24   N14   S    
C31   C37   A    
C32   C34   A    
C1    O4    A    
C4    Br4   S    
C13   N2    S    
C1    O1    A    
C6    Br6   S    
C43   H14   S    
C29   C31   A    
C41   H8    S    
C33   C34   A    
N12   C48   S    
C44   H20   S    
C9    C11   A    
Cu1   O3    S    
C2    O2    A    
Cu2   N4    S    
C22   N3    A    
C8    C10   A    
C43   H15   S    
C12   C14   A    
C22   N12   S    
C46   H28   S    
C39   Br1   S    
C30   O12   S    
C50   H42   S    
C47   H32   S    
C44   H19   S    
C25   O8    A    
C3    Br3   S    
C5    C7    A    
C48   H34   S    
C49   H40   S    
C27   N1    A    
C24   N3    A    
C7    C9    A    
C28   N2    A    
C1    C20   S    
N12   H33   S    
N10   C46   S    
C2    C19   S    
C36   C39   A    
C25   O5    A    
C3    C5    A    
C2    O3    A    
C26   O6    A    
C23   N13   S    
C42   H12   S    
C49   H38   S    
C45   H23   S    
C14   N1    S    
N11   H29   S    
C7    C25   S    
N8    C44   S    
C35   C40   A    
C15   H1    S    
C42   H10   S    
C37   C39   A    
C27   O9    S    
N13   H37   S    
Cu2   O4    S    
C30   C32   A    
C11   C13   A    
N9    C45   S    
C16   C19   A    
C33   C35   A    
C34   C36   A    
C4    C14   A    
N6    H9    S    
C26   O7    A    
Cu1   O7    S    
N5    H5    S    
C40   Br2   S    
C43   H16   S    
C28   C36   A    
C16   C18   A    
C41   H6    S    
C21   C24   A    
C9    N7    S    
C50   H43   S    
C22   C23   A    
C44   H18   S    
Cu1   O1    S    
C21   N11   S    
Cu2   O2    S    
C48   H35   S    
