data_mof_unit_41121.cif
_audit_creation_date              2012-12-11T15:35:03-0500
_audit_creation_method            fapswitch 2.2
_symmetry_space_group_name_H-M    P1
_symmetry_Int_Tables_number       1
_space_group_crystal_system       triclinic
_cell_length_a                    30.730185
_cell_length_b                    7.254166
_cell_length_c                    25.813057
_cell_angle_alpha                 89.830375
_cell_angle_beta                  112.094013
_cell_angle_gamma                 90.063126
_cell_volume                      5331.72166906

loop_
_atom_site_label
_atom_site_type_symbol
_atom_type_description
_atom_site_fract_x
_atom_site_fract_y
_atom_site_fract_z
_atom_type_partial_charge
O1    O     O_R   0.295360 0.592990 0.320420 -0.527409
O2    O     O_R   0.704640 0.407010 0.679580 -0.541200
O3    O     O_R   0.204640 0.092990 0.179580 -0.530114
O4    O     O_R   0.795360 0.907010 0.820420 -0.541467
O5    O     O_R   0.294060 0.265620 0.213230 -0.537065
O6    O     O_R   0.705940 0.734380 0.786770 -0.537009
O7    O     O_R   0.205940 0.765620 0.286770 -0.539564
O8    O     O_R   0.794060 0.234380 0.713230 -0.534072
C1    C     C_R   0.303871 0.432348 0.199099 0.749296
C2    C     C_R   0.696277 0.567303 0.800733 0.748666
C3    C     C_R   0.196022 0.932052 0.301019 0.763412
C4    C     C_R   0.803493 0.067862 0.698844 0.753212
O9    O     O_R   0.300850 0.263360 0.322080 -0.541769
O10   O     O_R   0.699150 0.736640 0.677920 -0.533044
O11   O     O_R   0.199150 0.763360 0.177920 -0.541951
O12   O     O_R   0.800850 0.236640 0.822080 -0.530228
O13   O     O_R   0.211480 0.091820 0.289210 -0.529448
O14   O     O_R   0.788520 0.908180 0.710790 -0.536235
O15   O     O_R   0.288520 0.591820 0.210790 -0.529389
O16   O     O_R   0.711480 0.408180 0.789210 -0.535647
C5    C     C_R   0.313658 0.431843 0.343202 0.773925
C6    C     C_R   0.686693 0.568414 0.656667 0.774014
C7    C     C_R   0.186347 0.932284 0.156826 0.774683
C8    C     C_R   0.813288 0.068022 0.843349 0.775405
O17   O     O_3   0.220670 0.426670 0.239090 -0.377157
O18   O     O_3   0.779330 0.573330 0.760910 -0.379527
O19   O     O_3   0.279330 0.926670 0.260910 -0.376320
O20   O     O_3   0.720670 0.073330 0.739090 -0.382450
V1    V     V_3+5 0.255440 0.152290 0.252020 1.483187
V2    V     V_3+5 0.744560 0.847710 0.747980 1.454580
V3    V     V_3+5 0.244560 0.652290 0.247980 1.482799
V4    V     V_3+5 0.755440 0.347710 0.752020 1.461591
C9    C     C_R   0.849362 0.057178 0.900884 -0.235377
C10   C     C_R   0.149221 0.941325 0.099741 -0.230356
C11   C     C_R   0.650488 0.559456 0.599201 -0.234318
C12   C     C_R   0.350848 0.438594 0.400296 -0.227134
C13   C     C_R   0.870377 0.015505 0.001005 0.452306
C14   C     C_R   0.125406 0.908567 0.998995 0.450095
C15   C     C_R   0.629188 0.536025 0.498568 0.451281
C16   C     C_R   0.375325 0.384766 0.500384 0.449874
C17   C     C_R   0.835882 0.034971 0.947220 0.214604
C18   C     C_R   0.160728 0.909751 0.052475 0.205032
C19   C     C_R   0.663791 0.549836 0.552455 0.210695
C20   C     C_R   0.339848 0.392469 0.447089 0.209663
C21   C     C_R   0.897464 0.066063 0.909391 0.243487
C22   C     C_R   0.102477 0.985511 0.092388 0.240350
C23   C     C_R   0.602423 0.561199 0.591105 0.240548
C24   C     C_R   0.397272 0.489769 0.408072 0.237661
C25   C     C_R   0.932745 0.021003 0.963044 -0.075482
C26   C     C_R   0.065171 0.966490 0.038388 -0.073717
C27   C     C_R   0.567161 0.522354 0.536978 -0.074784
C28   C     C_R   0.434878 0.464059 0.461576 -0.074611
C29   C     C_R   0.918305 0.002597 0.008964 -0.075122
C30   C     C_R   0.077906 0.931668 0.991799 -0.078235
C31   C     C_R   0.581391 0.516946 0.490686 -0.074466
C32   C     C_R   0.422609 0.415341 0.507710 -0.073534
C33   C     C_R   0.981485 0.989451 0.972773 0.107222
C34   C     C_R   0.015831 0.977571 0.028664 0.112601
C35   C     C_R   0.518621 0.485143 0.527056 0.110885
C36   C     C_R   0.484094 0.480993 0.471167 0.112865
C37   C     C_R   0.999283 0.957161 0.072299 -0.216597
C38   C     C_R   0.996181 0.948454 0.928692 -0.207528
C39   C     C_R   0.500426 0.473548 0.427095 -0.219268
C40   C     C_R   0.504390 0.431279 0.570627 -0.214492
C41   C     C_R   0.951764 0.967968 0.062584 -0.138856
C42   C     C_R   0.043082 0.918854 0.938062 -0.131223
C43   C     C_R   0.547850 0.489458 0.436710 -0.141464
C44   C     C_R   0.457692 0.395765 0.561070 -0.138294
H1    H     H_    0.941307 0.947763 0.097868 0.169527
H2    H     H_    0.051942 0.885662 0.902324 0.175681
H3    H     H_    0.558162 0.479198 0.401044 0.167223
H4    H     H_    0.449204 0.352361 0.596354 0.169996
H5    H     H_    0.022264 0.919745 0.114129 0.172562
H6    H     H_    0.971459 0.926633 0.886560 0.180181
H7    H     H_    0.477393 0.442431 0.384805 0.172161
H8    H     H_    0.529385 0.403736 0.612297 0.174132
C45   C     C_R   0.088946 0.962025 0.476330 0.659188
C46   C     C_R   0.905590 0.965408 0.519677 0.618269
C47   C     C_R   0.413134 0.554914 0.025233 0.627725
C48   C     C_R   0.574089 0.342643 0.951699 0.684537
N1    N     N_R   0.068901 0.945018 0.419411 -0.536406
N2    N     N_R   0.925060 0.012005 0.575066 -0.550921
N3    N     N_R   0.422533 0.432843 0.069099 -0.530347
N4    N     N_R   0.572641 0.498249 0.920952 -0.550051
C49   C     C_R   0.021190 0.936370 0.392363 0.661247
C50   C     C_R   0.972314 0.041631 0.600805 0.676513
C51   C     C_R   0.449684 0.283185 0.067558 0.727566
C52   C     C_R   0.541523 0.637131 0.917010 0.674763
C53   C     C_R   0.991214 0.947521 0.422676 -0.177044
C54   C     C_R   0.002386 0.020211 0.571025 -0.183274
C55   C     C_R   0.482061 0.294662 0.040285 -0.184372
C56   C     C_R   0.509594 0.623335 0.944504 -0.145503
C57   C     C_R   0.011416 0.974483 0.481234 -0.114176
C58   C     C_R   0.982270 0.987588 0.512764 -0.117456
C59   C     C_R   0.481165 0.452255 0.007754 -0.097662
C60   C     C_R   0.512245 0.467872 0.978862 -0.118129
C61   C     C_R   0.060773 0.989223 0.508247 -0.173900
C62   C     C_R   0.933053 0.966288 0.486181 -0.163045
C63   C     C_R   0.446430 0.587052 0.000611 -0.147833
C64   C     C_R   0.544924 0.325570 0.982980 -0.144135
C65   C     C_R   0.941704 0.938242 0.395877 0.442798
C66   C     C_R   0.051774 0.034023 0.597713 0.436504
C67   C     C_R   0.515022 0.153358 0.044710 0.451535
C68   C     C_R   0.475003 0.759809 0.938221 0.474973
C69   C     C_R   0.912999 0.944842 0.427234 0.297728
C70   C     C_R   0.080404 0.028070 0.566366 0.296277
C71   C     C_R   0.546290 0.168954 0.016813 0.332006
C72   C     C_R   0.444647 0.744894 0.967265 0.324013
O21   O     O_2   0.136054 0.949783 0.501708 -0.481308
O22   O     O_2   0.859897 0.916834 0.497586 -0.481569
O23   O     O_2   0.369988 0.629624 0.001219 -0.463364
O24   O     O_2   0.603475 0.205167 0.951397 -0.482798
O25   O     O_2   0.003036 0.917793 0.336289 -0.507057
O26   O     O_2   0.989892 0.093505 0.654914 -0.481730
O27   O     O_2   0.442440 0.118766 0.087042 -0.490666
O28   O     O_2   0.541697 0.787832 0.886399 -0.493302
C73   C     C_R   0.898889 0.906643 0.649922 0.487293
C74   C     C_R   0.103743 0.785385 0.359543 0.524041
C75   C     C_R   0.595758 0.417287 0.842211 0.476707
C76   C     C_R   0.406910 0.323213 0.155224 0.496922
C77   C     C_R   0.869240 0.922521 0.679760 -0.293291
C78   C     C_R   0.136223 0.783070 0.332661 -0.326804
C79   C     C_R   0.625755 0.440059 0.812670 -0.331971
C80   C     C_R   0.374008 0.316675 0.182027 -0.314561
H9    H     H_    0.873846 0.828013 0.714021 0.177562
H10   H     H_    0.140850 0.657530 0.312840 0.190762
H11   H     H_    0.617895 0.370679 0.773102 0.167620
H12   H     H_    0.378805 0.221779 0.216117 0.159029
C81   C     C_R   0.834147 0.058088 0.666052 -0.279890
C82   C     C_R   0.163280 0.939297 0.331981 -0.277954
C83   C     C_R   0.665234 0.555148 0.832814 -0.272599
C84   C     C_R   0.336488 0.441288 0.168399 -0.269864
C85   C     C_R   0.828899 0.180590 0.621076 0.330230
C86   C     C_R   0.157917 0.100125 0.360363 0.337952
C87   C     C_R   0.674959 0.650854 0.883831 0.330686
C88   C     C_R   0.334838 0.587132 0.131370 0.338362
C89   C     C_R   0.860083 0.171748 0.592882 0.337678
C90   C     C_R   0.124898 0.105672 0.385839 0.329706
C91   C     C_R   0.644489 0.633518 0.912806 0.366562
C92   C     C_R   0.369646 0.603073 0.109009 0.361630
C93   C     C_R   0.895002 0.032084 0.606611 0.092539
C94   C     C_R   0.098857 0.945896 0.387380 0.097421
C95   C     C_R   0.604552 0.516719 0.891854 0.100521
C96   C     C_R   0.399144 0.449792 0.110045 0.053825
O29   O     O_3   0.793350 0.309574 0.602563 -0.587467
H13   H     H_    0.766560 0.266408 0.611779 0.300547
O30   O     O_3   0.185377 0.254023 0.365649 -0.600812
H14   H     H_    0.217930 0.209440 0.375846 0.312641
O31   O     O_3   0.714530 0.758494 0.908065 -0.578078
H15   H     H_    0.737824 0.729358 0.891329 0.296528
O32   O     O_3   0.300871 0.721824 0.117711 -0.590355
H16   H     H_    0.271101 0.661615 0.114743 0.307634
O33   O     O_3   0.854393 0.299922 0.551116 -0.591657
H17   H     H_    0.882673 0.301271 0.541521 0.288484
O34   O     O_3   0.120674 0.268728 0.411100 -0.574093
H18   H     H_    0.091295 0.267147 0.418412 0.305842
O35   O     O_3   0.655810 0.730146 0.962266 -0.570631
H19   H     H_    0.634303 0.695560 0.981124 0.317957
O36   O     O_3   0.376578 0.776514 0.091553 -0.572425
H20   H     H_    0.410394 0.788107 0.098161 0.309854
O37   O     O_3   0.095605 0.060795 0.137677 -0.652557
H21   H     H_    0.072313 0.161525 0.123417 0.292527
O38   O     O_3   0.908358 0.132115 0.865591 -0.647641
H22   H     H_    0.936771 0.210188 0.881669 0.298165
O39   O     O_3   0.403536 0.576770 0.363853 -0.651773
H23   H     H_    0.426528 0.677574 0.379512 0.292370
O40   O     O_3   0.591460 0.615422 0.635905 -0.653701
H24   H     H_    0.562671 0.692017 0.621070 0.294091
O41   O     O_3   0.206386 0.886449 0.056265 -0.604151
H25   H     H_    0.227981 0.943003 0.091361 0.300883
O42   O     O_3   0.789532 0.036444 0.942537 -0.590587
H26   H     H_    0.768680 0.073423 0.904368 0.294026
O43   O     O_3   0.294401 0.360627 0.442900 -0.612871
H27   H     H_    0.272873 0.431034 0.410513 0.287653
O44   O     O_3   0.710033 0.558553 0.556889 -0.592395
H28   H     H_    0.730742 0.593157 0.595287 0.296891
O45   O     O_3   0.856472 0.995458 0.045866 -0.528930
C97   C     C_3   0.852837 0.172331 0.066438 -0.134620
H29   H     H_    0.825210 0.256138 0.034615 0.172343
H30   H     H_    0.887074 0.246444 0.080738 0.099997
H31   H     H_    0.842605 0.156611 0.103097 0.166200
O46   O     O_3   0.137604 0.875438 0.953404 -0.533425
C98   C     C_3   0.148179 0.045533 0.934197 -0.126030
H32   H     H_    0.179193 0.112337 0.966351 0.171868
H33   H     H_    0.117510 0.140708 0.921213 0.108902
H34   H     H_    0.157003 0.019652 0.896951 0.171797
O47   O     O_3   0.642896 0.528691 0.453309 -0.530031
C99   C     C_3   0.645700 0.710564 0.435319 -0.131109
H35   H     H_    0.673086 0.791497 0.468231 0.174244
H36   H     H_    0.611175 0.782119 0.422298 0.095829
H37   H     H_    0.655782 0.705037 0.398360 0.169910
O48   O     O_3   0.363559 0.337653 0.545483 -0.534602
C100  C     C_3   0.352036 0.500251 0.567352 -0.141304
H38   H     H_    0.320549 0.568535 0.536343 0.174627
H39   H     H_    0.382114 0.598276 0.581719 0.106998
H40   H     H_    0.343534 0.463204 0.604197 0.169475
O49   O     O_3   0.920558 0.917933 0.338480 -0.509799
C101  C     C_3   0.907675 0.094076 0.314091 -0.077269
H41   H     H_    0.893434 0.078919 0.267956 0.160132
H42   H     H_    0.938438 0.188594 0.325539 0.111824
H43   H     H_    0.879683 0.156722 0.325838 0.133984
O50   O     O_3   0.072682 0.066267 0.654564 -0.513654
C102  C     C_3   0.086702 0.895370 0.682002 -0.042854
H44   H     H_    0.056210 0.800963 0.673616 0.130237
H45   H     H_    0.102214 0.920046 0.727732 0.159394
H46   H     H_    0.114060 0.828392 0.669942 0.144314
O51   O     O_3   0.516842 0.996023 0.075927 -0.525958
C103  C     C_3   0.549457 0.024801 0.130843 -0.157459
H47   H     H_    0.549726 0.900884 0.156243 0.157838
H48   H     H_    0.539456 0.144616 0.150863 0.141958
H49   H     H_    0.585631 0.043689 0.131632 0.131123
O52   O     O_3   0.472847 0.917425 0.907005 -0.511247
C104  C     C_3   0.437369 0.894032 0.853564 -0.097051
H50   H     H_    0.444026 0.770690 0.832024 0.115125
H51   H     H_    0.437321 0.016408 0.827670 0.162098
H52   H     H_    0.402044 0.884429 0.855946 0.155352
O53   O     O_3   0.865183 0.935849 0.398227 -0.589809
H53   H     H_    0.851340 0.043965 0.409795 0.327455
O54   O     O_3   0.127373 0.066880 0.594080 -0.591902
H54   H     H_    0.135996 0.159975 0.571409 0.337879
O55   O     O_3   0.577849 0.027545 0.023891 -0.597683
H55   H     H_    0.609548 0.083940 0.038985 0.317714
O56   O     O_3   0.415238 0.892249 0.963650 -0.603243
H56   H     H_    0.411280 0.904442 0.999770 0.360772
O57   O     O_3   0.933626 0.773714 0.665296 -0.536315
C105  C     C_3   0.914215 0.608527 0.637691 -0.164988
H57   H     H_    0.900972 0.626190 0.591479 0.172481
H58   H     H_    0.885745 0.556890 0.650737 0.156772
H59   H     H_    0.942147 0.501958 0.649259 0.172630
O58   O     O_3   0.079285 0.628613 0.363795 -0.516520
C106  C     C_3   0.056588 0.545312 0.311053 -0.122198
H60   H     H_    0.081242 0.454359 0.300773 0.140218
H61   H     H_    0.040339 0.648280 0.277118 0.128843
H62   H     H_    0.027880 0.456600 0.313203 0.156296
O59   O     O_3   0.555134 0.311970 0.821135 -0.542618
C107  C     C_3   0.565500 0.131306 0.809080 -0.100045
H63   H     H_    0.596945 0.072801 0.843001 0.178653
H64   H     H_    0.569879 0.126758 0.768325 0.098236
H65   H     H_    0.535216 0.041479 0.805199 0.192592
O60   O     O_3   0.451108 0.241226 0.179281 -0.539739
C108  C     C_3   0.450676 0.073580 0.207096 -0.155127
H66   H     H_    0.419484 0.987233 0.183924 0.166645
H67   H     H_    0.453020 0.100697 0.250397 0.114812
H68   H     H_    0.482234 0.992986 0.210242 0.153873

loop_
_geom_bond_atom_site_label_1
_geom_bond_atom_site_label_2
_ccdc_geom_bond_type
C90   O34   S    
O17   V3    S    
N3    C51   A    
C102  H44   S    
C25   C29   A    
O1    C5    A    
O35   H19   S    
C54   C58   A    
C51   C55   A    
O19   V1    S    
C9    C21   A    
O41   H25   S    
O3    C7    A    
C59   C60   A    
C76   C96   A    
C56   C60   A    
C85   C89   A    
C48   N4    A    
C11   C23   A    
O37   H21   S    
C25   C33   A    
C33   C38   A    
C5    C12   S    
C104  H50   S    
C87   C91   A    
C6    C11   S    
C17   O42   S    
C73   O57   S    
C35   C40   A    
C57   C58   A    
C62   C69   A    
C99   H37   S    
C40   C44   A    
O2    V4    S    
O9    V1    S    
C53   C65   A    
C67   O51   S    
C14   C18   A    
C83   C87   A    
C16   O48   S    
C98   H33   S    
C92   O36   S    
N3    C96   S    
O4    C8    A    
C59   C63   A    
C97   H30   S    
C102  H45   S    
C43   H3    S    
C58   C62   A    
O1    V3    S    
O13   V1    S    
C107  H63   S    
C80   C84   A    
C99   H36   S    
C108  H66   S    
C74   C78   A    
C32   C44   A    
O3    V1    S    
C73   C77   A    
C2    C83   S    
C54   C66   A    
C28   C36   A    
O30   H14   S    
C77   H9    S    
O46   C98   S    
O38   H22   S    
C19   O44   S    
C88   C92   A    
C1    O15   A    
C15   C31   A    
C24   O39   S    
C52   C56   A    
C2    O16   A    
C103  H47   S    
C16   C32   A    
C22   O37   S    
C10   C18   A    
C46   C62   A    
O59   C107  S    
C45   C61   A    
C101  H41   S    
O14   V2    S    
C45   N1    A    
O49   C101  S    
C11   C19   A    
C16   C20   A    
C27   C31   A    
C84   C88   A    
C80   H12   S    
C15   O47   S    
C78   H10   S    
C7    C10   S    
C34   C37   A    
O11   C7    A    
C70   O54   S    
O32   H16   S    
O15   V3    S    
C35   C36   A    
O12   C8    A    
C48   C64   A    
C53   C57   A    
O50   C102  S    
C82   C86   A    
C91   C95   A    
O10   V2    S    
N2    C93   S    
O29   H13   S    
O5    V1    S    
C104  H51   S    
C65   C69   A    
C75   C95   A    
C102  H46   S    
C39   C43   A    
O34   H18   S    
O7    V3    S    
C4    C81   S    
C38   C42   A    
O9    C5    A    
O51   C103  S    
C26   C34   A    
C97   H29   S    
C20   O43   S    
C44   H4    S    
O56   H56   S    
C46   O22   S    
C50   C54   A    
C98   H34   S    
C77   C81   A    
O40   H24   S    
C72   O56   S    
C49   C53   A    
O18   V4    S    
C15   C19   A    
C1    C84   S    
N4    C95   S    
C37   H5    S    
O53   H53   S    
O43   H27   S    
C76   C80   A    
C99   H35   S    
C108  H67   S    
O8    V4    S    
C52   O28   S    
C73   C93   A    
C98   H32   S    
O2    C6    A    
O55   H55   S    
C86   O30   S    
C18   O41   S    
C23   O40   S    
C46   N2    A    
O7    C3    A    
O36   H20   S    
C14   C30   A    
C21   C25   A    
O8    C4    A    
C100  H40   S    
C48   O24   S    
C101  H43   S    
C100  H39   S    
O57   C105  S    
C40   H8    S    
C89   O33   S    
C106  H61   S    
C26   C30   A    
C45   O21   S    
O42   H26   S    
C91   O35   S    
C76   O60   S    
C10   C22   A    
C61   C70   A    
C75   O59   S    
N1    C94   S    
O6    V2    S    
C63   C72   A    
C105  H57   S    
C105  H58   S    
C36   C39   A    
C90   C94   A    
C81   C85   A    
C12   C20   A    
C27   C35   A    
C68   O52   S    
C3    C82   S    
C57   C61   A    
C79   H11   S    
C68   C72   A    
C88   O32   S    
C29   C41   A    
C67   C71   A    
O16   V4    S    
C104  H52   S    
C47   C63   A    
O54   H54   S    
C89   C93   A    
C3    O13   A    
C64   C71   A    
C79   C83   A    
C51   O27   S    
O45   C97   S    
C92   C96   A    
C55   C67   A    
C74   C94   A    
C86   C90   A    
C23   C27   A    
O11   V3    S    
C30   C42   A    
C75   C79   A    
O12   V4    S    
C105  H59   S    
C13   O45   S    
C22   C26   A    
C69   O53   S    
C8    C9    S    
C14   O46   S    
C107  H65   S    
C47   O23   S    
C50   O26   S    
C108  H68   S    
C9    C17   A    
O48   C100  S    
O10   C6    A    
C49   O25   S    
C21   O38   S    
C13   C29   A    
C31   C43   A    
O44   H28   S    
C87   O31   S    
O31   H15   S    
N2    C50   A    
C33   C34   A    
C42   H2    S    
N4    C52   A    
C39   H7    S    
C74   O58   S    
C103  H49   S    
C41   H1    S    
C60   C64   A    
O20   V2    S    
O60   C108  S    
C107  H64   S    
C12   C24   A    
C106  H62   S    
C65   O49   S    
C13   C17   A    
O58   C106  S    
N1    C49   A    
C97   H31   S    
O6    C2    A    
C56   C68   A    
C55   C59   A    
C47   N3    A    
C37   C41   A    
O39   H23   S    
C24   C28   A    
C85   O29   S    
O52   C104  S    
O47   C99   S    
C66   O50   S    
C103  H48   S    
C100  H38   S    
C66   C70   A    
C4    O14   A    
C106  H60   S    
C38   H6    S    
C101  H42   S    
O5    C1    A    
O33   H17   S    
C78   C82   A    
O4    V2    S    
C28   C32   A    
C71   O55   S    
