data_mof_unit_43178.cif
_audit_creation_date              2013-03-05T16:43:45-0500
_audit_creation_method            fapswitch 2.2
_symmetry_space_group_name_H-M    P1
_symmetry_Int_Tables_number       1
_space_group_crystal_system       triclinic
_cell_length_a                    8.805557
_cell_length_b                    15.899005
_cell_length_c                    17.084482
_cell_angle_alpha                 95.804659
_cell_angle_beta                  91.845472
_cell_angle_gamma                 84.864646
_cell_volume                      2369.35800976

loop_
_atom_site_label
_atom_site_type_symbol
_atom_site_description
_atom_site_fract_x
_atom_site_fract_y
_atom_site_fract_z
_atom_type_partial_charge
O1    O     O_R   0.493000 0.421040 0.382520 -0.595770
O2    O     O_R   0.507000 0.578960 0.617480 -0.594795
O3    O     O_R   0.505640 0.563310 0.388930 -0.576573
O4    O     O_R   0.494360 0.436690 0.611070 -0.570527
C1    C     C_R   0.503379 0.489569 0.348620 0.798471
C2    C     C_R   0.497226 0.510333 0.651370 0.799309
O5    O     O_R   0.269980 0.445280 0.497530 -0.582052
O6    O     O_R   0.730020 0.554720 0.502470 -0.587314
O7    O     O_R   0.282610 0.587550 0.503940 -0.605220
O8    O     O_R   0.717390 0.412450 0.496060 -0.614437
C3    C     C_R   0.206311 0.521139 0.499610 0.839058
C4    C     C_R   0.793707 0.479009 0.500816 0.836908
Cu1   Cu    Cu3+1 0.492520 0.415770 0.496210 0.914165
Cu2   Cu    Cu3+1 0.507480 0.584230 0.503790 0.912732
C5    C     C_2   0.043174 0.529997 0.487737 -0.036695
C6    C     C_2   0.956689 0.470965 0.513741 -0.035719
C7    C     C_R   0.509613 0.482985 0.261863 -0.114852
C8    C     C_R   0.493878 0.516266 0.738115 -0.116713
C9    C     C_R   0.417860 0.541977 0.220053 0.108020
C10   C     C_R   0.583707 0.455209 0.778494 0.109922
C11   C     C_R   0.421755 0.535328 0.138453 -0.206632
C12   C     C_R   0.582865 0.461101 0.860178 -0.206020
C13   C     C_R   0.505745 0.467533 0.096332 0.277458
C14   C     C_R   0.504312 0.530063 0.903540 0.276793
C15   C     C_R   0.582671 0.402548 0.136402 0.143452
C16   C     C_R   0.429703 0.596645 0.864654 0.143851
C17   C     C_R   0.601044 0.415432 0.219683 0.049555
C18   C     C_R   0.407323 0.584785 0.781614 0.049121
N1    N     N_2   0.515247 0.463298 0.013207 -0.249851
N2    N     N_2   0.496705 0.533885 0.986710 -0.249872
H1    H     H_    0.646868 0.412241 0.890542 0.169248
H2    H     H_    0.356251 0.582887 0.107115 0.169052
N3    N     N_R   0.518730 0.710760 0.509500 -0.198863
N4    N     N_R   0.481270 0.289240 0.490500 -0.194334
C19   C     C_R   0.432123 0.747666 0.453096 -0.021370
C20   C     C_R   0.592594 0.252882 0.536212 -0.033827
C21   C     C_R   0.432996 0.834120 0.442964 0.010886
C22   C     C_R   0.600836 0.167014 0.548951 0.004431
C23   C     C_R   0.511212 0.887890 0.498369 0.260613
C24   C     C_R   0.486330 0.116068 0.516529 0.279305
C25   C     C_R   0.591781 0.850008 0.561821 0.032586
C26   C     C_R   0.367412 0.154635 0.470188 0.027538
C27   C     C_R   0.602166 0.759636 0.562964 0.300198
C28   C     C_R   0.372060 0.241175 0.454152 0.301956
N5    N     N_2   0.521020 0.974931 0.482712 -0.264407
N6    N     N_2   0.481989 0.030647 0.537286 -0.224026
H3    H     H_    0.675442 0.292050 0.565384 0.159163
H4    H     H_    0.363973 0.708433 0.413614 0.163532
C29   C     C_3   0.983762 0.601046 0.436879 -0.409531
C30   C     C_3   0.929422 0.566044 0.355297 -0.833402
H5    H     H_    0.022388 0.523313 0.326518 0.239342
H6    H     H_    0.827626 0.530546 0.358347 0.263095
H7    H     H_    0.899092 0.619170 0.318609 0.243180
H8    H     H_    0.895686 0.646216 0.466581 0.239380
H9    H     H_    0.075264 0.642159 0.426656 0.199563
C31   C     C_3   0.015386 0.402484 0.567383 -0.422035
C32   C     C_3   0.066990 0.441006 0.648220 -0.831129
H10   H     H_    0.170319 0.475072 0.644357 0.260149
H11   H     H_    0.974123 0.485812 0.674520 0.239577
H12   H     H_    0.094228 0.389917 0.687519 0.245259
H13   H     H_    0.924115 0.361481 0.578121 0.192714
H14   H     H_    0.105542 0.357029 0.540318 0.242820
C33   C     C_3   0.680380 0.382457 0.736259 -0.849374
H15   H     H_    0.605344 0.337072 0.704986 0.249187
H16   H     H_    0.754246 0.406485 0.693732 0.231045
H17   H     H_    0.755926 0.347196 0.777419 0.218347
C34   C     C_3   0.318035 0.614462 0.260385 -0.850485
H18   H     H_    0.391054 0.664491 0.284670 0.235765
H19   H     H_    0.233593 0.643199 0.218893 0.221551
H20   H     H_    0.252884 0.592460 0.307744 0.230814
C35   C     C_3   0.643360 0.320894 0.088627 -0.385448
C36   C     C_3   0.513067 0.271792 0.051588 -0.845043
H21   H     H_    0.436822 0.257150 0.098058 0.248222
H22   H     H_    0.445078 0.308305 0.008607 0.268521
H23   H     H_    0.560652 0.211107 0.020046 0.237204
H24   H     H_    0.718723 0.335903 0.041909 0.205825
H25   H     H_    0.711508 0.276567 0.124409 0.208623
C37   C     C_3   0.375937 0.678990 0.913416 -0.386840
C38   C     C_3   0.511087 0.725161 0.948661 -0.845995
H26   H     H_    0.579404 0.687015 0.990308 0.268679
H27   H     H_    0.585681 0.738793 0.901077 0.247624
H28   H     H_    0.468568 0.786255 0.981298 0.237441
H29   H     H_    0.308603 0.724663 0.878682 0.208493
H30   H     H_    0.301773 0.665327 0.961179 0.205591
C39   C     C_3   0.726631 0.362745 0.261749 -0.375669
C40   C     C_3   0.885833 0.375256 0.233215 -0.882541
H31   H     H_    0.912682 0.336455 0.177079 0.246418
H32   H     H_    0.894738 0.442799 0.224379 0.264026
H33   H     H_    0.973771 0.355967 0.277604 0.246693
H34   H     H_    0.731325 0.381005 0.325828 0.222053
H35   H     H_    0.705631 0.294558 0.254750 0.201360
C41   C     C_3   0.282505 0.639744 0.741349 -0.376258
C42   C     C_3   0.123724 0.629689 0.771816 -0.882334
H36   H     H_    0.110528 0.562084 0.778565 0.264514
H37   H     H_    0.102505 0.666747 0.829399 0.247001
H38   H     H_    0.034738 0.652632 0.729518 0.245165
H39   H     H_    0.307309 0.707359 0.748343 0.199752
H40   H     H_    0.273937 0.622022 0.677285 0.223369
C43   C     C_3   0.732498 0.133133 0.598675 -0.396934
C44   C     C_3   0.684336 0.126628 0.682737 -0.827699
H41   H     H_    0.576602 0.095694 0.683311 0.273327
H42   H     H_    0.775323 0.089417 0.714197 0.238075
H43   H     H_    0.666263 0.190777 0.714737 0.244624
H44   H     H_    0.782125 0.071693 0.570189 0.202278
H45   H     H_    0.826665 0.175628 0.601815 0.194105
C45   C     C_3   0.349095 0.866072 0.371593 -0.400874
C46   C     C_3   0.176447 0.868903 0.380180 -0.854419
H46   H     H_    0.140221 0.803788 0.380458 0.245005
H47   H     H_    0.140664 0.906945 0.435691 0.260252
H48   H     H_    0.118055 0.898358 0.329857 0.242775
H49   H     H_    0.380304 0.929708 0.360474 0.215322
H50   H     H_    0.382960 0.823285 0.318351 0.195241
C47   C     C_3   0.662745 0.903854 0.629150 -0.373630
C48   C     C_3   0.552529 0.923239 0.697208 -0.826681
H51   H     H_    0.447428 0.960426 0.678199 0.262724
H52   H     H_    0.519936 0.863814 0.718452 0.244284
H53   H     H_    0.607762 0.960523 0.746911 0.235162
H54   H     H_    0.771923 0.873587 0.650975 0.193865
H55   H     H_    0.695262 0.962791 0.609555 0.235701
C49   C     C_3   0.230168 0.106470 0.444098 -0.377781
C50   C     C_3   0.102626 0.125718 0.503331 -0.857008
H56   H     H_    0.142001 0.105264 0.561432 0.260347
H57   H     H_    0.065268 0.194509 0.510532 0.242150
H58   H     H_    0.003463 0.090489 0.482245 0.237462
H59   H     H_    0.186919 0.120930 0.384844 0.200499
H60   H     H_    0.260433 0.037499 0.438715 0.238848
C51   C     C_3   0.710635 0.718703 0.621363 -0.808846
H61   H     H_    0.827768 0.736700 0.613716 0.182397
H62   H     H_    0.674153 0.738515 0.682467 0.216363
H63   H     H_    0.721691 0.649498 0.613888 0.275832
C52   C     C_3   0.259451 0.278291 0.395731 -0.822460
H64   H     H_    0.271432 0.240290 0.337739 0.195092
H65   H     H_    0.140874 0.278265 0.415509 0.209402
H66   H     H_    0.278164 0.343588 0.385633 0.275469

loop_
_geom_bond_atom_site_label_1
_geom_bond_atom_site_label_2
_geom_bond_distance
_ccdc_geom_bond_type
C33   H16   1.108128 S    
C42   H36   1.109230 S    
C25   C27   1.433617 A    
C52   H66   1.096987 S    
Cu2   N3    2.015347 S    
C6    C31   1.537210 S    
C48   H51   1.110426 S    
C39   H35   1.109962 S    
C41   H40   1.104125 S    
C23   C25   1.430817 A    
C45   H50   1.111339 S    
C39   C40   1.534911 S    
C28   C52   1.509397 S    
C24   N6    1.441979 S    
C16   C37   1.525122 S    
O1    C1    1.296055 A    
C13   N1    1.419743 S    
C12   C14   1.400850 A    
C9    C11   1.388692 A    
C14   C16   1.408266 A    
C35   H24   1.111468 S    
C49   H60   1.100374 S    
C32   H11   1.110270 S    
C1    C7    1.477730 S    
C45   C46   1.528247 S    
C5    C6    1.375613 D    
C31   C32   1.525529 S    
C20   H3    1.078672 S    
O4    Cu1   1.956657 S    
C17   C39   1.531621 S    
C41   C42   1.534615 S    
C50   H58   1.110148 S    
Cu1   N4    2.015348 S    
C7    C9    1.416110 A    
C47   H55   1.090748 S    
C3    C5    1.440607 S    
C37   H29   1.103821 S    
C4    C6    1.441249 S    
C30   H6    1.106448 S    
C46   H46   1.110744 S    
C9    C34   1.507512 S    
C15   C35   1.525350 S    
C29   H8    1.107546 S    
C8    C10   1.416611 A    
C23   N5    1.446318 S    
C24   C26   1.424473 A    
C43   H44   1.105952 S    
C33   H17   1.110924 S    
C42   H37   1.106683 S    
Cu1   Cu2   2.683201 S    
C46   H47   1.110678 S    
O2    C2    1.296516 A    
C26   C28   1.434182 A    
C36   H23   1.110797 S    
C43   H45   1.112204 S    
C19   H4    1.077052 S    
C41   H39   1.109946 S    
C45   H49   1.107817 S    
C2    C8    1.476516 S    
C11   H2    1.083980 S    
C30   H7    1.110660 S    
C12   H1    1.083734 S    
C40   H32   1.109392 S    
C34   H18   1.107187 S    
C7    C17   1.430750 A    
C8    C18   1.429694 A    
C36   H22   1.109202 S    
C27   C51   1.513251 S    
C38   H27   1.111226 S    
C49   H59   1.108720 S    
C22   C43   1.507737 S    
C32   H12   1.110470 S    
C52   H65   1.107800 S    
C29   H9    1.110582 S    
C40   H33   1.111520 S    
C44   H43   1.108224 S    
C38   H26   1.109219 S    
C34   H19   1.111250 S    
N3    C27   1.375987 A    
O5    C3    1.281321 A    
O7    Cu2   1.976158 S    
C51   H62   1.108686 S    
N1    N2    1.247500 D    
C37   H30   1.111349 S    
C43   C44   1.526508 S    
O6    C4    1.279675 A    
C44   H42   1.110188 S    
C30   H5    1.110064 S    
N4    C28   1.375321 A    
C18   C41   1.531575 S    
O7    C3    1.296035 A    
C50   H56   1.110952 S    
O3    Cu2   1.956657 S    
O8    C4    1.297857 A    
O4    C2    1.298719 A    
C10   C12   1.389395 A    
C42   H38   1.111281 S    
C11   C13   1.400481 A    
C46   H48   1.110268 S    
C31   H14   1.104381 S    
O1    Cu1   1.952743 S    
C52   H64   1.109955 S    
C35   H25   1.103752 S    
C49   C50   1.525802 S    
C47   C48   1.528235 S    
O6    Cu2   1.974017 S    
C19   C21   1.403376 A    
C40   H31   1.106825 S    
C25   C47   1.515528 S    
C36   H21   1.111279 S    
O3    C1    1.299693 A    
O8    Cu1   1.976159 S    
C38   H28   1.110558 S    
C48   H52   1.109668 S    
C39   H34   1.104277 S    
C15   C17   1.422914 A    
C16   C18   1.421842 A    
C34   H20   1.108689 S    
C10   C33   1.509213 S    
C20   C22   1.399206 A    
C51   H63   1.090706 S    
C21   C45   1.513523 S    
C21   C23   1.414532 A    
C22   C24   1.413874 A    
C37   C38   1.529222 S    
C26   C49   1.519052 S    
C32   H10   1.106742 S    
C33   H15   1.107855 S    
C44   H41   1.107715 S    
N3    C19   1.356988 A    
N4    C20   1.358511 A    
C5    C29   1.538868 S    
O2    Cu2   1.952745 S    
C14   N2    1.419548 S    
C50   H57   1.109292 S    
C48   H53   1.110037 S    
C47   H54   1.106896 S    
N5    N6    1.253479 D    
O5    Cu1   1.974016 S    
C13   C15   1.408151 A    
C35   C36   1.529658 S    
C29   C30   1.526144 S    
C31   H13   1.109978 S    
C51   H61   1.109885 S    
