data_mof_unit_34166.cif
_audit_creation_date              2013-03-05T15:40:46-0500
_audit_creation_method            fapswitch 2.2
_symmetry_space_group_name_H-M    P1
_symmetry_Int_Tables_number       1
_space_group_crystal_system       triclinic
_cell_length_a                    16.764725
_cell_length_b                    16.748812
_cell_length_c                    16.657386
_cell_angle_alpha                 67.951197
_cell_angle_beta                  67.891508
_cell_angle_gamma                 67.88832
_cell_volume                      3862.89685515

loop_
_atom_site_label
_atom_site_type_symbol
_atom_site_description
_atom_site_fract_x
_atom_site_fract_y
_atom_site_fract_z
_atom_type_partial_charge
O1    O     O_R   0.124540 0.978640 0.385460 -0.554313
O2    O     O_R   0.875460 0.021360 0.614540 -0.561704
O3    O     O_R   0.978640 0.385460 0.124540 -0.556045
O4    O     O_R   0.021360 0.614540 0.875460 -0.563160
O5    O     O_R   0.385460 0.124540 0.978640 -0.555157
O6    O     O_R   0.614540 0.875460 0.021360 -0.563692
O7    O     O_R   0.614540 0.021360 0.875460 -0.580532
O8    O     O_R   0.385460 0.978640 0.124540 -0.567094
O9    O     O_R   0.875460 0.614540 0.021360 -0.555759
O10   O     O_R   0.124540 0.385460 0.978640 -0.556023
O11   O     O_R   0.021360 0.875460 0.614540 -0.582985
O12   O     O_R   0.978640 0.124540 0.385460 -0.566288
Cu1   Cu    Cu3+1 0.995180 0.995180 0.424630 1.190250
Cu2   Cu    Cu3+1 0.004820 0.004820 0.575370 1.184820
Cu3   Cu    Cu3+1 0.995180 0.424630 0.995180 1.176070
Cu4   Cu    Cu3+1 0.004820 0.575370 0.004820 1.175658
Cu5   Cu    Cu3+1 0.424630 0.995180 0.995180 1.177860
Cu6   Cu    Cu3+1 0.575370 0.004820 0.004820 1.186960
C1    C     C_R   0.028326 0.827896 0.564528 0.800814
C2    C     C_R   0.970577 0.172139 0.435843 0.869897
C3    C     C_R   0.827995 0.564532 0.029078 0.816386
C4    C     C_R   0.171869 0.434919 0.973148 0.831881
C5    C     C_R   0.564439 0.029216 0.827937 0.807575
C6    C     C_R   0.435357 0.971965 0.172053 0.871648
C7    C     C_R   0.430200 0.168424 0.986399 0.858589
C8    C     C_R   0.564764 0.828535 0.027890 0.806985
C9    C     C_R   0.971382 0.435604 0.171978 0.825703
C10   C     C_R   0.028321 0.564456 0.828087 0.811939
C11   C     C_R   0.168399 0.986600 0.430028 0.849180
C12   C     C_R   0.828489 0.028012 0.564705 0.812439
O13   O     O_R   0.013780 0.867370 0.487190 -0.556163
O14   O     O_R   0.986220 0.132630 0.512810 -0.526972
O15   O     O_R   0.867370 0.487190 0.013780 -0.567935
O16   O     O_R   0.132630 0.512810 0.986220 -0.559601
O17   O     O_R   0.487190 0.013780 0.867370 -0.561497
O18   O     O_R   0.512810 0.986220 0.132630 -0.529521
O19   O     O_R   0.512810 0.132630 0.986220 -0.560887
O20   O     O_R   0.487190 0.867370 0.013780 -0.566933
O21   O     O_R   0.986220 0.512810 0.132630 -0.565308
O22   O     O_R   0.013780 0.487190 0.867370 -0.565877
O23   O     O_R   0.132630 0.986220 0.512810 -0.563412
O24   O     O_R   0.867370 0.013780 0.487190 -0.569246
C13   C     C_R   0.450247 0.106932 0.692087 0.253273
C14   C     C_R   0.541921 0.927579 0.308323 0.273688
C15   C     C_R   0.075005 0.700415 0.448500 0.252438
C16   C     C_R   0.918868 0.300162 0.552766 0.288401
C17   C     C_R   0.693396 0.449616 0.103956 0.254787
C18   C     C_R   0.306557 0.542491 0.930770 0.263782
C19   C     C_R   0.259030 0.062586 0.497751 0.272562
C20   C     C_R   0.706147 0.077019 0.446693 0.241607
C21   C     C_R   0.498490 0.259544 0.060863 0.270287
C22   C     C_R   0.448103 0.704756 0.079673 0.249128
C23   C     C_R   0.922196 0.551370 0.298652 0.249762
C24   C     C_R   0.072469 0.449340 0.702847 0.240995
C25   C     C_R   0.538223 0.047941 0.535432 -0.062613
C26   C     C_R   0.445563 0.016834 0.444874 -0.049918
C27   C     C_R   0.021089 0.542742 0.543691 -0.063914
C28   C     C_R   0.971482 0.458415 0.459040 -0.058373
C29   C     C_R   0.536650 0.538078 0.046765 -0.062502
C30   C     C_R   0.445068 0.445882 0.016571 -0.055428
C31   C     C_R   0.583189 0.028827 0.451444 -0.020147
C32   C     C_R   0.397485 0.048076 0.523267 -0.020113
C33   C     C_R   0.010353 0.455386 0.587963 -0.020507
C34   C     C_R   0.980950 0.546039 0.415522 -0.016347
C35   C     C_R   0.452049 0.582748 0.030067 -0.014153
C36   C     C_R   0.524260 0.397828 0.045746 -0.019997
C37   C     C_R   0.539497 0.999719 0.413736 -0.000559
C38   C     C_R   0.444568 0.064910 0.568346 -0.024209
C39   C     C_R   0.413392 0.539628 0.001269 -0.008686
C40   C     C_R   0.569750 0.444549 0.062304 -0.026243
C41   C     C_R   0.976731 0.416879 0.548528 -0.001783
C42   C     C_R   0.014625 0.584695 0.454564 -0.015075
C43   C     C_R   0.402502 0.112156 0.635242 0.360347
C44   C     C_R   0.586952 0.944533 0.354289 0.351896
C45   C     C_R   0.055821 0.655251 0.404044 0.339963
C46   C     C_R   0.934964 0.346676 0.598259 0.353515
C47   C     C_R   0.637084 0.401921 0.108654 0.358667
C48   C     C_R   0.351979 0.587673 0.948288 0.338089
C49   C     C_R   0.304628 0.056984 0.555443 0.344584
C50   C     C_R   0.663339 0.054827 0.402428 0.351335
C51   C     C_R   0.556437 0.305207 0.053490 0.349913
C52   C     C_R   0.403283 0.661185 0.059330 0.339628
C53   C     C_R   0.942318 0.595930 0.342839 0.338260
C54   C     C_R   0.048232 0.405337 0.661356 0.345000
C55   C     C_R   0.544240 0.067818 0.671033 -0.059381
C56   C     C_R   0.447803 0.963974 0.324108 -0.025839
C57   C     C_R   0.051703 0.674788 0.544267 -0.053080
C58   C     C_R   0.943730 0.325660 0.456901 -0.027621
C59   C     C_R   0.672000 0.543971 0.066199 -0.062517
C60   C     C_R   0.323067 0.448032 0.966052 -0.062777
C61   C     C_R   0.305536 0.019340 0.428165 -0.050686
C62   C     C_R   0.676586 0.058220 0.542340 -0.059815
C63   C     C_R   0.428330 0.305924 0.018876 -0.057864
C64   C     C_R   0.543365 0.676048 0.058509 -0.058325
C65   C     C_R   0.944610 0.456067 0.325589 -0.063940
C66   C     C_R   0.051380 0.544511 0.675437 -0.059810
C67   C     C_R   0.598489 0.048867 0.728025 -0.055099
C68   C     C_R   0.398622 0.963557 0.270263 -0.015588
C69   C     C_R   0.044998 0.728499 0.597606 -0.058289
C70   C     C_R   0.952756 0.271616 0.402907 -0.022432
C71   C     C_R   0.728393 0.598410 0.048259 -0.044952
C72   C     C_R   0.269616 0.398394 0.965625 -0.047108
C73   C     C_R   0.261426 0.992723 0.388222 -0.076712
C74   C     C_R   0.730029 0.046212 0.597615 -0.038903
C75   C     C_R   0.388276 0.261559 0.992869 -0.070126
C76   C     C_R   0.598071 0.729855 0.046075 -0.044892
C77   C     C_R   0.953262 0.402526 0.271582 -0.041469
C78   C     C_R   0.045182 0.597660 0.728706 -0.043577
C79   C     C_R   0.690442 0.039012 0.689653 -0.203931
C80   C     C_R   0.307569 0.970245 0.307243 -0.174428
C81   C     C_R   0.041341 0.688519 0.688786 -0.208597
C82   C     C_R   0.957797 0.311441 0.311358 -0.159411
C83   C     C_R   0.689744 0.690419 0.038736 -0.183860
C84   C     C_R   0.307010 0.307356 0.971685 -0.167425
H1    H     H_    0.732355 0.023696 0.732515 0.192696
H2    H     H_    0.271601 0.960174 0.271303 0.211862
H3    H     H_    0.032890 0.729533 0.730092 0.195422
H4    H     H_    0.967941 0.270118 0.269667 0.200646
H5    H     H_    0.732123 0.732455 0.023714 0.195981
H6    H     H_    0.271295 0.271149 0.961873 0.213652
C85   C     C_R   0.586904 0.056380 0.583566 -0.013812
C86   C     C_R   0.399790 0.999199 0.399541 0.000158
C87   C     C_R   0.040510 0.587733 0.588169 -0.015981
C88   C     C_R   0.954026 0.413014 0.413513 -0.015198
C89   C     C_R   0.584727 0.586621 0.055370 -0.017039
C90   C     C_R   0.399222 0.400150 0.999644 -0.013475
N1    N     N_R   0.406675 0.157828 0.757309 0.162816
O25   O     O_R   0.326477 0.155726 0.809197 -0.232764
O26   O     O_R   0.444270 0.211438 0.760537 -0.325130
N2    N     N_R   0.589706 0.862927 0.256951 0.153287
O27   O     O_R   0.555887 0.799908 0.268137 -0.298513
O28   O     O_R   0.667007 0.866781 0.198719 -0.212884
N3    N     N_R   0.133056 0.758164 0.397026 0.170081
O29   O     O_R   0.119521 0.819038 0.323307 -0.226787
O30   O     O_R   0.198707 0.751380 0.425025 -0.313907
N4    N     N_R   0.862712 0.240506 0.603169 0.150267
O31   O     O_R   0.798417 0.245363 0.574317 -0.319848
O32   O     O_R   0.876222 0.180338 0.677244 -0.239843
N5    N     N_R   0.758305 0.405246 0.154798 0.159746
O33   O     O_R   0.811466 0.326163 0.149773 -0.234193
O34   O     O_R   0.758589 0.439878 0.212689 -0.294054
N6    N     N_R   0.255488 0.590558 0.865896 0.157878
O35   O     O_R   0.267063 0.557224 0.801933 -0.302410
O36   O     O_R   0.196535 0.667166 0.870983 -0.251158
N7    N     N_R   0.174194 0.128907 0.496300 0.139722
O37   O     O_R   0.157865 0.176934 0.419217 -0.405315
O38   O     O_R   0.121237 0.153363 0.568422 -0.241365
N8    N     N_R   0.764017 0.135057 0.394899 0.173389
O39   O     O_R   0.755923 0.201854 0.422054 -0.291177
O40   O     O_R   0.827116 0.119753 0.322921 -0.229984
N9    N     N_R   0.497039 0.175366 0.128615 0.135378
O41   O     O_R   0.420369 0.159493 0.177591 -0.408347
O42   O     O_R   0.568700 0.123134 0.153539 -0.245144
N10   N     N_R   0.397532 0.762854 0.138037 0.166583
O43   O     O_R   0.425884 0.755491 0.203956 -0.297207
O44   O     O_R   0.325081 0.825149 0.124083 -0.235232
N11   N     N_R   0.864171 0.602428 0.240562 0.168453
O45   O     O_R   0.878598 0.674766 0.178050 -0.231675
O46   O     O_R   0.796715 0.576097 0.249687 -0.279360
N12   N     N_R   0.133163 0.397886 0.758284 0.175205
O47   O     O_R   0.200207 0.425549 0.747950 -0.283537
O48   O     O_R   0.119822 0.325703 0.821701 -0.230536
Cl1   Cl    Cl    0.307495 0.204880 0.623516 -0.360961
Cl2   Cl    Cl    0.697465 0.877663 0.355768 -0.392195
Cl3   Cl    Cl    0.106158 0.669345 0.286863 -0.375145
Cl4   Cl    Cl    0.879394 0.335472 0.714424 -0.424928
Cl5   Cl    Cl    0.627340 0.305128 0.200251 -0.369973
Cl6   Cl    Cl    0.349062 0.700319 0.884910 -0.432314
Cl7   Cl    Cl    0.249003 0.033698 0.672092 -0.384872
Cl8   Cl    Cl    0.696172 0.082270 0.283159 -0.303695
Cl9   Cl    Cl    0.672440 0.250138 0.026783 -0.380677
Cl10  Cl    Cl    0.284747 0.688784 0.094949 -0.361509
Cl11  Cl    Cl    0.896429 0.713432 0.324158 -0.363409
Cl12  Cl    Cl    0.086813 0.286985 0.685810 -0.309102

loop_
_geom_bond_atom_site_label_1
_geom_bond_atom_site_label_2
_geom_bond_distance
_ccdc_geom_bond_type
C65   C88   1.409006 A    
C13   C43   1.414401 A    
C57   C87   1.413542 A    
C25   C85   1.411863 A    
N11   O45   1.301750 A    
C68   C80   1.391903 A    
C23   C65   1.424106 A    
C71   C83   1.400679 A    
C77   C82   1.401379 A    
C50   Cl8   1.772840 S    
C58   C88   1.412453 A    
C1    O13   1.277425 A    
C8    C76   1.480498 S    
C24   C54   1.416057 A    
C25   C38   1.407014 A    
C7    C75   1.477403 S    
C59   C89   1.413727 A    
O10   C4    1.306706 A    
C4    O16   1.281190 A    
O11   C1    1.302784 A    
C6    O18   1.283792 A    
C73   C80   1.391497 A    
C6    C68   1.486367 S    
C15   C57   1.422921 A    
O9    Cu4   1.955596 S    
N8    O40   1.301598 A    
O10   Cu3   1.955596 S    
C74   C79   1.400362 A    
O11   Cu2   1.954332 S    
C14   C56   1.419271 A    
C28   C41   1.409898 A    
C3    O15   1.286924 A    
C10   O22   1.282173 A    
C31   C50   1.417568 A    
C22   N10   1.442079 S    
Cu3   Cu4   2.656535 S    
C11   C73   1.475474 S    
Cu6   O19   1.958285 S    
C18   C48   1.415821 A    
C31   C37   1.419094 A    
C63   C90   1.410573 A    
C60   C72   1.436770 A    
O4    C10   1.301528 A    
C83   H5    1.083322 S    
C9    O21   1.283237 A    
C61   C86   1.410785 A    
C56   C86   1.418649 A    
N9    O41   1.301338 A    
C30   C36   1.426237 A    
C46   Cl4   1.774672 S    
C15   C45   1.416670 A    
C21   C51   1.393820 A    
C57   C69   1.435300 A    
Cu4   O16   1.959307 S    
C34   C42   1.424255 A    
C66   C78   1.429875 A    
O2    Cu2   1.955496 S    
C21   N9    1.439639 S    
N11   O46   1.300861 A    
C51   Cl9   1.771210 S    
C18   C60   1.421153 A    
Cu1   Cu2   2.643189 S    
C40   C47   1.419692 A    
C17   C59   1.420745 A    
C39   C48   1.418953 A    
C19   C61   1.414578 A    
C42   C45   1.418440 A    
C54   Cl12  1.772138 S    
C16   C46   1.417547 A    
Cu1   O24   1.958223 S    
N7    O38   1.300807 A    
N7    O37   1.301538 A    
C16   C58   1.423744 A    
C28   C34   1.412282 A    
O6    Cu6   1.954049 S    
C52   Cl10  1.772462 S    
C44   Cl2   1.771734 S    
C76   C83   1.402913 A    
C18   N6    1.439863 S    
C13   C55   1.419364 A    
C32   C49   1.410704 A    
C14   C44   1.412989 A    
N8    O39   1.301573 A    
N4    O32   1.301647 A    
C13   N1    1.438674 S    
C1    C69   1.493379 S    
C8    O20   1.283786 A    
C29   C40   1.406456 A    
C38   C43   1.419719 A    
C16   N4    1.439749 S    
C19   C49   1.395699 A    
C26   C86   1.421485 A    
O4    Cu4   1.943268 S    
C14   N2    1.439850 S    
N2    O28   1.301628 A    
N1    O26   1.301597 A    
C34   C53   1.416614 A    
C72   C84   1.393058 A    
C22   C64   1.425268 A    
C27   C87   1.417098 A    
C67   C79   1.399359 A    
C75   C84   1.393167 A    
C62   C74   1.427314 A    
C2    C70   1.492841 S    
C9    C77   1.486328 S    
O7    Cu6   1.942885 S    
C69   C81   1.398632 A    
O12   C2    1.301540 A    
O1    C11   1.291729 A    
Cu5   Cu6   2.658996 S    
C60   C90   1.419956 A    
C19   N7    1.440013 S    
C45   Cl3   1.772574 S    
C37   C44   1.417188 A    
O5    Cu5   1.954049 S    
C22   C52   1.414953 A    
N10   O43   1.301487 A    
C58   C70   1.434163 A    
C65   C77   1.429695 A    
C21   C63   1.414035 A    
Cu2   O23   1.958223 S    
O5    C7    1.295704 A    
C20   C62   1.424647 A    
C23   N11   1.440453 S    
C5    C67   1.489640 S    
C33   C41   1.426745 A    
C70   C82   1.399766 A    
C5    O17   1.288302 A    
C53   Cl11  1.772676 S    
N3    O29   1.301725 A    
C26   C32   1.425445 A    
O1    Cu1   1.955497 S    
O2    C12   1.295437 A    
C17   C47   1.414450 A    
C12   C74   1.477709 S    
N1    O25   1.301555 A    
C80   H2    1.083769 S    
O3    Cu3   1.943267 S    
C2    O14   1.279001 A    
C64   C89   1.405903 A    
C20   N8    1.442501 S    
C35   C39   1.420634 A    
C64   C76   1.426640 A    
C66   C87   1.407262 A    
C59   C71   1.430451 A    
N6    O35   1.301535 A    
N10   O44   1.301660 A    
Cu1   O13   1.957771 S    
N12   O48   1.301706 A    
C27   C33   1.416043 A    
C61   C73   1.424599 A    
C28   C88   1.416521 A    
C20   C50   1.414842 A    
N5    O33   1.301583 A    
O6    C8    1.298901 A    
C32   C38   1.427938 A    
C15   N3    1.440730 S    
C47   Cl5   1.771297 S    
C26   C37   1.409983 A    
C36   C40   1.428154 A    
C48   Cl6   1.774956 S    
O8    Cu5   1.942884 S    
C4    C72   1.491157 S    
C78   C81   1.400305 A    
C23   C53   1.414704 A    
C33   C54   1.419418 A    
C81   H3    1.083319 S    
C55   C85   1.411746 A    
C49   Cl7   1.771481 S    
C30   C90   1.423180 A    
N2    O27   1.301385 A    
C3    C71   1.494492 S    
C63   C75   1.423720 A    
C29   C89   1.413857 A    
N12   O47   1.301595 A    
C36   C51   1.409368 A    
C82   H4    1.083312 S    
N5    O34   1.300704 A    
O9    C3    1.301989 A    
C35   C52   1.415682 A    
C41   C46   1.418087 A    
C30   C39   1.409239 A    
C10   C78   1.484766 S    
O7    C5    1.299430 A    
C25   C31   1.410240 A    
O3    C9    1.301348 A    
O8    C6    1.303897 A    
N6    O36   1.301633 A    
Cu5   O20   1.958285 S    
N9    O42   1.300969 A    
C27   C42   1.410719 A    
C56   C68   1.431794 A    
C84   H6    1.083695 S    
Cu3   O22   1.949132 S    
C55   C67   1.426706 A    
C79   H1    1.083376 S    
Cu4   O21   1.949131 S    
C24   N12   1.442348 S    
Cu2   O14   1.957770 S    
O12   Cu1   1.954332 S    
C43   Cl1   1.769501 S    
C17   N5    1.437375 S    
N3    O30   1.301642 A    
C11   O23   1.278646 A    
C12   O24   1.276507 A    
Cu5   O17   1.948557 S    
C62   C85   1.405288 A    
Cu6   O18   1.948555 S    
C24   C66   1.423068 A    
Cu3   O15   1.959308 S    
C29   C35   1.410877 A    
N4    O31   1.301552 A    
C7    O19   1.284776 A    
