data_mof_unit_32072.cif
_audit_creation_date              2013-03-05T15:43:50-0500
_audit_creation_method            fapswitch 2.2
_symmetry_space_group_name_H-M    P1
_symmetry_Int_Tables_number       1
_space_group_crystal_system       triclinic
_cell_length_a                    10.035526
_cell_length_b                    10.664627
_cell_length_c                    15.253827
_cell_angle_alpha                 89.519513
_cell_angle_beta                  68.330242
_cell_angle_gamma                 88.342782
_cell_volume                      1516.52806588

loop_
_atom_site_label
_atom_site_type_symbol
_atom_site_description
_atom_site_fract_x
_atom_site_fract_y
_atom_site_fract_z
_atom_type_partial_charge
O1    O     O_R   0.386950 0.680940 0.500010 -0.551400
O2    O     O_R   0.613110 0.680900 0.499990 -0.629295
C1    C     C_R   0.493552 0.737685 0.507582 0.858672
O3    O     O_R   0.322330 0.500030 0.632270 -0.607965
O4    O     O_R   0.548480 0.499990 0.632240 -0.584030
C2    C     C_R   0.410785 0.497239 0.676622 0.890251
Zn1   Zn    Zn3+2 0.349000 0.500030 0.500020 1.025194
Zn2   Zn    Zn3+2 0.651000 0.499970 0.499980 1.012474
O5    O     O_R   0.386890 0.319100 0.500010 -0.592163
O6    O     O_R   0.613050 0.319060 0.499990 -0.579076
O7    O     O_R   0.451520 0.500010 0.367760 -0.612712
O8    O     O_R   0.677670 0.499970 0.367730 -0.608116
C3    C     C_R   0.501217 0.262296 0.501832 0.966954
C4    C     C_R   0.589641 0.499657 0.323466 0.889740
C5    C     C_R   0.361027 0.466971 0.777063 -0.058791
C6    C     C_R   0.647733 0.492846 0.220637 -0.124550
C7    C     C_R   0.214607 0.343236 0.909552 -0.013538
C8    C     C_R   0.238748 0.396699 0.821182 -0.061268
C9    C     C_R   0.457155 0.483392 0.821954 -0.131498
C10   C     C_R   0.447286 0.413927 0.901908 0.078014
C11   C     C_R   0.319668 0.349476 0.950486 -0.034640
C12   C     C_R   0.559410 0.414243 0.936749 -0.125034
C13   C     C_R   0.527319 0.383732 0.031727 -0.123582
C14   C     C_R   0.405483 0.308626 0.078241 0.373089
C15   C     C_R   0.301683 0.292691 0.037767 0.288572
C16   C     C_R   0.702711 0.444378 0.879911 0.331034
C17   C     C_R   0.797559 0.482172 0.922855 0.446404
C18   C     C_R   0.751004 0.484743 0.022323 -0.087494
C19   C     C_R   0.615477 0.433302 0.076609 0.006811
C20   C     C_R   0.835593 0.535821 0.070061 0.360089
C21   C     C_R   0.784964 0.534055 0.168534 -0.231058
C22   C     C_R   0.563334 0.445890 0.174782 -0.195598
H1    H     H_    0.454081 0.422753 0.216758 0.204678
H2    H     H_    0.849311 0.573328 0.204512 0.197322
H3    H     H_    0.115837 0.294385 0.943632 0.183916
H4    H     H_    0.165260 0.379094 0.785943 0.182953
H5    H     H_    0.545456 0.545695 0.790367 0.192135
C23   C     C_2   0.568457 0.064944 0.556326 0.386369
C24   C     C_2   0.507347 0.129227 0.503875 -0.380018
H6    H     H_    0.465126 0.082173 0.457146 0.159936
C25   C     C_2   0.578167 0.929504 0.546482 -0.317753
C26   C     C_2   0.468980 0.866320 0.539119 0.076092
H7    H     H_    0.681530 0.884159 0.535289 0.202516
C27   C     C_2   0.110008 0.434891 0.440939 -0.063897
N1    N     N_2   0.148330 0.498670 0.499030 -0.182554
H8    H     H_    0.191461 0.379609 0.386961 0.185256
H9    H     H_    0.070972 0.546351 0.553043 0.186552
C28   C     C_2   0.958417 0.430125 0.444063 -0.064376
N2    N     N_2   0.852680 0.498640 0.499000 -0.181119
H10   H     H_    0.937844 0.366197 0.395854 0.187251
H11   H     H_    0.872335 0.563406 0.541761 0.187476
N3    N     N_R   0.179691 0.217402 0.085723 0.230596
O9    O     O_R   0.152958 0.121388 0.043359 -0.340603
O10   O     O_R   0.105915 0.235138 0.175097 -0.333435
N4    N     N_R   0.966679 0.599181 0.021541 0.245378
O11   O     O_R   0.963547 0.701056 0.974677 -0.284939
O12   O     O_R   0.077770 0.575601 0.044234 -0.387356
N5    N     N_R   0.624334 0.123612 0.619864 0.238586
O13   O     O_R   0.731825 0.070869 0.635668 -0.339120
O14   O     O_R   0.551390 0.213687 0.675479 -0.398782
N6    N     N_R   0.324596 0.919440 0.571013 0.218219
O15   O     O_R   0.242038 0.899629 0.524099 -0.338809
O16   O     O_R   0.273017 0.982317 0.649769 -0.318709
O17   O     O_3   0.936261 0.514478 0.869009 -0.732471
H12   H     H_    0.948502 0.522830 0.801820 0.384060
O18   O     O_3   0.392724 0.237786 0.157008 -0.716639
H13   H     H_    0.490376 0.218022 0.156091 0.345157
O19   O     O_3   0.756622 0.427220 0.783186 -0.777894
H14   H     H_    0.701890 0.360736 0.767591 0.388539

loop_
_geom_bond_atom_site_label_1
_geom_bond_atom_site_label_2
_geom_bond_distance
_ccdc_geom_bond_type
O4    Zn2   1.896259 S    
C5    C9    1.389185 A    
C13   C14   1.430525 A    
C1    C26   1.441547 S    
Zn1   O5    1.955832 S    
C6    C22   1.387568 A    
C9    H5    1.082704 S    
C20   N4    1.434889 S    
C9    C10   1.394973 A    
C5    C8    1.398300 A    
C14   C15   1.407869 A    
C14   O18   1.381129 S    
Zn2   O8    1.934543 S    
C16   O19   1.382873 S    
O17   H12   0.989715 S    
N4    O11   1.301533 A    
C28   H10   1.084828 S    
C7    C8    1.398128 A    
N5    O13   1.301086 A    
C21   H2    1.083900 S    
O1    Zn1   1.977332 S    
C10   C11   1.415374 A    
C6    C21   1.393644 A    
Zn1   O7    1.896258 S    
C25   H7    1.086547 S    
C26   N6    1.446953 S    
C16   C17   1.408783 A    
C20   C21   1.396868 A    
O3    Zn1   1.934547 S    
O4    C2    1.296068 A    
C13   C19   1.418208 A    
C18   C20   1.427419 A    
C28   N2    1.292619 D    
O8    C4    1.295016 A    
O18   H13   0.991448 S    
C19   C22   1.398208 A    
O2    C1    1.294713 A    
N4    O12   1.301261 A    
C12   C16   1.422803 A    
N6    O15   1.301422 A    
Zn2   O6    1.977332 S    
O7    C4    1.298434 A    
C4    C6    1.459299 S    
C15   N3    1.436732 S    
C3    C24   1.419264 S    
C17   O17   1.381857 S    
C10   C12   1.410841 A    
N5    O14   1.301040 A    
Zn1   N1    2.019926 S    
C17   C18   1.413349 A    
C23   C24   1.347252 D    
N3    O9    1.301179 A    
C23   C25   1.450199 S    
O3    C2    1.299329 A    
C25   C26   1.342465 D    
N1    H9    1.025628 S    
C24   H6    1.086624 S    
N6    O16   1.301917 A    
O5    C3    1.291197 A    
C12   C13   1.400757 A    
C18   C19   1.428389 A    
C11   C15   1.409684 A    
C7    H3    1.081182 S    
N2    H11   1.025611 S    
C2    C5    1.461820 S    
C23   N5    1.441203 S    
C8    H4    1.081907 S    
Zn2   N2    2.018133 S    
C27   H8    1.084872 S    
O2    Zn2   1.955831 S    
C27   N1    1.293299 D    
C27   C28   1.506684 S    
C22   H1    1.080520 S    
N3    O10   1.301281 A    
O19   H14   0.991379 S    
O1    C1    1.286051 A    
O6    C3    1.281617 A    
C7    C11   1.413110 A    
