data_mof_unit_54063.cif
_audit_creation_date              2012-12-11T15:34:58-0500
_audit_creation_method            fapswitch 2.2
_symmetry_space_group_name_H-M    P1
_symmetry_Int_Tables_number       1
_space_group_crystal_system       triclinic
_cell_length_a                    30.547476
_cell_length_b                    7.25343
_cell_length_c                    25.945561
_cell_angle_alpha                 90.144353
_cell_angle_beta                  111.943507
_cell_angle_gamma                 90.041992
_cell_volume                      5332.34645623

loop_
_atom_site_label
_atom_site_type_symbol
_atom_type_description
_atom_site_fract_x
_atom_site_fract_y
_atom_site_fract_z
_atom_type_partial_charge
O1    O     O_R   0.295360 0.592990 0.320420 -0.531897
O2    O     O_R   0.704640 0.407010 0.679580 -0.534333
O3    O     O_R   0.204640 0.092990 0.179580 -0.534652
O4    O     O_R   0.795360 0.907010 0.820420 -0.534336
O5    O     O_R   0.294060 0.265620 0.213230 -0.539324
O6    O     O_R   0.705940 0.734380 0.786770 -0.519487
O7    O     O_R   0.205940 0.765620 0.286770 -0.512418
O8    O     O_R   0.794060 0.234380 0.713230 -0.543657
C1    C     C_R   0.304304 0.432283 0.200064 0.741793
C2    C     C_R   0.695572 0.567930 0.800173 0.723028
C3    C     C_R   0.195201 0.932454 0.299719 0.718295
C4    C     C_R   0.804660 0.067403 0.700065 0.718792
O9    O     O_R   0.300850 0.263360 0.322080 -0.536183
O10   O     O_R   0.699150 0.736640 0.677920 -0.531080
O11   O     O_R   0.199150 0.763360 0.177920 -0.536404
O12   O     O_R   0.800850 0.236640 0.822080 -0.537468
O13   O     O_R   0.211480 0.091820 0.289210 -0.542932
O14   O     O_R   0.788520 0.908180 0.710790 -0.510150
O15   O     O_R   0.288520 0.591820 0.210790 -0.537330
O16   O     O_R   0.711480 0.408180 0.789210 -0.547681
C5    C     C_R   0.313255 0.431799 0.343139 0.700416
C6    C     C_R   0.686728 0.568154 0.656875 0.690029
C7    C     C_R   0.186632 0.931224 0.156900 0.674898
C8    C     C_R   0.813218 0.068801 0.843244 0.668163
O17   O     O_3   0.220670 0.426670 0.239090 -0.371150
O18   O     O_3   0.779330 0.573330 0.760910 -0.367187
O19   O     O_3   0.279330 0.926670 0.260910 -0.379815
O20   O     O_3   0.720670 0.073330 0.739090 -0.375188
V1    V     V_3+5 0.255440 0.152290 0.252020 1.421035
V2    V     V_3+5 0.744560 0.847710 0.747980 1.454783
V3    V     V_3+5 0.244560 0.652290 0.247980 1.443935
V4    V     V_3+5 0.755440 0.347710 0.752020 1.411033
C9    C     C_R   0.850128 0.064621 0.899596 -0.034751
C10   C     C_R   0.149529 0.935179 0.100741 -0.036397
C11   C     C_R   0.649785 0.560950 0.600681 -0.039227
C12   C     C_R   0.350171 0.438788 0.399352 -0.038505
C13   C     C_R   0.873653 0.129740 0.997700 -0.155670
C14   C     C_R   0.125735 0.868017 0.002767 -0.158782
C15   C     C_R   0.627496 0.596171 0.501566 -0.153971
C16   C     C_R   0.372332 0.405721 0.498518 -0.151685
C17   C     C_R   0.838834 0.120625 0.944610 -0.162057
C18   C     C_R   0.160669 0.878431 0.055696 -0.164256
C19   C     C_R   0.661954 0.596700 0.554936 -0.161912
C20   C     C_R   0.337851 0.406114 0.445151 -0.163170
C21   C     C_R   0.897041 0.018457 0.908102 -0.211467
C22   C     C_R   0.102615 0.980879 0.092497 -0.217897
C23   C     C_R   0.602408 0.525556 0.592742 -0.209054
C24   C     C_R   0.397687 0.470280 0.407252 -0.220705
C25   C     C_R   0.933591 0.029617 0.961869 0.086755
C26   C     C_R   0.065906 0.968020 0.038829 0.087598
C27   C     C_R   0.566250 0.526875 0.538579 0.085255
C28   C     C_R   0.433793 0.469792 0.461429 0.083234
C29   C     C_R   0.920712 0.086155 0.006671 0.132841
C30   C     C_R   0.078696 0.910903 0.993984 0.135115
C31   C     C_R   0.580024 0.562235 0.492988 0.135434
C32   C     C_R   0.419924 0.436662 0.507055 0.136139
C33   C     C_R   0.982329 0.989468 0.972687 0.057524
C34   C     C_R   0.017125 0.007316 0.028073 0.056415
C35   C     C_R   0.517124 0.495976 0.527986 0.058955
C36   C     C_R   0.482940 0.499937 0.472005 0.060099
C37   C     C_R   0.001929 0.063097 0.070810 -0.186880
C38   C     C_R   0.997451 0.932467 0.929995 -0.185017
C39   C     C_R   0.499042 0.534228 0.428541 -0.191572
C40   C     C_R   0.500997 0.462218 0.571462 -0.185356
C41   C     C_R   0.954821 0.101152 0.060200 -0.193332
C42   C     C_R   0.044526 0.894533 0.940560 -0.193618
C43   C     C_R   0.546446 0.564774 0.438963 -0.195233
C44   C     C_R   0.453517 0.433503 0.561068 -0.196068
H1    H     H_    0.945004 0.144165 0.094468 0.132975
H2    H     H_    0.054277 0.850664 0.906315 0.131930
H3    H     H_    0.556946 0.591360 0.404099 0.127695
H4    H     H_    0.442959 0.408131 0.595950 0.128849
H5    H     H_    0.095999 0.021372 0.128893 0.091001
H6    H     H_    0.903860 0.979450 0.871820 0.087504
H7    H     H_    0.405126 0.491628 0.370316 0.119993
H8    H     H_    0.595127 0.500049 0.629640 0.095935
H9    H     H_    0.196559 0.840839 0.061647 0.113295
H10   H     H_    0.802933 0.158531 0.938523 0.106163
H11   H     H_    0.301399 0.380246 0.439511 0.111333
H12   H     H_    0.698298 0.625182 0.560610 0.114841
H13   H     H_    0.863837 0.173628 0.031875 0.121523
H14   H     H_    0.135455 0.823613 0.968565 0.120938
H15   H     H_    0.637983 0.623808 0.466769 0.123012
H16   H     H_    0.361755 0.380022 0.533350 0.122595
H17   H     H_    0.025675 0.079235 0.113338 0.126468
H18   H     H_    0.973681 0.914774 0.887542 0.125020
H19   H     H_    0.475810 0.539124 0.385567 0.125854
H20   H     H_    0.524249 0.457241 0.614455 0.124956
C45   C     C_R   0.091921 0.979793 0.479117 0.573348
C46   C     C_R   0.906837 0.048540 0.518692 0.572663
C47   C     C_R   0.430539 0.315890 0.045952 0.578875
C48   C     C_R   0.572032 0.663970 0.957937 0.580796
N1    N     N_R   0.072121 0.983213 0.422145 -0.550525
N2    N     N_R   0.926624 0.042996 0.575651 -0.550797
N3    N     N_R   0.427580 0.463251 0.077970 -0.552712
N4    N     N_R   0.573745 0.519073 0.924527 -0.551102
C49   C     C_R   0.024210 0.999471 0.394829 0.570214
C50   C     C_R   0.974582 0.028389 0.602928 0.571363
C51   C     C_R   0.453213 0.621158 0.080220 0.587476
C52   C     C_R   0.547285 0.362907 0.921039 0.580549
C53   C     C_R   0.994264 0.012705 0.424860 -0.028091
C54   C     C_R   0.004540 0.017199 0.572896 -0.028340
C55   C     C_R   0.483544 0.633717 0.050638 -0.031914
C56   C     C_R   0.517816 0.348356 0.951690 -0.027024
C57   C     C_R   0.014126 0.009189 0.483347 -0.016483
C58   C     C_R   0.984685 0.021677 0.514421 -0.016650
C59   C     C_R   0.486106 0.485005 0.016934 -0.016502
C60   C     C_R   0.515654 0.496288 0.985907 -0.016738
C61   C     C_R   0.063356 0.992807 0.510837 -0.029394
C62   C     C_R   0.935451 0.038080 0.486951 -0.029361
C63   C     C_R   0.459129 0.325212 0.014102 -0.036207
C64   C     C_R   0.542948 0.655553 0.989156 -0.035065
C65   C     C_R   0.945076 0.029592 0.397886 -0.144767
C66   C     C_R   0.053743 0.001204 0.599884 -0.144342
C67   C     C_R   0.511154 0.791682 0.053766 -0.150008
C68   C     C_R   0.490325 0.190175 0.948730 -0.151103
C69   C     C_R   0.916035 0.042164 0.428547 -0.143016
C70   C     C_R   0.082789 0.989172 0.569237 -0.143253
C71   C     C_R   0.540628 0.802119 0.023610 -0.160636
C72   C     C_R   0.461429 0.178638 0.979612 -0.160913
O21   O     O_2   0.139078 0.962224 0.505038 -0.523925
O22   O     O_2   0.859585 0.061809 0.492774 -0.524023
O23   O     O_2   0.406333 0.159675 0.045284 -0.509076
O24   O     O_2   0.598715 0.815308 0.961424 -0.518609
O25   O     O_2   0.005602 0.004342 0.338803 -0.528427
O26   O     O_2   0.993289 0.025601 0.658971 -0.527283
O27   O     O_2   0.448988 0.767058 0.110379 -0.509973
O28   O     O_2   0.549034 0.222718 0.887587 -0.527675
H21   H     H_    0.928822 0.032906 0.352969 0.168103
H22   H     H_    0.069995 0.997547 0.644798 0.168157
H23   H     H_    0.510063 0.908093 0.079487 0.176015
H24   H     H_    0.491197 0.074220 0.922743 0.172182
H25   H     H_    0.878307 0.054665 0.406297 0.169289
H26   H     H_    0.120518 0.976719 0.591492 0.169146
H27   H     H_    0.561352 0.926082 0.027135 0.173687
H28   H     H_    0.440875 0.054340 0.976309 0.174721
C73   C     C_R   0.893154 0.895018 0.638255 -0.166020
C74   C     C_R   0.100093 0.814479 0.357496 -0.164695
C75   C     C_R   0.596324 0.669311 0.852469 -0.151287
C76   C     C_R   0.414635 0.488198 0.166773 -0.142737
H29   H     H_    0.913413 0.772531 0.638182 0.127244
H30   H     H_    0.075384 0.704923 0.355513 0.129985
H31   H     H_    0.567306 0.764794 0.844646 0.149440
H32   H     H_    0.451728 0.519812 0.188130 0.136138
C77   C     C_R   0.864455 0.898501 0.669848 0.245283
C78   C     C_R   0.129163 0.800127 0.326455 0.244379
C79   C     C_R   0.626075 0.685799 0.822323 0.227249
C80   C     C_R   0.384655 0.486647 0.196865 0.239691
C81   C     C_R   0.837538 0.058630 0.669599 -0.080936
C82   C     C_R   0.161931 0.942999 0.329579 -0.081399
C83   C     C_R   0.663522 0.559034 0.831557 -0.076589
C84   C     C_R   0.336556 0.440946 0.169617 -0.060519
C85   C     C_R   0.841466 0.212308 0.638461 -0.270900
C86   C     C_R   0.163214 0.099163 0.362559 -0.264925
C87   C     C_R   0.670347 0.420044 0.871568 -0.288867
C88   C     C_R   0.319069 0.402280 0.112488 -0.275560
H33   H     H_    0.821300 0.336227 0.637014 0.149179
H34   H     H_    0.187623 0.211065 0.365853 0.151759
H35   H     H_    0.698941 0.322225 0.879963 0.139563
H36   H     H_    0.282154 0.367984 0.090931 0.130339
C89   C     C_R   0.870636 0.207453 0.607824 -0.100001
C90   C     C_R   0.133730 0.112341 0.392598 -0.106195
C91   C     C_R   0.641015 0.406898 0.901897 -0.104183
C92   C     C_R   0.348749 0.410585 0.082472 -0.072156
H37   H     H_    0.873017 0.327494 0.584270 0.133893
H38   H     H_    0.135522 0.233672 0.417719 0.135215
H39   H     H_    0.647450 0.299933 0.932891 0.153739
H40   H     H_    0.334114 0.384821 0.038143 0.143005
C93   C     C_R   0.896543 0.048680 0.607353 0.351700
C94   C     C_R   0.102178 0.969910 0.390553 0.350622
C95   C     C_R   0.603775 0.531404 0.892691 0.335390
C96   C     C_R   0.396922 0.452908 0.109253 0.333711
N5    N     N_2   0.863525 0.741146 0.702111 -0.499386
H41   H     H_    0.868818 0.618134 0.685273 0.246740
C97   C     C_3   0.893262 0.757274 0.760290 -0.485125
H42   H     H_    0.888075 0.634990 0.783053 0.194300
H43   H     H_    0.883962 0.882322 0.778677 0.171644
H44   H     H_    0.930990 0.764814 0.765327 0.186492
N6    N     N_2   0.124628 0.642922 0.291851 -0.504250
H45   H     H_    0.114723 0.524471 0.306642 0.252117
C98   C     C_3   0.096381 0.673804 0.233789 -0.484551
H46   H     H_    0.096949 0.548353 0.209429 0.191343
H47   H     H_    0.110681 0.790543 0.217232 0.174836
H48   H     H_    0.059261 0.703953 0.228424 0.190581
N7    N     N_2   0.616756 0.824910 0.781112 -0.527469
H49   H     H_    0.581974 0.826364 0.754071 0.247084
C99   C     C_3   0.632822 0.006660 0.803230 -0.441617
H50   H     H_    0.627625 0.103999 0.768480 0.187238
H51   H     H_    0.670987 0.004180 0.829826 0.196703
H52   H     H_    0.612439 0.057030 0.828068 0.209717
N8    N     N_2   0.403141 0.529414 0.254557 -0.553064
H53   H     H_    0.435676 0.470451 0.275527 0.249855
C100  C     C_3   0.403329 0.724548 0.266379 -0.525164
H54   H     H_    0.415586 0.746578 0.311942 0.183311
H55   H     H_    0.367291 0.782891 0.246927 0.225897
H56   H     H_    0.427557 0.798874 0.250517 0.205378

loop_
_geom_bond_atom_site_label_1
_geom_bond_atom_site_label_2
_ccdc_geom_bond_type
C66   H22   S    
O17   V3    S    
C51   C55   A    
C25   C29   A    
C1    C84   S    
O1    C5    A    
O19   V1    S    
C9    C21   A    
C16   H16   S    
O3    C7    A    
C10   C18   A    
C52   C56   A    
O4    V2    S    
C11   C23   A    
C76   C80   A    
N7    H49   S    
C25   C33   A    
C33   C38   A    
C97   H43   S    
C5    C12   S    
C67   H23   S    
C98   H46   S    
C79   N7    S    
O7    C3    A    
C6    C11   S    
C38   H18   S    
C75   C79   A    
C35   C40   A    
C26   C30   A    
C65   H21   S    
C36   C39   A    
C40   C44   A    
C73   C77   A    
C74   C78   A    
C23   H8    S    
C14   C18   A    
C48   O24   S    
N2    C93   S    
C58   C62   A    
O4    C8    A    
C99   H51   S    
N3    C51   A    
N7    C99   S    
C43   H3    S    
C74   C94   A    
N2    C50   A    
C45   C61   A    
O1    V3    S    
O13   V1    S    
O2    V4    S    
C47   C63   A    
O3    V1    S    
C81   C85   A    
C99   H52   S    
C57   C61   A    
C28   C36   A    
C69   H25   S    
C90   H38   S    
C75   H31   S    
C1    O15   A    
C15   C31   A    
C84   C88   A    
C2    O16   A    
C16   C32   A    
N4    C95   S    
C68   H24   S    
O2    C6    A    
C59   C60   A    
C50   O26   S    
C75   C95   A    
C10   C22   A    
C83   C87   A    
C11   C19   A    
N3    C96   S    
C73   C93   A    
C70   H26   S    
C44   H4    S    
C13   C29   A    
C7    C10   S    
C80   N8    S    
O11   C7    A    
O15   V3    S    
C35   C36   A    
O12   C8    A    
C78   C82   A    
C14   H14   S    
C13   C17   A    
C46   O22   S    
C24   H7    S    
C13   H13   S    
O10   V2    S    
C62   C69   A    
C61   C70   A    
C46   N2    A    
C97   H44   S    
O5    V1    S    
C98   H47   S    
C48   N4    A    
C53   C57   A    
C39   C43   A    
N1    C94   S    
O7    V3    S    
C38   C42   A    
C87   H35   S    
N8    H53   S    
C26   C34   A    
C76   H32   S    
C88   H36   S    
C49   O25   S    
C74   H30   S    
C17   H10   S    
O18   V4    S    
C48   C64   A    
C15   C19   A    
C91   C95   A    
C87   C91   A    
C19   H12   S    
C32   C44   A    
C47   N3    A    
C45   N1    A    
C71   H27   S    
C68   C72   A    
C85   C89   A    
C21   H6    S    
C72   H28   S    
O8    V4    S    
C55   C67   A    
N8    C100  S    
O5    C1    A    
C54   C66   A    
C37   C41   A    
C2    C83   S    
C3    C82   S    
C31   C43   A    
C97   H42   S    
C90   C94   A    
C24   C28   A    
C91   H39   S    
O8    C4    A    
C100  H56   S    
C100  H55   S    
C21   C25   A    
O9    C5    A    
C66   C70   A    
N5    C97   S    
C37   H17   S    
C51   O27   S    
C92   H40   S    
O6    V2    S    
C77   N5    S    
C67   C71   A    
O14   V2    S    
C65   C69   A    
C92   C96   A    
C27   C35   A    
C46   C62   A    
N1    C49   A    
C56   C60   A    
C29   C41   A    
C55   C59   A    
O16   V4    S    
C98   H48   S    
O9    V1    S    
C73   H29   S    
C3    O13   A    
C39   H19   S    
C52   O28   S    
C59   C63   A    
C4    C81   S    
C86   C90   A    
C20   H11   S    
C80   C84   A    
O6    C2    A    
C64   C71   A    
C23   C27   A    
O11   V3    S    
C30   C42   A    
O12   V4    S    
C57   C58   A    
C22   C26   A    
C8    C9    S    
C14   C30   A    
C9    C17   A    
C56   C68   A    
O10   C6    A    
O20   V2    S    
C89   C93   A    
C99   H50   S    
C50   C54   A    
C33   C34   A    
C42   H2    S    
C45   O21   S    
C34   C37   A    
C41   H1    S    
C79   C83   A    
N4    C52   A    
C78   N6    S    
C12   C24   A    
C27   C31   A    
C85   H33   S    
C53   C65   A    
C89   H37   S    
C15   H15   S    
C12   C20   A    
N5    H41   S    
N6    H45   S    
C60   C64   A    
C16   C20   A    
C88   C92   A    
C18   H9    S    
C76   C96   A    
C100  H54   S    
C82   C86   A    
C54   C58   A    
C4    O14   A    
C86   H34   S    
C77   C81   A    
C63   C72   A    
C47   O23   S    
C40   H20   S    
C22   H5    S    
C49   C53   A    
C28   C32   A    
N6    C98   S    
