data_mof_unit_21830.cif
_audit_creation_date              2012-10-26T21:18:00-0400
_audit_creation_method            fapswitch 2.2
_symmetry_space_group_name_H-M    P1
_symmetry_Int_Tables_number       1
_space_group_crystal_system       triclinic
_cell_length_a                    14.684668
_cell_length_b                    14.548539
_cell_length_c                    27.803184
_cell_angle_alpha                 76.916462
_cell_angle_beta                  102.624944
_cell_angle_gamma                 114.500364
_cell_volume                      5212.38132013

loop_
_atom_site_label
_atom_site_type_symbol
_atom_type_description
_atom_site_fract_x
_atom_site_fract_y
_atom_site_fract_z
_atom_type_partial_charge
C1    C     C_R   0.880696 0.311506 0.507364 0.546708
C2    C     C_R   0.985732 0.407933 0.136636 -0.010717
C3    C     C_R   0.998466 0.499950 0.645312 0.005414
C4    C     C_R   0.001444 0.499869 0.354699 0.004053
C5    C     C_R   0.977416 0.406431 0.033919 -0.023927
C6    C     C_R   0.022327 0.593042 0.966120 -0.023659
C7    C     C_R   0.012761 0.589859 0.016287 0.048907
C8    C     C_R   0.986966 0.409610 0.983748 0.048823
C9    C     C_R   0.997243 0.498498 0.050721 -0.000799
C10   C     C_R   0.002494 0.500976 0.949316 -0.000705
C11   C     C_R   0.945566 0.313793 0.067745 0.204988
C12   C     C_R   0.119306 0.688494 0.492631 0.548781
C13   C     C_R   0.054188 0.685684 0.932300 0.204851
C14   C     C_R   0.969526 0.317095 0.119182 0.271549
C15   C     C_R   0.030240 0.682393 0.880863 0.269331
C16   C     C_R   0.999434 0.500053 0.592466 0.555165
C17   C     C_R   0.000544 0.499906 0.407536 0.555739
C18   C     C_R   0.991168 0.326270 0.968256 -0.070068
C19   C     C_R   0.008535 0.673194 0.031772 -0.070056
C20   C     C_R   0.814058 0.202321 0.508606 -0.017044
C21   C     C_R   0.185951 0.797681 0.491362 -0.015814
C22   C     C_R   0.779550 0.023912 0.509020 -0.089757
C23   C     C_R   0.003162 0.501170 0.898278 -0.080616
C24   C     C_R   0.220487 0.976107 0.490920 -0.090858
C25   C     C_R   0.848432 0.125158 0.507746 -0.018518
C26   C     C_R   0.151600 0.874858 0.492229 -0.017001
C27   C     C_R   0.710906 0.175930 0.508407 -0.117452
C28   C     C_R   0.289090 0.824064 0.491524 -0.117340
C29   C     C_R   0.639489 0.077266 0.502744 0.029614
C30   C     C_R   0.360523 0.922734 0.497160 0.030276
C31   C     C_R   0.676229 0.999411 0.507805 0.034416
C32   C     C_R   0.323795 0.000599 0.492101 0.034267
C33   C     C_R   0.533171 0.052628 0.495898 0.019029
C34   C     C_R   0.996579 0.498312 0.101758 -0.080889
C35   C     C_R   0.466840 0.947367 0.503987 0.019105
C36   C     C_R   0.510023 0.871638 0.519152 -0.023959
C37   C     C_R   0.489993 0.128359 0.480726 -0.023853
C38   C     C_R   0.611169 0.897534 0.515957 -0.106816
C39   C     C_R   0.388853 0.102472 0.483926 -0.108379
C40   C     C_R   0.984514 0.411053 0.830751 0.407204
C41   C     C_R   0.015215 0.588446 0.169276 0.407639
C42   C     C_R   0.724629 0.682636 0.423041 0.228742
C43   C     C_R   0.275752 0.317867 0.577304 0.192606
C44   C     C_R   0.801764 0.645577 0.433567 0.086847
C45   C     C_R   0.991651 0.410591 0.882225 0.026128
C46   C     C_R   0.198395 0.354658 0.566577 0.067297
C47   C     C_R   0.713027 0.507129 0.491312 0.046410
C48   C     C_R   0.286937 0.492826 0.508663 0.049558
C49   C     C_R   0.629335 0.537156 0.481384 -0.018722
C50   C     C_R   0.370682 0.462879 0.518643 -0.016338
C51   C     C_R   0.637337 0.628269 0.447241 0.020226
C52   C     C_R   0.362810 0.371937 0.552903 0.025890
C53   C     C_R   0.539687 0.481275 0.504924 0.039715
C54   C     C_R   0.460281 0.518702 0.495062 0.038656
C55   C     C_R   0.473477 0.611246 0.462277 -0.139347
C56   C     C_R   0.008071 0.588892 0.117804 0.025888
C57   C     C_R   0.526434 0.388671 0.537664 -0.139275
C58   C     C_R   0.558960 0.663748 0.438733 -0.088736
C59   C     C_R   0.441027 0.336265 0.561277 -0.089864
C60   C     C_R   0.016131 0.588998 0.813141 0.445164
C61   C     C_R   0.983663 0.410515 0.186903 0.445424
C62   C     C_R   0.073210 0.480290 0.732040 -0.040016
C63   C     C_R   0.077632 0.481179 0.290146 -0.043994
C64   C     C_R   0.073706 0.480530 0.681987 -0.125632
C65   C     C_R   0.077290 0.480871 0.340327 -0.133454
C66   C     C_R   0.922687 0.519055 0.659684 -0.131015
C67   C     C_R   0.990381 0.324275 0.918405 -0.006811
C68   C     C_R   0.926049 0.519008 0.318034 -0.120413
C69   C     C_R   0.922278 0.518608 0.709873 -0.042145
C70   C     C_R   0.926484 0.519119 0.267989 -0.038410
C71   C     C_R   0.997441 0.499050 0.746227 0.231490
C72   C     C_R   0.002335 0.500494 0.253802 0.230291
C73   C     C_1   0.047083 0.853980 0.493817 0.263133
C74   C     C_1   0.952976 0.146048 0.506212 0.262597
C75   C     C_1   0.459143 0.770588 0.545384 0.184091
C76   C     C_1   0.540883 0.229407 0.454494 0.183043
C77   C     C_1   0.992467 0.233171 0.906810 0.311209
C78   C     C_R   0.009316 0.675195 0.081620 -0.006935
C79   C     C_1   0.007205 0.766294 0.093208 0.311605
C80   C     C_R   0.014034 0.591559 0.863406 -0.011381
Cu1   Cu    Cu3+1 0.081740 0.475690 0.513040 0.978258
Cu2   Cu    Cu3+1 0.918260 0.524310 0.486960 0.982876
H1    H     H_    0.863747 0.534177 0.632240 0.141085
H2    H     H_    0.716152 0.443145 0.518931 0.130071
H3    H     H_    0.130683 0.313949 0.584040 0.160422
H4    H     H_    0.869463 0.686319 0.416088 0.185550
H5    H     H_    0.419062 0.646409 0.454043 0.100878
H6    H     H_    0.580756 0.353405 0.545820 0.101132
H7    H     H_    0.863507 0.533253 0.720589 0.155799
H8    H     H_    0.867642 0.533390 0.240142 0.154207
H9    H     H_    0.136342 0.465952 0.367763 0.140679
H10   H     H_    0.133161 0.465710 0.672074 0.147318
H11   H     H_    0.136466 0.466641 0.279427 0.155607
H12   H     H_    0.866524 0.533708 0.327950 0.157165
H13   H     H_    0.131950 0.465831 0.759893 0.151633
H14   H     H_    0.997925 0.262494 0.995327 0.180137
H15   H     H_    0.001765 0.736960 0.004697 0.180118
H16   H     H_    0.641481 0.838159 0.524632 0.132687
H17   H     H_    0.358545 0.161851 0.475248 0.131171
H18   H     H_    0.858390 0.907874 0.337518 0.396423
H19   H     H_    0.160855 0.204798 0.667451 0.349529
H20   H     H_    0.092899 0.190905 0.225865 0.378768
H21   H     H_    0.906818 0.808577 0.774199 0.382201
H22   H     H_    0.706586 0.094103 0.078561 0.391105
H23   H     H_    0.312164 0.767254 0.484830 0.132511
H24   H     H_    0.293159 0.905393 0.921498 0.391316
H25   H     H_    0.687805 0.232726 0.515095 0.132788
H26   H     H_    0.806655 0.963827 0.511325 0.155811
H27   H     H_    0.193397 0.036200 0.488622 0.153309
H28   H     H_    0.562533 0.733592 0.413902 0.201049
H29   H     H_    0.437322 0.266270 0.585997 0.199850
H30   H     H_    0.283721 0.556683 0.480974 0.128674
N1    N     N_R   0.997692 0.499309 0.797883 -0.408250
N2    N     N_1   0.005452 0.839352 0.102242 -0.146554
N3    N     N_R   0.002075 0.500205 0.202150 -0.408091
N4    N     N_R   0.795430 0.560780 0.467350 -0.270853
N5    N     N_R   0.204570 0.439220 0.532650 -0.261798
N6    N     N_1   0.963494 0.837756 0.495172 -0.243992
N7    N     N_1   0.036589 0.162289 0.504903 -0.242745
N8    N     N_1   0.419083 0.689916 0.566705 -0.273680
N9    N     N_1   0.580953 0.310078 0.433175 -0.272680
N10   N     N_1   0.994200 0.160109 0.897770 -0.147624
O1    O     O_R   0.977900 0.338120 0.517190 -0.497165
O2    O     O_2   0.035923 0.675233 0.186805 -0.455410
O3    O     O_2   0.958078 0.323858 0.220092 -0.387342
O4    O     O_2   0.041777 0.675674 0.779967 -0.381313
O5    O     O_2   0.658328 0.779715 0.337839 -0.246465
O6    O     O_2   0.741228 0.876952 0.407513 -0.290238
O7    O     O_3   0.853719 0.842373 0.359254 -0.517935
O8    O     O_2   0.257404 0.122933 0.593551 -0.244717
O9    O     O_2   0.344396 0.221164 0.662303 -0.256110
O10   O     O_3   0.148769 0.159565 0.642958 -0.475771
O11   O     O_2   0.898580 0.142061 0.182572 -0.163196
O12   O     O_R   0.022100 0.661880 0.482810 -0.497740
O13   O     O_2   0.016535 0.152116 0.129568 -0.208180
O14   O     O_3   0.089703 0.253519 0.203668 -0.492455
O15   O     O_2   0.983162 0.847324 0.870483 -0.209143
O16   O     O_2   0.101178 0.857458 0.817494 -0.152681
O17   O     O_3   0.910076 0.745960 0.796368 -0.491010
O18   O     O_2   0.786682 0.231752 0.998611 -0.260561
O19   O     O_2   0.876965 0.122468 0.044844 -0.219756
O20   O     O_3   0.760478 0.156193 0.090531 -0.444697
O21   O     O_2   0.122766 0.877004 0.955202 -0.220165
O22   O     O_2   0.213045 0.767724 0.001446 -0.260521
O23   O     O_R   0.839850 0.379180 0.495160 -0.499543
O24   O     O_3   0.239285 0.843290 0.909530 -0.444077
O25   O     O_R   0.160150 0.620820 0.504840 -0.499414
O26   O     O_R   0.069030 0.479490 0.580750 -0.501254
O27   O     O_R   0.930970 0.520510 0.419250 -0.498266
O28   O     O_R   0.930970 0.520550 0.558720 -0.504327
O29   O     O_R   0.069030 0.479450 0.441280 -0.504852
O30   O     O_2   0.963774 0.324266 0.813214 -0.457890
S1    S     S_3+6 0.742481 0.798299 0.380959 0.010667
S2    S     S_3+6 0.258576 0.202954 0.619951 0.026090
S3    S     S_3+6 0.991452 0.211348 0.158931 0.127372
S4    S     S_3+6 0.008297 0.788133 0.841119 0.131368
S5    S     S_3+6 0.841532 0.203627 0.048385 0.070949
S6    S     S_3+6 0.158211 0.795850 0.951668 0.070725

loop_
_geom_bond_atom_site_label_1
_geom_bond_atom_site_label_2
_ccdc_geom_bond_type
C30   C32   A    
C21   C26   A    
C63   C65   A    
C34   C56   A    
C23   C45   A    
C29   C33   A    
C14   S3    S    
C27   C29   A    
C18   H14   S    
C1    O23   A    
C35   C36   A    
C67   C77   S    
C38   H16   S    
O5    S1    D    
C24   C32   A    
Cu1   Cu2   S    
C19   H15   S    
O13   S3    D    
C47   C49   A    
C17   O29   A    
C3    C64   A    
C74   N7    T    
C72   N3    S    
C40   O30   S    
C50   C54   A    
C30   C35   A    
Cu1   O1    S    
C11   S5    S    
C76   N9    T    
C41   O2    S    
C52   C59   A    
C24   C26   A    
C5    C11   A    
C4    C65   A    
C8    C10   A    
C11   C14   A    
C44   H4    S    
C43   C52   A    
C57   C59   A    
C66   C69   A    
C20   C25   A    
Cu1   N5    S    
C26   C73   S    
C56   C78   A    
C71   N1    S    
C65   H9    S    
C25   C74   S    
C32   C39   A    
C69   C71   A    
C62   C64   A    
C77   N10   T    
C66   H1    S    
C39   H17   S    
C15   C80   A    
C49   C51   A    
C22   C25   A    
O11   S3    D    
C45   C67   A    
C50   C52   A    
C23   C80   A    
C43   S2    S    
C2    C61   A    
C42   C51   A    
C46   H3    S    
C2    C34   A    
C48   C50   A    
C12   O12   A    
C62   H13   S    
C60   N1    A    
C70   H8    S    
C42   C44   A    
O10   S2    S    
C41   N3    A    
C69   H7    S    
C6    C7    A    
C47   N4    A    
C37   C39   A    
C22   C31   A    
C75   N8    T    
Cu2   O27   S    
C42   S1    S    
C4    C68   A    
O14   S3    S    
C53   C57   A    
H18   O7    S    
Cu1   O25   S    
C18   C67   A    
C53   C54   A    
C12   C21   S    
C68   H12   S    
O15   S4    D    
Cu2   O12   S    
C19   C78   A    
C1    O1    A    
C41   C56   A    
C5    C9    A    
C36   C75   S    
H21   O17   S    
O18   S5    D    
C59   H29   S    
C40   N1    A    
C27   H25   S    
C28   H23   S    
Cu1   O26   S    
C8    C18   A    
O8    S2    D    
C51   C58   A    
C47   H2    S    
C63   C72   A    
C44   N4    A    
C15   S4    S    
Cu2   O28   S    
O6    S1    D    
C4    C17   S    
O19   S5    D    
C48   H30   S    
C21   C28   A    
C7    C19   A    
C13   C15   A    
C9    C34   A    
H22   O20   S    
C79   N2    T    
C3    C66   A    
C61   O3    S    
C64   H10   S    
O20   S5    S    
O22   S6    D    
C13   S6    S    
Cu2   O23   S    
C12   O25   A    
O21   S6    D    
C33   C37   A    
O16   S4    D    
C7    C9    A    
C54   C55   A    
C60   C80   A    
C1    C20   S    
C73   N6    T    
C58   H28   S    
C37   C76   S    
O9    S2    D    
C17   O27   A    
C24   H27   S    
C6    C10   A    
C5    C8    A    
C70   C72   A    
C31   C38   A    
C48   N5    A    
O24   S6    S    
C20   C27   A    
C10   C23   A    
C63   H11   S    
H24   O24   S    
C57   H6    S    
C16   O26   A    
C36   C38   A    
Cu2   N4    S    
C28   C30   A    
C29   C31   A    
C61   N3    A    
C6    C13   A    
O7    S1    S    
C78   C79   S    
O17   S4    S    
C22   H26   S    
C60   O4    S    
C33   C35   A    
C62   C71   A    
C55   H5    S    
C2    C14   A    
C43   C46   A    
H20   O14   S    
C49   C53   A    
H19   O10   S    
Cu1   O29   S    
C40   C45   A    
C46   N5    A    
C68   C70   A    
C55   C58   A    
C16   O28   A    
C3    C16   S    
