data_mof_unit_12460.cif
_audit_creation_date              2012-10-26T19:21:32-0400
_audit_creation_method            fapswitch 2.2
_symmetry_space_group_name_H-M    P1
_symmetry_Int_Tables_number       1
_space_group_crystal_system       triclinic
_cell_length_a                    9.803364
_cell_length_b                    11.041733
_cell_length_c                    15.775125
_cell_angle_alpha                 94.637239
_cell_angle_beta                  79.299158
_cell_angle_gamma                 111.26794
_cell_volume                      1563.45683734

loop_
_atom_site_label
_atom_site_type_symbol
_atom_type_description
_atom_site_fract_x
_atom_site_fract_y
_atom_site_fract_z
_atom_type_partial_charge
C1    C     C_R   0.556082 0.745429 0.506309 0.564370
C2    C     C_2   0.515159 0.069472 0.502745 -0.165615
C3    C     C_2   0.923911 0.491471 0.491654 -0.034980
C4    C     C_2   0.077519 0.510952 0.506820 -0.029526
C5    C     C_R   0.411044 0.484927 0.662811 0.546923
C6    C     C_R   0.587862 0.509865 0.337129 0.548702
C7    C     C_R   0.359319 0.478590 0.756315 -0.003537
C8    C     C_R   0.634712 0.493242 0.244544 -0.004547
C9    C     C_R   0.203599 0.520415 0.883407 -0.136131
C10   C     C_R   0.782288 0.417888 0.127477 -0.138652
C11   C     C_R   0.241657 0.518275 0.794027 -0.136325
C12   C     C_R   0.443830 0.254578 0.493892 0.559798
C13   C     C_R   0.751738 0.448334 0.214620 -0.136603
C14   C     C_R   0.436837 0.440421 0.808692 -0.137774
C15   C     C_R   0.548638 0.505604 0.186684 -0.127150
C16   C     C_R   0.416793 0.461207 0.898562 0.024514
C17   C     C_R   0.565201 0.458872 0.101423 0.020609
C18   C     C_R   0.289149 0.491399 0.935641 0.037694
C19   C     C_R   0.691631 0.426069 0.070552 0.029712
C20   C     C_R   0.513533 0.449187 0.953397 0.020140
C21   C     C_R   0.464591 0.451744 0.045176 0.024348
C22   C     C_3   0.223084 0.377596 0.161436 -0.253001
C23   C     C_R   0.315431 0.444545 0.077501 -0.009190
C24   C     C_3   0.224985 0.239812 0.166336 -0.286568
C25   C     C_3   0.130643 0.173380 0.249559 -0.453946
C26   C     C_3   0.746465 0.460518 0.832852 -0.259603
C27   C     C_3   0.745394 0.330894 0.788164 -0.308600
C28   C     C_3   0.807792 0.347888 0.692365 -0.440940
C29   C     C_R   0.656943 0.436979 0.923430 -0.003807
C30   C     C_R   0.239211 0.480624 0.023871 -0.126779
C31   C     C_R   0.732998 0.411514 0.982768 -0.124829
C32   C     C_2   0.587585 0.884563 0.510122 -0.132410
C33   C     C_2   0.412142 0.115470 0.490639 -0.131404
C34   C     C_2   0.483947 0.930573 0.499225 -0.163681
Cu1   Cu    Cu3+1 0.362980 0.479380 0.485080 0.917976
Cu2   Cu    Cu3+1 0.637020 0.520620 0.514920 0.910927
H1    H     H_    0.132825 0.489377 0.049948 0.094510
H2    H     H_    0.375171 0.865569 0.487409 0.156154
H3    H     H_    0.303923 0.050196 0.478244 0.101171
H4    H     H_    0.696202 0.949850 0.521887 0.099474
H5    H     H_    0.123257 0.579319 0.556622 0.141531
H6    H     H_    0.878782 0.424214 0.441203 0.144570
H7    H     H_    0.110952 0.384200 0.415733 0.193632
H8    H     H_    0.888179 0.614551 0.585070 0.199786
H9    H     H_    0.176997 0.227622 0.306304 0.165189
H10   H     H_    0.014169 0.168233 0.254392 0.145173
H11   H     H_    0.131040 0.073013 0.250100 0.147747
H12   H     H_    0.835918 0.394176 0.959891 0.101117
H13   H     H_    0.180954 0.180790 0.110321 0.164747
H14   H     H_    0.339929 0.242723 0.164071 0.177808
H15   H     H_    0.254327 0.434656 0.219991 0.145998
H16   H     H_    0.105008 0.367521 0.165041 0.126022
H17   H     H_    0.732591 0.374984 0.659527 0.197866
H18   H     H_    0.920348 0.424035 0.682430 0.150077
H19   H     H_    0.815550 0.254955 0.663614 0.143273
H20   H     H_    0.814005 0.291366 0.818378 0.162622
H21   H     H_    0.630906 0.257639 0.796247 0.162731
H22   H     H_    0.715772 0.522933 0.794240 0.151136
H23   H     H_    0.473214 0.556796 0.208143 0.119017
H24   H     H_    0.863914 0.520976 0.837215 0.127282
H25   H     H_    0.506908 0.389366 0.777336 0.126021
H26   H     H_    0.818912 0.436392 0.258359 0.116840
H27   H     H_    0.178894 0.546456 0.754637 0.113695
H28   H     H_    0.107649 0.545479 0.911860 0.098669
H29   H     H_    0.876334 0.387690 0.104599 0.094026
H30   H     H_    0.623557 0.134467 0.515197 0.151562
N1    N     N_2   0.842890 0.551600 0.537350 -0.364602
N2    N     N_2   0.157110 0.448400 0.462650 -0.353991
O1    O     O_R   0.426810 0.668300 0.492040 -0.494669
O2    O     O_R   0.573190 0.331700 0.507960 -0.504657
O3    O     O_R   0.658240 0.703130 0.517240 -0.483261
O4    O     O_R   0.341760 0.296870 0.482760 -0.490374
O5    O     O_R   0.319390 0.472820 0.610170 -0.494622
O6    O     O_R   0.680610 0.527180 0.389830 -0.492763
O7    O     O_R   0.550820 0.507640 0.635370 -0.503735
O8    O     O_R   0.449180 0.492360 0.364630 -0.496885

loop_
_geom_bond_atom_site_label_1
_geom_bond_atom_site_label_2
_ccdc_geom_bond_type
C3    H6    S    
C8    C13   A    
C9    H28   S    
Cu1   Cu2   S    
C19   C31   A    
Cu2   N1    S    
C7    C11   A    
C26   C27   S    
C1    O3    A    
C11   H27   S    
C4    H5    S    
C7    C14   A    
C13   H26   S    
H7    N2    S    
C18   C30   A    
C25   H11   S    
Cu2   O3    S    
C2    C34   S    
C12   O4    A    
C28   H19   S    
Cu2   O2    S    
C6    O6    A    
C5    C7    S    
C20   C29   A    
C24   H14   S    
Cu1   O8    S    
C23   C30   A    
C24   C25   S    
C27   H21   S    
C4    N2    D    
C28   H18   S    
C27   H20   S    
C6    C8    S    
C14   H25   S    
C1    C32   S    
C17   C21   A    
C30   H1    S    
C32   C34   D    
C5    O7    A    
Cu2   O7    S    
C9    C11   A    
C10   C19   A    
C16   C20   A    
C33   H3    S    
C26   H22   S    
Cu2   O6    S    
C2    C33   D    
Cu1   O4    S    
C8    C15   A    
C31   H12   S    
C21   C23   A    
C22   C24   S    
C3    C4    S    
C25   H9    S    
C22   H16   S    
C10   H29   S    
C24   H13   S    
C15   C17   A    
C12   O2    A    
Cu1   O5    S    
C34   H2    S    
C15   H23   S    
C3    N1    D    
C2    H30   S    
C10   C13   A    
C28   H17   S    
C6    O8    A    
C29   C31   A    
Cu1   N2    S    
C17   C19   A    
C14   C16   A    
C32   H4    S    
C5    O5    A    
C1    O1    A    
C9    C18   A    
C20   C21   A    
Cu1   O1    S    
C26   C29   S    
C16   C18   A    
C27   C28   S    
C22   C23   S    
H8    N1    S    
C12   C33   S    
C26   H24   S    
C25   H10   S    
C22   H15   S    
