data_mof_unit_58368.cif
_audit_creation_date              2012-12-10T19:06:24-0500
_audit_creation_method            fapswitch 2.2
_symmetry_space_group_name_H-M    P1
_symmetry_Int_Tables_number       1
_space_group_crystal_system       triclinic
_cell_length_a                    23.448604
_cell_length_b                    10.809309
_cell_length_c                    9.605853
_cell_angle_alpha                 89.22231
_cell_angle_beta                  91.293281
_cell_angle_gamma                 90.605115
_cell_volume                      2433.75780093

loop_
_atom_site_label
_atom_site_type_symbol
_atom_type_description
_atom_site_fract_x
_atom_site_fract_y
_atom_site_fract_z
_atom_type_partial_charge
C1    C     C_R   0.499405 0.262533 0.500506 0.889196
C2    C     C_R   0.968674 0.339142 0.643051 -0.238588
C3    C     C_R   0.028081 0.333403 0.642988 0.469253
C4    C     C_R   0.059676 0.424373 0.569289 -0.122857
C5    C     C_R   0.030232 0.517941 0.493020 -0.067516
C6    C     C_R   0.061063 0.607403 0.417144 -0.000434
C7    C     C_R   0.031941 0.700625 0.343178 -0.225635
C8    C     C_R   0.972488 0.709482 0.346609 -0.033451
C9    C     C_R   0.119855 0.425643 0.569470 0.554887
C10   C     C_R   0.120820 0.602940 0.418645 0.546924
C11   C     C_R   0.241553 0.595608 0.574104 -0.086418
C12   C     C_R   0.391225 0.500321 0.498900 0.804055
C13   C     C_R   0.301006 0.591574 0.576252 -0.208779
C14   C     C_R   0.328987 0.503712 0.497062 -0.018991
C15   C     C_R   0.297156 0.418125 0.418585 -0.189823
C16   C     C_R   0.237731 0.421658 0.417065 -0.108189
C17   C     C_R   0.209795 0.510777 0.494289 0.351554
C18   C     C_R   0.760720 0.435252 0.404814 0.430562
C19   C     C_R   0.701714 0.415445 0.420344 -0.129330
C20   C     C_R   0.671255 0.498153 0.503112 -0.148862
C21   C     C_R   0.700246 0.587614 0.581953 -0.266005
C22   C     C_R   0.759726 0.598382 0.580530 -0.036746
C23   C     C_R   0.500126 0.737278 0.498918 0.794235
C24   C     C_R   0.790145 0.521882 0.490112 0.150658
C25   C     C_R   0.467923 0.060179 0.598457 0.105286
C26   C     C_R   0.496997 0.129060 0.497934 -0.133413
C27   C     C_R   0.518916 0.066745 0.383082 -0.150779
C28   C     C_R   0.518657 0.937697 0.380896 -0.224326
C29   C     C_R   0.497181 0.870244 0.494437 -0.072209
C30   C     C_R   0.469148 0.933483 0.597130 0.053697
C31   C     C_3   0.469844 0.921155 0.751219 -0.518770
C32   C     C_3   0.467048 0.062484 0.754358 0.289818
C33   C     C_R   0.543380 0.556061 0.075395 0.220231
C34   C     C_R   0.608762 0.498816 0.501281 0.878395
C35   C     C_R   0.454807 0.453413 0.069639 0.075098
C36   C     C_R   0.454919 0.455912 0.922057 -0.080486
C37   C     C_R   0.544091 0.552766 0.928539 0.177976
C38   C     C_3   0.605837 0.516745 0.930670 -0.273193
C39   C     C_3   0.605141 0.524730 0.088255 -0.534107
C40   C     C_R   0.879924 0.614909 0.419609 0.574902
C41   C     C_R   0.879780 0.433208 0.563913 0.648622
C42   C     C_R   0.939373 0.431023 0.567073 -0.086145
C43   C     C_R   0.969944 0.522232 0.492765 -0.023095
C44   C     C_R   0.940378 0.617749 0.419386 -0.064275
Cu1   Cu    Cu3+1 0.500000 0.499980 0.640670 0.978787
Cu2   Cu    Cu3+1 0.500000 0.500020 0.359330 0.993833
H1    H     H_    0.945535 0.270875 0.703710 0.197619
H2    H     H_    0.675861 0.648811 0.645727 0.190944
H3    H     H_    0.538269 0.117224 0.297815 0.190664
H4    H     H_    0.537885 0.891370 0.294625 0.163248
H5    H     H_    0.430873 0.871983 0.786794 0.212460
H6    H     H_    0.510819 0.884270 0.793949 0.173102
H7    H     H_    0.505243 0.110186 0.800079 0.102244
H8    H     H_    0.419578 0.415499 0.863598 0.172640
H9    H     H_    0.633721 0.588541 0.882469 0.150753
H10   H     H_    0.612575 0.435187 0.143590 0.233249
H11   H     H_    0.631127 0.603259 0.129473 0.188885
H12   H     H_    0.055750 0.770879 0.286691 0.197963
H13   H     H_    0.220109 0.663978 0.634865 0.142214
H14   H     H_    0.325190 0.657644 0.638255 0.149019
H15   H     H_    0.318232 0.346726 0.361943 0.167299
H16   H     H_    0.213328 0.354850 0.356727 0.139549
N1    N     N_R   0.851477 0.523873 0.491179 -0.431774
N2    N     N_R   0.148715 0.513259 0.494069 -0.474336
N3    N     N_R   0.500360 0.500930 0.147930 -0.210647
N4    N     N_R   0.500360 0.500890 0.852020 -0.192667
O1    O     O_R   0.500000 0.319640 0.618810 -0.575901
O2    O     O_2   0.850068 0.344824 0.632535 -0.534389
O3    O     O_2   0.149627 0.341240 0.645016 -0.498607
O4    O     O_2   0.150948 0.687536 0.345372 -0.532887
O5    O     O_R   0.500010 0.319680 0.381230 -0.531950
O6    O     O_R   0.417880 0.499940 0.618820 -0.588796
O7    O     O_R   0.417880 0.499980 0.381240 -0.559307
O8    O     O_R   0.499990 0.680320 0.618770 -0.586170
O9    O     O_R   0.500000 0.680360 0.381190 -0.591122
O10   O     O_R   0.582120 0.500020 0.618760 -0.575198
O11   O     O_R   0.582120 0.500060 0.381180 -0.593200
O12   O     O_2   0.849377 0.700233 0.347726 -0.529000
C45   C     C_2   0.673203 0.303419 0.359742 0.892674
O13   O     O_2   0.631819 0.257122 0.416415 -0.616732
O14   O     O_R   0.694488 0.247444 0.241739 -0.740727
H17   H     H_    0.671206 0.172380 0.211953 0.333379
C46   C     C_2   0.788257 0.689853 0.674778 0.898293
O15   O     O_2   0.839846 0.688359 0.695945 -0.579728
O16   O     O_R   0.755546 0.777323 0.742347 -0.768514
H18   H     H_    0.779452 0.833567 0.804526 0.351266
O17   O     O_3   0.413520 0.104472 0.798194 -0.585841
C47   C     C_3   0.413297 0.120013 0.944263 0.099529
H19   H     H_    0.379853 0.188862 0.964568 0.187134
H20   H     H_    0.454147 0.159011 0.987111 0.139782
C48   C     C_3   0.397520 0.998875 0.020291 -0.392997
H21   H     H_    0.361234 0.953025 0.964379 0.243064
H22   H     H_    0.434615 0.935815 0.022452 0.206889
C49   C     C_3   0.380575 0.021102 0.170235 -0.806296
H23   H     H_    0.416450 0.064591 0.229273 0.284999
H24   H     H_    0.369851 0.931401 0.221480 0.252710
H25   H     H_    0.342712 0.081861 0.172823 0.262049
C50   C     C_2   0.404985 0.391714 0.130924 0.809832
O18   O     O_2   0.411216 0.307116 0.214959 -0.614729
O19   O     O_R   0.350357 0.422736 0.081399 -0.777645
H26   H     H_    0.319485 0.366517 0.119784 0.325302
O20   O     O_3   0.054635 0.242184 0.722559 -0.564068
C51   C     C_3   0.062041 0.135206 0.641489 0.101399
H27   H     H_    0.104594 0.096886 0.669851 0.202208
H28   H     H_    0.062367 0.153960 0.526739 0.120073
C52   C     C_3   0.016497 0.037434 0.675411 -0.370595
H29   H     H_    0.014948 0.022780 0.790030 0.255230
H30   H     H_    0.974075 0.069660 0.637272 0.234831
C53   C     C_3   0.029180 0.914711 0.606653 -0.810619
H31   H     H_    0.031938 0.928400 0.492274 0.250881
H32   H     H_    0.994473 0.846954 0.628443 0.285888
H33   H     H_    0.070099 0.876606 0.647891 0.249615
C54   C     C_2   0.617007 0.386704 0.883298 0.963770
O21   O     O_2   0.657991 0.367040 0.810695 -0.591774
O22   O     O_R   0.581663 0.288733 0.925363 -0.777744
H34   H     H_    0.594587 0.206188 0.889222 0.317933
C55   C     C_2   0.947006 0.820380 0.279188 0.910012
O23   O     O_2   0.956069 0.843586 0.156670 -0.584018
O24   O     O_R   0.915316 0.901884 0.357796 -0.704739
H35   H     H_    0.901126 0.975487 0.300918 0.348286
O25   O     O_3   0.790553 0.362928 0.313780 -0.556781
C56   C     C_3   0.808532 0.435397 0.198010 0.051348
H36   H     H_    0.855714 0.429104 0.192887 0.166848
H37   H     H_    0.797716 0.535540 0.203253 0.155809
C57   C     C_3   0.781760 0.385192 0.063272 -0.309380
H38   H     H_    0.791038 0.284991 0.054729 0.264914
H39   H     H_    0.734820 0.397526 0.064827 0.247045
C58   C     C_3   0.804383 0.453905 0.935898 -0.796712
H40   H     H_    0.795950 0.554467 0.943467 0.255178
H41   H     H_    0.782397 0.418702 0.840633 0.300110
H42   H     H_    0.850988 0.439446 0.927100 0.269906

loop_
_geom_bond_atom_site_label_1
_geom_bond_atom_site_label_2
_ccdc_geom_bond_type
O17   C47   S    
C9    N2    A    
C41   C42   A    
C47   H20   S    
C19   C20   A    
C31   H6    S    
C58   H40   S    
O14   H17   S    
C33   N3    A    
C7    C8    A    
C13   H14   S    
O16   H18   S    
C26   C27   A    
C1    O5    A    
C40   N1    A    
Cu1   O10   S    
C18   C24   A    
C23   C29   S    
C28   C29   A    
C9    O3    S    
C53   H32   S    
C17   N2    S    
C30   C31   S    
C36   N4    A    
C52   H29   S    
C35   N3    A    
C15   C16   A    
C39   H11   S    
C18   C19   A    
C51   H27   S    
C28   H4    S    
C38   H9    S    
C39   H10   S    
C16   C17   A    
Cu1   O1    S    
C57   C58   S    
C13   C14   A    
C35   C50   S    
C7    H12   S    
C21   H2    S    
C20   C34   S    
C25   C32   S    
C57   H38   S    
C12   O6    A    
C12   O7    A    
Cu1   O6    S    
O20   C51   S    
C16   H16   S    
C11   H13   S    
Cu2   O9    S    
C8    C55   S    
C41   O2    S    
C38   C39   S    
O25   C56   S    
Cu2   N3    S    
C53   H33   S    
C23   O9    A    
C48   H21   S    
C45   O14   S    
C38   C54   S    
C49   H25   S    
C25   C26   A    
Cu1   Cu2   S    
C32   O17   S    
C33   C37   A    
Cu1   O8    S    
C35   C36   A    
C49   H24   S    
C43   C44   A    
C37   C38   S    
C48   H22   S    
C31   C32   S    
C47   C48   S    
C37   N4    A    
C15   H15   S    
C51   H28   S    
C33   C39   S    
C20   C21   A    
C19   C45   S    
Cu2   O5    S    
C10   O4    S    
C3    O20   S    
C46   O16   S    
C12   C14   S    
C24   N1    S    
C50   O19   S    
C1    C26   S    
C22   C24   A    
C46   O15   D    
C42   C43   A    
C41   N1    A    
C23   O8    A    
C56   H37   S    
C3    C4    A    
C58   H42   S    
C32   H7    S    
Cu1   N4    S    
C54   O21   D    
C25   C30   A    
C11   C17   A    
C10   N2    A    
C8    C44   A    
C31   H5    S    
C4    C5    A    
C58   H41   S    
C6    C10   A    
Cu2   O11   S    
O24   H35   S    
C6    C7    A    
C2    H1    S    
C22   C46   S    
C56   C57   S    
C55   O24   S    
C2    C3    A    
C56   H36   S    
C34   O11   A    
C55   O23   D    
C48   C49   S    
C11   C13   A    
C5    C6    A    
C52   H30   S    
C2    C42   A    
O19   H26   S    
C1    O1    A    
C51   C52   S    
C40   O12   S    
C5    C43   A    
C49   H23   S    
C36   H8    S    
C18   O25   S    
C29   C30   A    
C45   O13   D    
C27   H3    S    
C40   C44   A    
C47   H19   S    
C50   O18   D    
C53   H31   S    
C27   C28   A    
C57   H39   S    
C14   C15   A    
C4    C9    A    
C21   C22   A    
Cu2   O7    S    
O22   H34   S    
C34   O10   A    
C54   O22   S    
C52   C53   S    
