data_mof_unit_66883.cif
_audit_creation_date              2013-03-05T15:57:23-0500
_audit_creation_method            fapswitch 2.2
_symmetry_space_group_name_H-M    P1
_symmetry_Int_Tables_number       1
_space_group_crystal_system       triclinic
_cell_length_a                    17.623859
_cell_length_b                    18.799073
_cell_length_c                    8.536896
_cell_angle_alpha                 89.972293
_cell_angle_beta                  101.890457
_cell_angle_gamma                 90.09686
_cell_volume                      2767.68630497

loop_
_atom_site_label
_atom_site_type_symbol
_atom_site_description
_atom_site_fract_x
_atom_site_fract_y
_atom_site_fract_z
_atom_type_partial_charge
P1    P     P_3+3 0.834140 0.419320 0.003900 1.042652
P2    P     P_3+3 0.834140 0.580680 0.503900 1.000072
P3    P     P_3+3 0.334140 0.919320 0.003900 0.999960
P4    P     P_3+3 0.334140 0.080680 0.503900 1.000840
O1    O     O_2   0.841960 0.394640 0.833410 -0.519637
O2    O     O_2   0.841960 0.605360 0.333410 -0.494686
O3    O     O_2   0.341960 0.894640 0.833410 -0.469382
O4    O     O_2   0.341960 0.105360 0.333410 -0.509953
O5    O     O_3   0.907950 0.463080 0.102990 -0.519319
O6    O     O_3   0.907950 0.536920 0.602990 -0.524403
O7    O     O_3   0.407950 0.963080 0.102990 -0.523136
O8    O     O_3   0.407950 0.036920 0.602990 -0.514932
O9    O     O_3   0.972780 0.329600 0.629720 -0.524034
O10   O     O_3   0.972780 0.670400 0.129720 -0.520140
O11   O     O_3   0.472780 0.829600 0.629720 -0.488788
O12   O     O_3   0.472780 0.170400 0.129720 -0.511490
O13   O     O_2   0.845624 0.271043 0.672525 -0.407721
O14   O     O_2   0.853698 0.736850 0.192627 -0.395645
O15   O     O_2   0.333558 0.789446 0.670667 -0.397421
O16   O     O_2   0.340757 0.222277 0.197350 -0.447671
O17   O     O_3   0.757629 0.479873 0.958992 -0.514027
O18   O     O_3   0.754909 0.522619 0.459225 -0.546920
O19   O     O_3   0.254780 0.976109 0.955265 -0.558369
O20   O     O_3   0.254162 0.024344 0.459827 -0.544220
O21   O     O_3   0.953251 0.183881 0.606726 -0.538871
O22   O     O_3   0.960103 0.816359 0.106041 -0.499233
O23   O     O_3   0.417690 0.685767 0.631704 -0.554192
O24   O     O_3   0.425885 0.313492 0.099355 -0.542242
H1    H     H_    0.035971 0.237016 0.774481 0.038637
H2    H     H_    0.060307 0.755734 0.194554 -0.007367
H3    H     H_    0.526883 0.704909 0.576796 -0.024925
H4    H     H_    0.532367 0.292540 0.243118 0.099854
C1    C     C_3   0.076584 0.135765 0.745544 0.400177
C2    C     C_3   0.089076 0.861292 0.198273 0.482943
C3    C     C_3   0.519978 0.604599 0.695504 0.346224
C4    C     C_3   0.530381 0.392979 0.119710 0.276150
H5    H     H_    0.551308 0.630235 0.806359 0.070625
H6    H     H_    0.528210 0.420114 0.232717 0.127093
H7    H     H_    0.134817 0.155743 0.802017 -0.081841
H8    H     H_    0.150868 0.847237 0.210579 -0.202321
H9    H     H_    0.047548 0.111405 0.836021 0.084456
H10   H     H_    0.076256 0.866632 0.318372 0.068996
H11   H     H_    0.475334 0.569154 0.726405 0.023561
H12   H     H_    0.493557 0.422590 0.020344 0.048268
P5    P     P_3+3 0.165830 0.418670 0.685610 0.965088
P6    P     P_3+3 0.165830 0.581330 0.185610 1.008863
P7    P     P_3+3 0.665830 0.918670 0.685610 0.963061
P8    P     P_3+3 0.665830 0.081330 0.185610 0.955516
P9    P     P_3+3 0.103287 0.268931 0.118907 0.971478
P10   P     P_3+3 0.098440 0.735281 0.618812 0.992113
P11   P     P_3+3 0.607688 0.771964 0.119587 1.026504
P12   P     P_3+3 0.599062 0.234855 0.616897 1.024182
O25   O     O_2   0.157990 0.394030 0.856030 -0.450238
O26   O     O_2   0.157990 0.605970 0.356030 -0.509169
O27   O     O_2   0.657990 0.894030 0.856030 -0.447401
O28   O     O_2   0.657990 0.105970 0.356030 -0.473662
O29   O     O_3   0.027110 0.329490 0.059550 -0.487756
O30   O     O_3   0.027110 0.670510 0.559550 -0.486617
O31   O     O_3   0.527110 0.829490 0.059550 -0.458118
O32   O     O_3   0.527110 0.170510 0.559550 -0.499248
O33   O     O_2   0.154972 0.269460 0.992997 -0.487776
O34   O     O_2   0.151730 0.736393 0.495744 -0.501317
O35   O     O_2   0.663041 0.780925 0.002551 -0.447266
O36   O     O_2   0.643601 0.241880 0.478932 -0.454279
O37   O     O_3   0.252726 0.464591 0.710263 -0.713317
O38   O     O_3   0.243591 0.522584 0.220148 -0.568908
O39   O     O_3   0.743687 0.976629 0.728957 -0.658675
O40   O     O_3   0.739780 0.018762 0.218094 -0.644480
O41   O     O_3   0.058833 0.185869 0.096007 -0.628268
O42   O     O_3   0.047323 0.814761 0.588679 -0.583523
O43   O     O_3   0.575609 0.685174 0.078621 -0.590625
O44   O     O_3   0.545724 0.313613 0.611463 -0.575591
C5    C     C_3   0.005455 0.185112 0.197984 0.264260
C6    C     C_3   0.977629 0.804452 0.642679 0.378747
C7    C     C_3   0.540744 0.661729 0.203304 0.305116
C8    C     C_3   0.477604 0.296670 0.667234 0.463544
H13   H     H_    0.960019 0.225986 0.161371 0.029847
H14   H     H_    0.931994 0.787147 0.540463 0.111761
H15   H     H_    0.487411 0.692687 0.203348 0.022510
H16   H     H_    0.436053 0.268455 0.571513 0.055639
H17   H     H_    0.033849 0.195167 0.323778 0.027186
H18   H     H_    0.981203 0.763508 0.738145 -0.109023
H19   H     H_    0.577810 0.668382 0.323030 -0.007520
H20   H     H_    0.489866 0.261503 0.773980 -0.129849
C9    C     C_3   0.966837 0.113279 0.190769 -0.155340
C10   C     C_3   0.954738 0.872856 0.713264 -0.267957
C11   C     C_3   0.524490 0.582644 0.182603 -0.220360
C12   C     C_3   0.437691 0.363262 0.711508 -0.305481
H21   H     H_    0.514342 0.565989 0.055400 0.120742
H22   H     H_    0.382174 0.370976 0.625657 0.093465
H23   H     H_    0.953645 0.093740 0.067096 0.156418
H24   H     H_    0.891507 0.875530 0.706132 0.023221
H25   H     H_    0.006212 0.074436 0.260330 0.231070
H26   H     H_    0.975413 0.919505 0.655926 0.206624
H27   H     H_    0.574864 0.553750 0.250812 0.196286
H28   H     H_    0.475330 0.410963 0.717596 0.175332
C13   C     C_3   0.272602 0.514238 0.384829 0.378848
C14   C     C_3   0.256806 0.522062 0.811800 0.264391
C15   C     C_3   0.761123 0.999160 0.378953 0.286924
C16   C     C_3   0.726416 0.028986 0.831872 0.314943
H29   H     H_    0.274956 0.563822 0.454994 -0.068454
H30   H     H_    0.249044 0.505097 0.931738 0.120606
H31   H     H_    0.757182 0.041109 0.466485 0.089205
H32   H     H_    0.697948 0.007792 0.925221 0.042655
H33   H     H_    0.237601 0.472986 0.429142 0.015490
H34   H     H_    0.212656 0.562356 0.759406 0.000652
H35   H     H_    0.726816 0.952413 0.401475 -0.005124
H36   H     H_    0.687453 0.069058 0.762063 0.006636
C17   C     C_3   0.355735 0.492176 0.411179 0.373262
C18   C     C_3   0.338451 0.550789 0.822167 0.359725
C19   C     C_3   0.845544 0.983126 0.410388 0.254079
C20   C     C_3   0.802084 0.060559 0.917978 0.292416
H37   H     H_    0.378192 0.479969 0.538294 -0.081309
H38   H     H_    0.382818 0.511871 0.879450 0.040635
H39   H     H_    0.865587 0.973410 0.539446 0.049002
H40   H     H_    0.796613 0.090674 0.024882 -0.058839
H41   H     H_    0.390308 0.536569 0.378379 0.050709
H42   H     H_    0.347030 0.562799 0.700904 -0.007545
H43   H     H_    0.876355 0.029287 0.373975 0.093563
H44   H     H_    0.844182 0.017878 0.958019 0.122617
Ba1   Ba    Ba6+2 0.000000 0.447380 0.844850 1.725544
Ba2   Ba    Ba6+2 1.000000 0.552620 0.344850 1.713987
Ba3   Ba    Ba6+2 0.500000 0.947380 0.844850 1.750915
Ba4   Ba    Ba6+2 0.500000 0.052620 0.344850 1.721764
C21   C     C_3   0.783480 0.548404 0.927183 0.370826
C22   C     C_3   0.778287 0.451143 0.461356 0.326871
C23   C     C_3   0.275780 0.048160 0.961329 0.301731
C24   C     C_3   0.274847 0.954078 0.435032 0.329125
H45   H     H_    0.776514 0.554274 0.796177 0.026299
H46   H     H_    0.782543 0.435466 0.338722 0.062105
H47   H     H_    0.268295 0.067768 0.837144 0.034680
H48   H     H_    0.265553 0.944555 0.304397 -0.002598
H49   H     H_    0.844416 0.560493 0.983753 0.000611
H50   H     H_    0.834022 0.438666 0.542527 0.024202
H51   H     H_    0.335367 0.061226 0.024825 0.023402
H52   H     H_    0.335053 0.939091 0.491702 0.007685
C25   C     C_3   0.733840 0.603998 0.988614 -0.271556
C26   C     C_3   0.717575 0.406324 0.517779 -0.166199
C27   C     C_3   0.220229 0.087163 0.043764 -0.225615
C28   C     C_3   0.220495 0.907256 0.504844 -0.226719
H53   H     H_    0.674929 0.605513 0.914967 0.149557
H54   H     H_    0.659630 0.415802 0.442091 0.190353
H55   H     H_    0.160222 0.072837 0.988802 0.192491
H56   H     H_    0.160919 0.927396 0.467943 0.179701
H57   H     H_    0.758116 0.657620 0.985853 0.057306
H58   H     H_    0.732709 0.349390 0.513229 0.086349
H59   H     H_    0.228991 0.145326 0.038657 0.057144
H60   H     H_    0.224731 0.851292 0.468553 0.059634
H61   H     H_    0.730151 0.592464 0.113500 0.145242
H62   H     H_    0.715037 0.420846 0.641994 0.153382
H63   H     H_    0.227799 0.069079 0.168178 0.169017
H64   H     H_    0.233272 0.911646 0.635478 0.157228
O45   O     O_3   0.092100 0.536880 0.086720 -0.485762
O46   O     O_3   0.092100 0.463120 0.586720 -0.495720
O47   O     O_3   0.592100 0.036880 0.086720 -0.482997
O48   O     O_3   0.592100 0.963120 0.586720 -0.499382
P13   P     P_3+3 0.906404 0.737784 0.068751 1.049017
P14   P     P_3+3 0.903834 0.264575 0.561093 0.994636
P15   P     P_3+3 0.392478 0.227024 0.072281 0.999391
P16   P     P_3+3 0.393008 0.771831 0.567591 1.014249
C29   C     C_3   0.031586 0.199908 0.672049 0.347319
C30   C     C_3   0.039468 0.801442 0.115820 0.432094
C31   C     C_3   0.483220 0.662166 0.578578 0.293747
C32   C     C_3   0.506468 0.315321 0.123956 0.380879
H65   H     H_    0.060563 0.223886 0.581193 -0.060167
H66   H     H_    0.051521 0.792038 0.995833 -0.182405
H67   H     H_    0.464244 0.639605 0.457278 -0.059631
H68   H     H_    0.527577 0.285246 0.029677 -0.021915
H69   H     H_    0.473546 0.567529 0.230528 0.152403
H70   H     H_    0.420735 0.356256 0.827367 0.069812
H71   H     H_    0.912975 0.117604 0.237403 0.032960
H72   H     H_    0.982045 0.874097 0.839794 0.175721
C33   C     C_R   0.139218 0.676375 0.925726 -0.233115
C34   C     C_R   0.143347 0.326766 0.424887 -0.261281
C35   C     C_R   0.643596 0.174557 0.922994 -0.271029
C36   C     C_R   0.646338 0.827644 0.427175 -0.245400
C37   C     C_R   0.861019 0.323196 0.256440 -0.290824
C38   C     C_R   0.860441 0.676630 0.763313 -0.300434
C39   C     C_R   0.356033 0.825563 0.258849 -0.277783
C40   C     C_R   0.352490 0.171536 0.765269 -0.313548
C41   C     C_R   0.794803 0.212879 0.292340 -0.068490
C42   C     C_R   0.790807 0.784424 0.803844 -0.091791
C43   C     C_R   0.280069 0.723049 0.305292 -0.096189
C44   C     C_R   0.281787 0.278285 0.806615 -0.073677
C45   C     C_R   0.849513 0.266243 0.351924 -0.010010
C46   C     C_R   0.848302 0.733334 0.860821 -0.034731
C47   C     C_R   0.339434 0.772652 0.359142 -0.066342
C48   C     C_R   0.335780 0.224452 0.865600 -0.022303
C49   C     C_R   0.818191 0.330902 0.100884 0.129861
C50   C     C_R   0.815329 0.666959 0.609506 0.063378
C51   C     C_R   0.310553 0.835422 0.106839 0.077488
C52   C     C_R   0.311944 0.165388 0.607925 0.079815
C53   C     C_R   0.764038 0.274551 0.034766 0.088727
C54   C     C_R   0.757591 0.720634 0.548609 0.002646
C55   C     C_R   0.248459 0.785030 0.048738 0.019263
C56   C     C_R   0.254196 0.219243 0.546184 -0.041496
C57   C     C_R   0.235689 0.725319 0.147481 0.007447
C58   C     C_R   0.239341 0.277377 0.646976 -0.096687
C59   C     C_R   0.749458 0.216274 0.135541 -0.004560
C60   C     C_R   0.744129 0.779743 0.648336 -0.084582
C61   C     C_R   0.181053 0.669218 0.082929 0.081200
C62   C     C_R   0.182388 0.331906 0.583813 0.052128
C63   C     C_R   0.687673 0.165570 0.077743 0.008331
C64   C     C_R   0.686591 0.833523 0.584816 0.031982
C65   C     C_R   0.149892 0.734483 0.830691 0.057612
C66   C     C_R   0.158979 0.272391 0.326402 0.034864
C67   C     C_R   0.661770 0.226335 0.819733 0.045514
C68   C     C_R   0.662894 0.774383 0.328048 0.014554
C69   C     C_R   0.201075 0.790095 0.894072 0.011946
C70   C     C_R   0.212140 0.218301 0.386853 -0.011195
C71   C     C_R   0.721324 0.275723 0.875316 0.103146
C72   C     C_R   0.715866 0.719892 0.388760 0.010503
H73   H     H_    0.271495 0.681615 0.386691 0.116479
H74   H     H_    0.274753 0.321117 0.886411 0.169223
H75   H     H_    0.787487 0.169348 0.369924 0.124373
H76   H     H_    0.784119 0.828298 0.881249 0.161779
H77   H     H_    0.730266 0.317431 0.795221 0.076554
H78   H     H_    0.723934 0.677509 0.309157 0.082031
H79   H     H_    0.207086 0.834520 0.818106 0.093998
H80   H     H_    0.219679 0.175440 0.308402 0.114905
H81   H     H_    0.099642 0.634617 0.873577 0.028635
H82   H     H_    0.101771 0.367209 0.374435 0.057836
H83   H     H_    0.595953 0.138571 0.879099 0.037341
H84   H     H_    0.603758 0.867388 0.377314 0.042481
H85   H     H_    0.902334 0.363868 0.307420 0.025895
H86   H     H_    0.904892 0.638148 0.810470 0.042266
H87   H     H_    0.402378 0.862618 0.304710 0.034041
H88   H     H_    0.396193 0.132508 0.813576 0.041202
S1    S     S_3+6 0.363990 0.417988 0.291221 -0.078316
O49   O     O_2   0.371971 0.443857 0.129304 -0.299051
O50   O     O_2   0.433798 0.376470 0.369194 -0.355338
O51   O     O_3   0.285803 0.365766 0.270815 -0.509170
H89   H     H_    0.296400 0.337018 0.369685 0.312351
S2    S     S_3+6 0.350633 0.630790 0.925906 -0.145560
O52   O     O_2   0.428270 0.662504 0.927114 -0.303369
O53   O     O_2   0.291363 0.679998 0.836773 -0.332284
O54   O     O_3   0.338977 0.614517 0.111916 -0.589327
H90   H     H_    0.373156 0.648519 0.180398 0.314648
S3    S     S_3+6 0.862895 0.907545 0.301467 -0.056358
O55   O     O_2   0.838230 0.918529 0.124536 -0.250250
O56   O     O_2   0.947375 0.891487 0.344953 -0.294366
O57   O     O_3   0.812686 0.840176 0.353960 -0.520339
H91   H     H_    0.816797 0.847762 0.469209 0.270630
S4    S     S_3+6 0.840634 0.116716 0.791214 -0.133983
O58   O     O_2   0.901125 0.075385 0.729888 -0.320943
O59   O     O_2   0.779345 0.142379 0.654060 -0.328612
O60   O     O_3   0.879267 0.186110 0.902783 -0.563527
H92   H     H_    0.932351 0.191003 0.884125 0.359144
S5    S     S_3+6 0.584078 0.549229 0.618465 -0.181623
O61   O     O_2   0.642009 0.593517 0.555866 -0.355641
O62   O     O_2   0.625034 0.502544 0.750669 -0.304854
O63   O     O_3   0.533912 0.497194 0.475070 -0.572462
H93   H     H_    0.544587 0.448184 0.515184 0.389922
S6    S     S_3+6 0.625400 0.398026 0.094800 -0.177466
O64   O     O_2   0.671584 0.343858 0.202123 -0.403242
O65   O     O_2   0.626336 0.383516 0.922860 -0.320256
O66   O     O_3   0.659724 0.479074 0.145814 -0.528574
H94   H     H_    0.631592 0.509023 0.057791 0.351428
S7    S     S_3+6 0.090255 0.070222 0.605877 -0.083804
O67   O     O_2   0.124602 0.102557 0.476071 -0.336273
O68   O     O_2   0.143557 0.014183 0.690316 -0.285577
O69   O     O_3   0.005877 0.032126 0.527938 -0.522460
H95   H     H_    0.020707 0.992282 0.465127 0.386247
S8    S     S_3+6 0.073328 0.943554 0.096136 -0.101208
O70   O     O_2   0.113666 0.000753 0.204153 -0.312966
O71   O     O_2   0.106198 0.939504 0.947694 -0.307268
O72   O     O_3   0.978539 0.962089 0.047442 -0.492623
H96   H     H_    0.972174 0.988164 0.944929 0.360515

loop_
_geom_bond_atom_site_label_1
_geom_bond_atom_site_label_2
_geom_bond_distance
_ccdc_geom_bond_type
C43   H73   1.074607 S    
C15   H31   1.098744 S    
C1    S7    1.765964 S    
C12   H28   1.109356 S    
P1    O17   1.747215 S    
C14   C18   1.521453 S    
P12   O36   1.549592 D    
P12   C67   1.859344 S    
P4    C52   1.903714 S    
P3    O19   1.741730 S    
O7    Ba4   2.888274 S    
C34   H82   1.082578 S    
C35   C67   1.393419 A    
O44   C8    1.415464 S    
O6    Ba1   2.890306 S    
C33   H81   1.082323 S    
C28   H60   1.103870 S    
C9    H23   1.096627 S    
C37   C45   1.385069 A    
Ba3   Ba4   4.705521 S    
Ba3   O47   2.888250 S    
C26   H62   1.104930 S    
P8    C63   1.909624 S    
C27   H59   1.106102 S    
S5    O61   1.497558 D    
C43   C57   1.412228 A    
O11   Ba3   2.853558 S    
P12   O32   1.746561 S    
C29   H65   1.108020 S    
C10   H72   1.088431 S    
O15   P16   1.537229 D    
C52   C56   1.456204 A    
O38   C13   1.402260 S    
C25   H57   1.096558 S    
C3    H5    1.103152 S    
C23   H47   1.104246 S    
C23   H51   1.105284 S    
O37   C14   1.377965 S    
C55   C69   1.412655 A    
S1    O51   1.670201 S    
P3    O3    1.560812 D    
C24   H52   1.108434 S    
P4    O20   1.739758 S    
C54   C72   1.410526 A    
O18   C22   1.405102 S    
C39   C47   1.381815 A    
P7    O48   1.627994 S    
C22   H46   1.105103 S    
C11   H69   1.097559 S    
O1    Ba1   2.937509 S    
C3    S5    1.761531 S    
P9    O29   1.754854 S    
S4    O58   1.499167 D    
P4    Ba4   3.508244 S    
O22   P13   1.746549 S    
C33   C61   1.398275 A    
O66   H94   0.987146 S    
C42   C46   1.409094 A    
C5    H17   1.103541 S    
O32   Ba4   2.852861 S    
C36   C64   1.390329 A    
S4    O59   1.500154 D    
S6    O65   1.496531 D    
C10   H26   1.101547 S    
O23   C31   1.397891 S    
C30   H66   1.102522 S    
P5    O37   1.731402 S    
C9    H25   1.094928 S    
P6    C61   1.914208 S    
C54   C60   1.449435 A    
S3    O55   1.497489 D    
O21   C29   1.410394 S    
S8    O70   1.496733 D    
O16   P15   1.542558 D    
C11   H27   1.100249 S    
P2    O18   1.749973 S    
O14   P13   1.544724 D    
C57   C61   1.456574 A    
C14   H34   1.112443 S    
P4    O8    1.622945 S    
C3    H11   1.102836 S    
C18   H38   1.108986 S    
C49   C53   1.458372 A    
P4    O4    1.560256 D    
C20   S4    1.745459 S    
C56   C70   1.408657 A    
S7    O69   1.660155 S    
C28   H56   1.099968 S    
O26   Ba2   2.940911 S    
P7    O27   1.559561 D    
P5    O25   1.559561 D    
C2    H10   1.099059 S    
P9    O41   1.738767 S    
O54   H90   0.983446 S    
O12   P15   1.759284 S    
C42   H76   1.078784 S    
C67   C71   1.407357 A    
Ba2   O46   2.890284 S    
C25   H61   1.102809 S    
P2    O2    1.560256 D    
S2    O53   1.483540 D    
C6    H18   1.113102 S    
C24   H48   1.107883 S    
P7    O39   1.730022 S    
P3    Ba3   3.506560 S    
O5    Ba2   2.888274 S    
P11   O31   1.775830 S    
C51   C55   1.454047 A    
Ba3   O48   3.008299 S    
P2    Ba2   3.508244 S    
O31   Ba3   2.852739 S    
C71   H77   1.072668 S    
C38   H86   1.082035 S    
H3    C31   1.113895 S    
C8    H20   1.110384 S    
O30   Ba2   2.852861 S    
C16   H36   1.107626 S    
Ba1   O46   3.008299 S    
O10   P13   1.731333 S    
C17   H41   1.102044 S    
P10   O30   1.747074 S    
P1    O5    1.621129 S    
H1    C29   1.108981 S    
C32   H68   1.109220 S    
P11   O35   1.542477 D    
P13   C46   1.859376 S    
C56   C58   1.448448 A    
C26   H54   1.104859 S    
C70   H80   1.073765 S    
C41   H75   1.076704 S    
P14   C45   1.844361 S    
C20   H44   1.099241 S    
C41   C45   1.410651 A    
P11   C68   1.844482 S    
O4    Ba4   2.940654 S    
C34   C66   1.387395 A    
C12   H70   1.098385 S    
P5    Ba1   3.510546 S    
O23   P16   1.734896 S    
C53   C59   1.447611 A    
O29   Ba1   2.852739 S    
O22   C30   1.412523 S    
O24   P15   1.727250 S    
C4    S6    1.733413 S    
C8    C12   1.522445 S    
C44   C48   1.410139 A    
S2    O54   1.670661 S    
C69   H79   1.075512 S    
P15   C48   1.840476 S    
C1    C29   1.508002 S    
O42   C6    1.411105 S    
S1    O49   1.498726 D    
P12   O44   1.750589 S    
C38   C46   1.396434 A    
C14   H30   1.107276 S    
C60   C64   1.456314 A    
O9    Ba1   2.853558 S    
C66   C70   1.407679 A    
C44   H74   1.078638 S    
C34   C62   1.392370 A    
C65   C69   1.412686 A    
C31   H67   1.105118 S    
C68   C72   1.411693 A    
C15   C19   1.487747 S    
O10   Ba2   2.853439 S    
P6    O26   1.560118 D    
O57   H91   0.981997 S    
C16   H32   1.099681 S    
C17   S1    1.754549 S    
C27   H55   1.098081 S    
S3    O56   1.489729 D    
C1    H7    1.105310 S    
C6    C10   1.510686 S    
O41   C5    1.407298 S    
C18   H42   1.099836 S    
C5    C9    1.506736 S    
Ba1   Ba2   4.705521 S    
P5    C62   1.899554 S    
C40   C48   1.384086 A    
Ba1   O45   2.888250 S    
O39   C16   1.394762 S    
C58   C62   1.459091 A    
C2    H8    1.104816 S    
C19   H43   1.101019 S    
C7    C11   1.517108 S    
C3    C31   1.523828 S    
P8    O47   1.626157 S    
C12   H22   1.104706 S    
C16   C20   1.504940 S    
S5    O62   1.493495 D    
C44   C58   1.413167 A    
C25   H53   1.097790 S    
Ba4   O48   2.890284 S    
C40   C52   1.390173 A    
P10   O34   1.546866 D    
Ba2   O45   3.009049 S    
P1    O1    1.560812 D    
C4    H12   1.106589 S    
C8    H16   1.112582 S    
S2    O52   1.489671 D    
O2    Ba2   2.940654 S    
O17   C21   1.410586 S    
S7    O67   1.496144 D    
P2    O6    1.622945 S    
O27   Ba3   2.944090 S    
O28   Ba4   2.940911 S    
O9    P14   1.736744 S    
C20   H40   1.095273 S    
O24   C32   1.392528 S    
C4    C32   1.521318 S    
C21   H49   1.106232 S    
P8    O28   1.560118 D    
P6    O45   1.626157 S    
C28   H64   1.094423 S    
C22   C26   1.515159 S    
S5    O63   1.670139 S    
C5    H13   1.108190 S    
C36   H84   1.082836 S    
C19   S3    1.759786 S    
C13   H33   1.104197 S    
P6    Ba2   3.508825 S    
P2    C50   1.918302 S    
O3    Ba3   2.937509 S    
C2    C30   1.506517 S    
C59   C63   1.453708 A    
P8    Ba4   3.508825 S    
C19   H39   1.100748 S    
O60   H92   0.984983 S    
P11   O43   1.737789 S    
P6    O38   1.738679 S    
O69   H95   0.987777 S    
C17   H37   1.099987 S    
H2    C30   1.106256 S    
C15   H35   1.104897 S    
P8    O40   1.736345 S    
O19   C23   1.401692 S    
S6    O66   1.663133 S    
S4    O60   1.674370 S    
C2    S8    1.768954 S    
C37   C49   1.393316 A    
O72   H96   0.988961 S    
C21   C25   1.524909 S    
C36   C68   1.381058 A    
S6    O64   1.494483 D    
C4    H6    1.099142 S    
C13   C17   1.495102 S    
O12   Ba4   2.853439 S    
C1    H9    1.109008 S    
C35   C63   1.398051 A    
O11   P16   1.767872 S    
S1    O50   1.493710 D    
S7    O68   1.495145 D    
O25   Ba1   2.944090 S    
O43   C7    1.404609 S    
P9    O33   1.545512 D    
C7    H19   1.100797 S    
O8    Ba3   2.890306 S    
P7    Ba3   3.510546 S    
C26   H58   1.106098 S    
S8    O72   1.673492 S    
C38   C50   1.399562 A    
C42   C60   1.413051 A    
H4    C32   1.111524 S    
C27   H63   1.096754 S    
O51   H89   0.987062 S    
C40   H88   1.082733 S    
P7    C64   1.889307 S    
C24   C28   1.509768 S    
S3    O57   1.657366 S    
P10   O42   1.737508 S    
P3    C51   1.891987 S    
P1    Ba1   3.506560 S    
O40   C15   1.396488 S    
C53   C71   1.413442 A    
P3    O7    1.621129 S    
C50   C54   1.452191 A    
C10   H24   1.104676 S    
C37   H85   1.082611 S    
C9    H71   1.105544 S    
P10   C65   1.848877 S    
C21   H45   1.105157 S    
C39   H87   1.082698 S    
C39   C51   1.390128 A    
P9    C66   1.840859 S    
C22   H50   1.104616 S    
S8    O71   1.500011 D    
C6    H14   1.106479 S    
Ba4   O47   3.009049 S    
O21   P14   1.753727 S    
O20   C24   1.398656 S    
C11   H21   1.108757 S    
C35   H83   1.082473 S    
O13   P14   1.541059 D    
C33   C65   1.395784 A    
P5    O46   1.627994 S    
P16   C47   1.834669 S    
C55   C57   1.448339 A    
C7    H15   1.106407 S    
C23   C27   1.509374 S    
C13   H29   1.104340 S    
C43   C47   1.405139 A    
C18   S2    1.736114 S    
P1    C49   1.902714 S    
O63   H93   0.987552 S    
C72   H78   1.075904 S    
C41   C59   1.412017 A    
