data_mof_unit_35241.cif
_audit_creation_date              2012-12-11T15:07:32-0500
_audit_creation_method            fapswitch 2.2
_symmetry_space_group_name_H-M    P1
_symmetry_Int_Tables_number       1
_space_group_crystal_system       triclinic
_cell_length_a                    21.676505
_cell_length_b                    7.195576
_cell_length_c                    18.746374
_cell_angle_alpha                 90.653114
_cell_angle_beta                  95.448806
_cell_angle_gamma                 89.829093
_cell_volume                      2910.5580233

loop_
_atom_site_label
_atom_site_type_symbol
_atom_type_description
_atom_site_fract_x
_atom_site_fract_y
_atom_site_fract_z
_atom_type_partial_charge
O1    O     O_R   0.449650 0.506500 0.414480 -0.516156
O2    O     O_R   0.550350 0.006500 0.585520 -0.540877
O3    O     O_R   0.432010 0.173150 0.560250 -0.540126
O4    O     O_R   0.567990 0.673150 0.439750 -0.520041
C1    C     C_R   0.416873 0.344987 0.581927 0.731093
C2    C     C_R   0.583962 0.843875 0.419138 0.724436
O5    O     O_R   0.442320 0.176650 0.413480 -0.541808
O6    O     O_R   0.557680 0.676650 0.586520 -0.515576
O7    O     O_R   0.560730 0.008380 0.437700 -0.545172
O8    O     O_R   0.439270 0.508380 0.562300 -0.520303
C3    C     C_R   0.425320 0.345637 0.390434 0.746148
C4    C     C_R   0.574334 0.846517 0.609900 0.747612
O9    O     O_3   0.538840 0.339860 0.508120 -0.365452
O10   O     O_3   0.461160 0.839860 0.491880 -0.354810
V1    V     V_3+5 0.492800 0.064220 0.498490 1.513185
V2    V     V_3+5 0.507200 0.564220 0.501510 1.562784
C5    C     C_R   0.879943 0.814318 0.696093 -0.158921
C6    C     C_R   0.125076 0.532138 0.306133 -0.152081
H1    H     H_    0.804010 0.716235 0.586888 0.164674
H2    H     H_    0.204815 0.579824 0.417034 0.163678
H3    H     H_    0.901654 0.757799 0.650758 0.155478
H4    H     H_    0.105910 0.587516 0.353355 0.155806
C7    C     C_R   0.890283 0.928355 0.818455 -0.102518
C8    C     C_R   0.110461 0.447352 0.180791 -0.099080
C9    C     C_R   0.588309 0.922892 0.737045 -0.185844
C10   C     C_R   0.406648 0.276724 0.263000 -0.189660
C11   C     C_R   0.622888 0.973448 0.800782 0.253527
C12   C     C_R   0.369979 0.249520 0.198571 0.255378
C13   C     C_R   0.687387 0.968578 0.804936 -0.136572
C14   C     C_R   0.307148 0.293726 0.194005 -0.140836
C15   C     C_R   0.719378 0.906866 0.746780 0.009668
C16   C     C_R   0.279117 0.369617 0.252889 0.007852
C17   C     C_R   0.683445 0.845736 0.681840 0.013602
C18   C     C_R   0.317466 0.403296 0.319129 0.011712
C19   C     C_R   0.786167 0.900905 0.752084 0.097316
C20   C     C_R   0.213914 0.413627 0.247406 0.094667
C21   C     C_R   0.815444 0.833626 0.692604 0.037969
C22   C     C_R   0.188022 0.484925 0.308581 0.035250
C23   C     C_R   0.780557 0.773461 0.630860 -0.173110
C24   C     C_R   0.225228 0.518369 0.371608 -0.176059
C25   C     C_R   0.716283 0.772075 0.625568 0.207222
C26   C     C_R   0.288660 0.486580 0.376852 0.205641
C27   C     C_R   0.825398 0.953295 0.814751 -0.253355
C28   C     C_R   0.173274 0.393872 0.183244 -0.250304
C29   C     C_R   0.916944 0.854617 0.758822 0.256095
C30   C     C_R   0.086657 0.516468 0.242794 0.254385
C31   C     C_R   0.616826 0.861895 0.677044 -0.105627
C32   C     C_R   0.382038 0.350154 0.323718 -0.106663
H5    H     H_    0.807155 0.004494 0.862720 0.107864
H6    H     H_    0.189150 0.345224 0.133595 0.108510
H7    H     H_    0.538217 0.935228 0.733523 0.138863
H8    H     H_    0.455120 0.236668 0.266344 0.125424
H9    H     H_    0.711153 0.013868 0.855116 0.126295
H10   H     H_    0.281394 0.265401 0.143116 0.126274
C33   C     C_R   0.643686 0.711750 0.321295 -0.150147
C34   C     C_R   0.365456 0.513446 0.678299 -0.133312
C35   C     C_R   0.634762 0.854086 0.371378 -0.072003
C36   C     C_R   0.367953 0.358035 0.632249 -0.070388
C37   C     C_R   0.673641 0.010457 0.374713 -0.149259
C38   C     C_R   0.323177 0.218024 0.633832 -0.138129
C39   C     C_R   0.720524 0.026559 0.328613 0.134573
C40   C     C_R   0.275597 0.234216 0.679363 0.135988
C41   C     C_R   0.728613 0.885612 0.277327 0.038391
C42   C     C_R   0.273175 0.390591 0.725341 0.036084
C43   C     C_R   0.689895 0.726634 0.273315 0.034694
C44   C     C_R   0.318821 0.530865 0.725508 0.032295
C45   C     C_R   0.758849 0.183459 0.332379 -0.161493
C46   C     C_R   0.230225 0.096204 0.679444 -0.156306
C47   C     C_R   0.804376 0.203005 0.285127 -0.122428
C48   C     C_R   0.181747 0.114483 0.723001 -0.167843
C49   C     C_R   0.813057 0.065277 0.232964 0.127120
C50   C     C_R   0.177623 0.270963 0.768318 0.072785
C51   C     C_R   0.775003 0.905276 0.229482 0.016960
C52   C     C_R   0.224809 0.406798 0.770891 0.020022
C53   C     C_R   0.783017 0.765302 0.178117 0.046556
C54   C     C_R   0.223257 0.560177 0.818109 0.037693
C55   C     C_R   0.744646 0.608150 0.174377 -0.187023
C56   C     C_R   0.269071 0.697441 0.818648 -0.176596
C57   C     C_R   0.698041 0.588766 0.220678 0.260065
C58   C     C_R   0.316315 0.684747 0.772764 0.258213
C59   C     C_R   0.858889 0.084956 0.184536 0.139156
C60   C     C_R   0.127023 0.295358 0.810351 0.175266
C61   C     C_R   0.866955 0.943258 0.132542 -0.105135
C62   C     C_R   0.129207 0.439353 0.863287 -0.089313
C63   C     C_R   0.828819 0.784678 0.130641 -0.183768
C64   C     C_R   0.176630 0.572772 0.865063 -0.197280
H11   H     H_    0.613401 0.592217 0.319091 0.170242
H12   H     H_    0.400504 0.619776 0.677297 0.170320
H13   H     H_    0.667505 0.120215 0.413552 0.145109
H14   H     H_    0.324518 0.098075 0.598471 0.147336
H15   H     H_    0.753022 0.292988 0.371360 0.149595
H16   H     H_    0.231967 0.974037 0.645325 0.144118
H17   H     H_    0.832381 0.327702 0.289481 0.182693
H18   H     H_    0.148021 0.003533 0.721517 0.181670
H19   H     H_    0.834428 0.675696 0.091331 0.129414
H20   H     H_    0.177529 0.686485 0.903602 0.140611
H21   H     H_    0.750346 0.500483 0.134611 0.157849
H22   H     H_    0.268095 0.815909 0.854760 0.164306
O11   O     O_R   0.060820 0.290050 0.937800 -0.531645
O12   O     O_R   0.939180 0.790050 0.062200 -0.526418
O13   O     O_R   0.057690 0.616620 0.086540 -0.527489
O14   O     O_R   0.942310 0.116620 0.913460 -0.541389
C65   C     C_R   0.071176 0.449480 0.112245 0.738369
C66   C     C_R   0.928949 0.947123 0.887488 0.749888
O15   O     O_R   0.068010 0.619890 0.939770 -0.525484
O16   O     O_R   0.931990 0.119890 0.060230 -0.553069
O17   O     O_R   0.949640 0.787940 0.914460 -0.522415
O18   O     O_R   0.050360 0.287940 0.085540 -0.537618
C67   C     C_R   0.082699 0.450930 0.917002 0.710894
C68   C     C_R   0.916148 0.952326 0.081847 0.702787
O19   O     O_3   0.961210 0.453080 0.991940 -0.383043
O20   O     O_3   0.038790 0.953080 0.008060 -0.369310
V3    V     V_3+5 0.007200 0.728820 0.001500 1.513044
V4    V     V_3+5 0.992800 0.228820 0.998500 1.454204
Br1   Br    Br    0.003251 0.790479 0.761728 -0.581676
Br2   Br    Br    0.002144 0.597832 0.243050 -0.560702
N1    N     N_3   0.897956 0.246154 0.190843 -0.636561
H23   H     H_    0.944346 0.203957 0.195537 0.268714
H24   H     H_    0.888607 0.327860 0.145364 0.252855
N2    N     N_3   0.072574 0.181182 0.795792 -0.598506
H25   H     H_    0.061909 0.175349 0.740233 0.245476
H26   H     H_    0.033694 0.249687 0.812046 0.243269
Br3   Br    Br    0.645500 0.374055 0.207005 -0.583023
Br4   Br    Br    0.376511 0.881360 0.778338 -0.599185
N3    N     N_3   0.593072 0.037105 0.861789 -0.634762
H27   H     H_    0.602503 0.939956 0.902452 0.241256
H28   H     H_    0.544940 0.039028 0.849997 0.260693
N4    N     N_3   0.395812 0.173904 0.136696 -0.633831
H29   H     H_    0.376172 0.042706 0.126220 0.232600
H30   H     H_    0.443550 0.153227 0.147445 0.251517
Br5   Br    Br    0.682159 0.633505 0.543741 -0.580814
Br6   Br    Br    0.328745 0.592879 0.462465 -0.574780

loop_
_geom_bond_atom_site_label_1
_geom_bond_atom_site_label_2
_ccdc_geom_bond_type
C22   C24   A    
C41   C43   A    
O12   C68   A    
C7    C29   A    
C11   C13   A    
O13   V3    S    
O1    C3    A    
C60   N2    S    
O2    C4    A    
N4    H29   S    
O11   V4    S    
C23   C25   A    
O5    C3    A    
C14   H10   S    
C52   C54   A    
C1    C36   S    
O16   V4    S    
C43   C57   A    
C16   C20   A    
O15   V3    S    
C48   H18   S    
C5    C29   A    
C47   H17   S    
N1    H24   S    
C58   Br4   S    
H2    C24   S    
C56   C58   A    
C35   C37   A    
H1    C23   S    
C36   C38   A    
O11   C67   A    
C59   N1    S    
C7    C27   A    
C38   C40   A    
C37   H13   S    
O18   V4    S    
C30   Br2   S    
C47   C49   A    
C39   C45   A    
O17   V3    S    
C40   C42   A    
C59   C61   A    
C53   C63   A    
C18   C26   A    
C56   H22   S    
C15   C17   A    
C55   H21   S    
C65   O18   A    
C19   C27   A    
C9    C31   A    
C10   C32   A    
C24   C26   A    
O6    V2    S    
C13   C15   A    
C51   C53   A    
C2    C35   S    
C3    C32   S    
C2    O7    A    
C4    C31   S    
C6    C30   A    
O20   V3    S    
C33   C43   A    
N2    H26   S    
C55   C57   A    
C37   C39   A    
C50   C52   A    
C25   Br5   S    
C27   H5    S    
O5    V1    S    
C41   C51   A    
C57   Br3   S    
C5    H3    S    
C45   C47   A    
C42   C44   A    
O4    V2    S    
C9    H7    S    
O14   V4    S    
C10   H8    S    
C29   Br1   S    
C7    C66   S    
O6    C4    A    
C45   H15   S    
C61   C68   S    
O1    V2    S    
C5    C21   A    
O14   C66   A    
O2    V1    S    
C53   C55   A    
C64   H20   S    
C33   H11   S    
O4    C2    A    
C61   C63   A    
C8    C28   A    
C60   C62   A    
C33   C35   A    
N3    H27   S    
C17   C31   A    
C15   C19   A    
C20   C28   A    
C18   C32   A    
C54   C64   A    
O3    V1    S    
N2    H25   S    
C49   C51   A    
O16   C68   A    
C28   H6    S    
O15   C67   A    
C19   C21   A    
C6    H4    S    
C39   C41   A    
O12   V3    S    
C54   C56   A    
O3    C1    A    
N4    H30   S    
C48   C50   A    
C38   H14   S    
C9    C11   A    
C44   C58   A    
C10   C12   A    
C62   C67   S    
O13   C65   A    
C40   C46   A    
C8    C65   S    
C8    C30   A    
C20   C22   A    
O7    V1    S    
C17   C25   A    
C1    O8    A    
C21   C23   A    
O8    V2    S    
N1    H23   S    
C14   C16   A    
C63   H19   S    
C13   H9    S    
C34   C44   A    
C11   N3    S    
C12   C14   A    
C46   H16   S    
C34   C36   A    
O19   V4    S    
C6    C22   A    
C34   H12   S    
C46   C48   A    
O9    V2    S    
N3    H28   S    
C42   C52   A    
O10   V1    S    
C62   C64   A    
C26   Br6   S    
C66   O17   A    
C50   C60   A    
C12   N4    S    
C16   C18   A    
C49   C59   A    
