data_mof_unit_23558.cif
_audit_creation_date              2012-10-26T18:32:00-0400
_audit_creation_method            fapswitch 2.2
_symmetry_space_group_name_H-M    P1
_symmetry_Int_Tables_number       1
_space_group_crystal_system       triclinic
_cell_length_a                    12.448154
_cell_length_b                    13.227645
_cell_length_c                    14.757454
_cell_angle_alpha                 94.309899
_cell_angle_beta                  108.533845
_cell_angle_gamma                 116.926594
_cell_volume                      1983.96475146

loop_
_atom_site_label
_atom_site_type_symbol
_atom_type_description
_atom_site_fract_x
_atom_site_fract_y
_atom_site_fract_z
_atom_type_partial_charge
C1    C     C_R   0.651826 0.715166 0.510810 0.549187
C2    C     C_R   0.183516 0.455930 0.004111 -0.011093
C3    C     C_R   0.166610 0.517905 0.077201 -0.046224
C4    C     C_R   0.621176 0.519689 0.686350 0.563286
C5    C     C_R   0.275930 0.417914 0.034748 0.302808
C6    C     C_R   0.334755 0.423741 0.134515 0.236374
C7    C     C_R   0.229031 0.525466 0.179008 0.179459
C8    C     C_R   0.150061 0.956852 0.392381 -0.082142
C9    C     C_R   0.262556 0.159690 0.482093 0.012774
C10   C     C_R   0.750362 0.928199 0.591808 0.245518
C11   C     C_R   0.872109 0.026175 0.650405 0.276921
C12   C     C_R   0.879719 0.539825 0.919943 -0.055121
C13   C     C_R   0.984590 0.041897 0.636811 0.297227
C14   C     C_R   0.971084 0.979545 0.547294 0.027811
C15   C     C_R   0.848801 0.874497 0.493946 -0.111911
C16   C     C_R   0.347388 0.284765 0.487774 0.569130
C17   C     C_R   0.071881 0.013505 0.508943 0.052285
C18   C     C_R   0.052988 0.930609 0.429328 -0.001001
C19   C     C_R   0.934111 0.824140 0.382358 0.297388
C20   C     C_R   0.830942 0.802560 0.409653 -0.063168
C21   C     C_R   0.183445 0.128961 0.538317 0.234209
C22   C     C_R   0.255065 0.071190 0.416879 0.224919
C23   C     C_R   0.865355 0.601806 0.992363 -0.015083
C24   C     C_R   0.745383 0.841524 0.526477 -0.058943
C25   C     C_R   0.257732 0.702325 0.643181 -0.120249
C26   C     C_R   0.649204 0.328938 0.376199 0.110173
C27   C     C_R   0.720586 0.277836 0.361628 0.226442
C28   C     C_R   0.381251 0.484802 0.314080 0.579034
C29   C     C_R   0.855721 0.335721 0.419691 -0.075513
C30   C     C_R   0.924113 0.453342 0.475196 -0.041080
C31   C     C_R   0.844733 0.497868 0.491438 0.101606
C32   C     C_R   0.066256 0.524991 0.521689 -0.050962
C33   C     C_R   0.122473 0.636455 0.586818 -0.045285
C34   C     C_R   0.982221 0.513233 0.947113 -0.016135
C35   C     C_R   0.042834 0.680181 0.597009 0.152021
C36   C     C_R   0.907929 0.607562 0.558218 -0.038973
C37   C     C_R   0.157116 0.497280 0.502544 0.364927
C38   C     C_R   0.339360 0.663601 0.630868 0.342326
C39   C     C_R   0.695297 0.536711 0.793173 -0.026664
C40   C     C_R   0.314264 0.478726 0.207997 -0.017905
C41   C     C_R   0.746738 0.602860 0.968571 0.311216
C42   C     C_R   0.656908 0.561970 0.869051 0.218625
C43   C     C_R   0.813607 0.534783 0.821461 0.208146
C44   C     C_3   0.371249 0.014168 0.349038 -0.114744
C45   C     C_R   0.077348 0.560482 0.044755 0.010509
C46   C     C_3   0.901526 0.646035 0.317347 -0.037553
C47   C     C_3   0.331681 0.254134 0.690720 -0.003123
C48   C     C_3   0.560803 0.931137 0.537640 -0.058639
C49   C     C_3   0.718595 0.156325 0.239383 -0.080314
C50   C     C_3   0.332131 0.254162 0.154830 -0.036837
C51   C     C_3   0.141182 0.438947 0.761693 -0.029215
C52   C     C_3   0.985008 0.674412 0.795005 -0.083361
C53   C     C_R   0.084771 0.655285 0.102566 -0.049131
C54   C     C_R   0.978457 0.674195 0.078559 0.258101
C55   C     C_R   0.993320 0.443616 0.878387 -0.066012
C56   C     C_R   0.101801 0.428189 0.902841 0.305750
Cl1   Cl    Cl    0.007704 0.809859 0.137788 -0.532216
Cl2   Cl    Cl    0.502770 0.550867 0.843356 -0.470419
Cl3   Cl    Cl    0.320705 0.357075 0.952062 -0.390977
Cl4   Cl    Cl    0.121216 0.085167 0.747425 -0.416821
Cl5   Cl    Cl    0.884653 0.116021 0.752195 -0.417361
Cl6   Cl    Cl    0.505499 0.744378 0.710500 -0.411023
Cl7   Cl    Cl    0.182395 0.575050 0.267673 -0.597709
Cl8   Cl    Cl    0.109230 0.828744 0.656309 -0.654379
Cl9   Cl    Cl    0.103964 0.385564 0.398409 -0.555242
Cl10  Cl    Cl    0.702982 0.641903 0.062930 -0.374046
Cu1   Cu    Cu3+1 0.416420 0.526630 0.522910 1.161997
Cu2   Cu    Cu3+1 0.583580 0.473370 0.477090 0.984318
H1    H     H_    0.138541 0.889463 0.338040 0.209053
H2    H     H_    0.302039 0.954364 0.274284 0.172496
H3    H     H_    0.371846 0.963457 0.405742 0.085230
H4    H     H_    0.810321 0.592780 0.329030 0.137397
H5    H     H_    0.989821 0.662832 0.381461 0.127391
H6    H     H_    0.896186 0.593697 0.252022 0.202500
H7    H     H_    0.348173 0.180436 0.708024 0.160625
H8    H     H_    0.336888 0.301039 0.758729 0.251731
H9    H     H_    0.413179 0.317015 0.673758 0.097025
H10   H     H_    0.522372 0.870189 0.464334 0.113310
H11   H     H_    0.612056 0.024057 0.534123 0.120235
H12   H     H_    0.735236 0.728600 0.362881 0.165062
H13   H     H_    0.475438 0.916587 0.555212 0.164561
H14   H     H_    0.798760 0.140454 0.280678 0.157459
H15   H     H_    0.756904 0.234580 0.209795 0.161674
H16   H     H_    0.647650 0.079114 0.174951 0.170433
H17   H     H_    0.293858 0.246287 0.214133 0.138569
H18   H     H_    0.391946 0.210950 0.166307 0.164056
H19   H     H_    0.249104 0.205559 0.081292 0.180430
H20   H     H_    0.223063 0.530582 0.800477 0.151153
H21   H     H_    0.051996 0.439050 0.713778 0.102996
H22   H     H_    0.171656 0.400031 0.712531 0.203965
H23   H     H_    0.301116 0.782863 0.699102 0.209653
H24   H     H_    0.026764 0.713858 0.876096 0.133252
H25   H     H_    0.951146 0.730440 0.757509 0.196588
H26   H     H_    0.068115 0.678349 0.779864 0.172463
H27   H     H_    0.543696 0.281263 0.338403 0.177740
H28   H     H_    0.902108 0.283788 0.425588 0.175973
H29   H     H_    0.856952 0.638364 0.586655 0.212835
H30   H     H_    0.175207 0.718416 0.163827 0.175658
H31   H     H_    0.918842 0.401649 0.803925 0.195072
H32   H     H_    0.470965 0.056430 0.349690 0.190402
N1    N     N_R   0.290690 0.566960 0.557640 -0.218650
N2    N     N_R   0.709100 0.433710 0.442970 -0.284696
O1    O     O_R   0.545970 0.684450 0.528810 -0.427953
O2    O     O_3   0.910847 0.751481 0.297452 -0.495520
O3    O     O_3   0.207273 0.214841 0.614050 -0.536348
O4    O     O_3   0.643403 0.908523 0.612820 -0.455257
O5    O     O_3   0.652803 0.165871 0.298969 -0.617165
O6    O     O_3   0.412598 0.373149 0.159412 -0.508904
O7    O     O_3   0.114741 0.369736 0.828767 -0.451635
O8    O     O_3   0.880610 0.556130 0.759815 -0.585201
O9    O     O_R   0.687130 0.639470 0.490120 -0.558361
O10   O     O_R   0.519670 0.535100 0.660030 -0.433848
O11   O     O_R   0.660830 0.490120 0.621340 -0.476574
O12   O     O_R   0.312870 0.360530 0.509880 -0.437474
O13   O     O_R   0.454030 0.315550 0.471190 -0.487631
O14   O     O_R   0.339170 0.509880 0.378660 -0.400057
O15   O     O_R   0.480330 0.464900 0.339970 -0.487180
O16   O     O_3   0.341076 0.102190 0.368879 -0.562449

loop_
_geom_bond_atom_site_label_1
_geom_bond_atom_site_label_2
_ccdc_geom_bond_type
C1    O9    A    
C30   C32   A    
C55   C56   A    
C27   C29   A    
C11   C13   A    
C41   C42   A    
C19   C20   A    
C42   Cl2   S    
Cu1   O1    S    
C49   O5    S    
C13   Cl4   S    
C53   C54   A    
C12   C23   A    
Cu1   N1    S    
C26   C27   A    
C49   H16   S    
Cu1   O12   S    
Cu2   N2    S    
C47   H8    S    
C38   N1    A    
C3    C7    A    
C28   O15   A    
C51   H22   S    
C30   C31   A    
C25   C38   A    
C9    C22   A    
C28   C40   S    
C48   H13   S    
C44   H3    S    
C18   C19   A    
C48   H10   S    
C28   O14   A    
C50   H17   S    
C48   O4    S    
C35   C36   A    
C47   O3    S    
C37   Cl9   S    
C8    C22   A    
C7    C40   A    
C52   H26   S    
C35   Cl8   S    
C43   O8    S    
C27   O5    S    
C1    O1    A    
C46   H4    S    
Cu2   O11   S    
C4    O10   A    
C45   C53   A    
C34   C55   A    
C51   O7    S    
C13   C14   A    
C50   O6    S    
C14   C17   A    
C39   C42   A    
C15   C20   A    
C25   H23   S    
C20   H12   S    
Cu1   Cu2   S    
C31   N2    A    
C4    O11   A    
C5    Cl3   S    
C39   C43   A    
C10   C24   A    
C46   O2    S    
C3    C45   A    
C8    C18   A    
Cu2   O9    S    
C49   H14   S    
Cu1   O14   S    
C29   C30   A    
Cu2   O15   S    
C19   O2    S    
C4    C39   S    
C52   O8    S    
C17   C18   A    
C8    H1    S    
C52   H25   S    
C34   C45   A    
C32   C37   A    
C44   H2    S    
C7    Cl7   S    
C36   H29   S    
C50   H19   S    
C15   C24   A    
C6    C40   A    
C52   H24   S    
C2    C5    A    
C44   O16   S    
C47   H9    S    
C12   C34   A    
C16   O13   A    
C56   O7    S    
C46   H6    S    
C48   H11   S    
C23   C54   A    
C26   H27   S    
C22   O16   S    
C14   C15   A    
C9    C16   S    
C11   Cl5   S    
C16   O12   A    
C51   H20   S    
C29   H28   S    
C41   Cl10  S    
C53   H30   S    
C12   C43   A    
C23   C41   A    
C32   C33   A    
C49   H15   S    
C2    C3    A    
C47   H7    S    
C2    C56   A    
C26   N2    A    
C37   N1    A    
C44   H32   S    
C9    C21   A    
C5    C6    A    
C33   C35   A    
C51   H21   S    
C17   C21   A    
C10   O4    S    
C10   C11   A    
C50   H18   S    
Cu2   O13   S    
Cu1   O10   S    
C1    C24   S    
C55   H31   S    
C6    O6    S    
C31   C36   A    
C46   H5    S    
C21   O3    S    
C25   C33   A    
C38   Cl6   S    
C54   Cl1   S    
