data_mof_unit_44702.cif
_audit_creation_date              2012-12-10T17:02:05-0500
_audit_creation_method            fapswitch 2.2
_symmetry_space_group_name_H-M    P1
_symmetry_Int_Tables_number       1
_space_group_crystal_system       triclinic
_cell_length_a                    10.744143
_cell_length_b                    11.034534
_cell_length_c                    9.92996
_cell_angle_alpha                 111.566741
_cell_angle_beta                  97.797604
_cell_angle_gamma                 92.09686
_cell_volume                      1079.93258769

loop_
_atom_site_label
_atom_site_type_symbol
_atom_type_description
_atom_site_fract_x
_atom_site_fract_y
_atom_site_fract_z
_atom_type_partial_charge
C1    C     C_R   0.488852 0.253966 0.440170 0.897819
C2    C     C_2   0.484672 0.931021 0.487151 -0.217339
C3    C     C_2   0.514627 0.508032 0.079983 0.011425
C4    C     C_R   0.263434 0.502796 0.501825 0.781200
C5    C     C_2   0.479838 0.501915 0.924572 -0.002312
C6    C     C_R   0.506581 0.745991 0.560217 0.710392
C7    C     C_R   0.736818 0.497443 0.498387 0.829251
C8    C     C_R   0.138866 0.737215 0.524466 -0.169666
C9    C     C_R   0.077600 0.848758 0.534653 -0.130963
C10   C     C_R   0.947910 0.846623 0.533965 -0.082111
C11   C     C_R   0.878809 0.732790 0.522555 -0.157166
C12   C     C_R   0.070611 0.621040 0.513100 0.103492
C13   C     C_R   0.938951 0.618140 0.510987 0.058268
C14   C     C_2   0.352782 0.441297 0.847229 0.907039
C15   C     C_2   0.633640 0.585158 0.164959 0.916245
C16   C     C_2   0.867808 0.265583 0.484981 0.818381
C17   C     C_3   0.440977 0.964120 0.824191 0.097932
C18   C     C_3   0.362977 0.081254 0.851038 -0.371675
C19   C     C_3   0.266668 0.081001 0.950614 -0.867471
C20   C     C_R   0.130438 0.507545 0.504474 -0.077872
C21   C     C_R   0.062714 0.393372 0.492349 -0.213963
C22   C     C_R   0.933457 0.388735 0.491265 -0.007748
C23   C     C_R   0.871213 0.501056 0.498799 -0.143725
C24   C     C_2   0.479259 0.113663 0.406746 -0.356018
C25   C     C_2   0.491504 0.070354 0.516461 -0.120593
C26   C     C_2   0.504647 0.886975 0.596599 0.275304
Cu1   Cu    Cu3+1 0.521920 0.521810 0.644910 1.015635
Cu2   Cu    Cu3+1 0.478080 0.478190 0.355090 0.989038
H1    H     H_    0.111758 0.307492 0.485169 0.150313
H2    H     H_    0.509216 0.138738 0.629835 0.249161
H3    H     H_    0.245058 0.283872 0.697472 0.311955
H4    H     H_    0.823185 0.590053 0.206466 0.335642
H5    H     H_    0.747025 0.179008 0.567911 0.336670
H6    H     H_    0.488675 0.965922 0.931540 0.185027
H7    H     H_    0.375961 0.872343 0.773562 0.124701
H8    H     H_    0.426916 0.173172 0.902601 0.252204
H9    H     H_    0.312310 0.077396 0.744165 0.230349
H10   H     H_    0.200742 0.990481 0.900038 0.265568
H11   H     H_    0.211295 0.166868 0.966735 0.265425
H12   H     H_    0.462323 0.045891 0.292962 0.160222
H13   H     H_    0.315190 0.087110 0.059390 0.260386
H14   H     H_    0.642813 0.596227 0.920054 0.219783
H15   H     H_    0.363511 0.390840 0.074539 0.204293
H16   H     H_    0.239614 0.742671 0.525561 0.103903
H17   H     H_    0.130933 0.937146 0.543220 0.146026
H18   H     H_    0.900597 0.933453 0.542218 0.172562
H19   H     H_    0.778300 0.735536 0.522670 0.148128
H20   H     H_    0.463329 0.863488 0.373421 0.192443
N1    N     N_2   0.445130 0.445430 0.137370 -0.325143
N2    N     N_2   0.554930 0.554500 0.862630 -0.315207
O1    O     O_R   0.511700 0.332330 0.577400 -0.519330
O2    O     O_R   0.337036 0.315682 0.738881 -0.788058
O3    O     O_2   0.634703 0.702187 0.235933 -0.621232
O4    O     O_R   0.746631 0.526178 0.150707 -0.744478
O5    O     O_2   0.896087 0.160011 0.404336 -0.593163
O6    O     O_R   0.779053 0.269532 0.576634 -0.741610
O7    O     O_3   0.535855 0.974024 0.741437 -0.597646
O8    O     O_R   0.474680 0.295500 0.332650 -0.583644
O9    O     O_R   0.338160 0.518420 0.622400 -0.563622
O10   O     O_R   0.301140 0.481590 0.377650 -0.571855
O11   O     O_R   0.525320 0.704500 0.667350 -0.571197
O12   O     O_R   0.488300 0.667670 0.422600 -0.577304
O13   O     O_R   0.698860 0.518410 0.622350 -0.536642
O14   O     O_R   0.661840 0.481580 0.377600 -0.561718
O15   O     O_2   0.260776 0.499801 0.883362 -0.595712

loop_
_geom_bond_atom_site_label_1
_geom_bond_atom_site_label_2
_ccdc_geom_bond_type
C21   H1    S    
C10   H18   S    
C16   O6    S    
C9    H17   S    
C19   H10   S    
Cu2   O8    S    
C11   C13   A    
C9    C10   A    
C11   H19   S    
Cu1   N2    S    
H3    O2    S    
C8    C12   A    
C4    O10   A    
H5    O6    S    
C17   C18   S    
C3    N1    D    
C16   O5    D    
C19   H13   S    
C2    C26   D    
Cu1   O9    S    
C1    O8    A    
C12   C13   A    
C1    O1    A    
C7    O13   A    
C5    C14   S    
C6    C26   S    
C6    O12   A    
Cu1   O13   S    
C12   C20   A    
H14   N2    S    
C7    C23   S    
C19   H11   S    
C4    O9    A    
H4    O4    S    
C24   H12   S    
C18   H9    S    
Cu1   O1    S    
C18   C19   S    
C2    C25   S    
Cu2   O10   S    
Cu2   O12   S    
C7    O14   A    
C26   O7    S    
C5    N2    D    
Cu2   O14   S    
C17   H6    S    
C4    C20   S    
C15   O4    S    
C15   O3    D    
Cu1   Cu2   S    
C3    C15   S    
C24   C25   D    
C6    O11   A    
C1    C24   S    
C13   C23   A    
C10   C11   A    
C25   H2    S    
C22   C23   A    
H15   N1    S    
C16   C22   S    
C17   H7    S    
C2    H20   S    
C20   C21   A    
C21   C22   A    
C18   H8    S    
C14   O15   D    
C14   O2    S    
C8    H16   S    
C17   O7    S    
C8    C9    A    
C3    C5    S    
Cu2   N1    S    
Cu1   O11   S    
