data_mof_unit_58829.cif
_audit_creation_date              2012-10-26T20:19:33-0400
_audit_creation_method            fapswitch 2.2
_symmetry_space_group_name_H-M    P1
_symmetry_Int_Tables_number       1
_space_group_crystal_system       triclinic
_cell_length_a                    10.74311
_cell_length_b                    10.776804
_cell_length_c                    9.631195
_cell_angle_alpha                 89.715249
_cell_angle_beta                  89.951129
_cell_angle_gamma                 94.130846
_cell_volume                      1112.15366653

loop_
_atom_site_label
_atom_site_type_symbol
_atom_type_description
_atom_site_fract_x
_atom_site_fract_y
_atom_site_fract_z
_atom_type_partial_charge
C1    C     C_R   0.495039 0.262603 0.500359 0.535881
C2    C     C_R   0.392017 0.057318 0.574381 0.016487
C3    C     C_R   0.486920 0.128245 0.500857 0.022452
C4    C     C_R   0.260005 0.498788 0.500131 0.521657
C5    C     C_R   0.576591 0.070571 0.424464 -0.146443
C6    C     C_R   0.577053 0.942677 0.424009 -0.123094
C7    C     C_R   0.487621 0.870369 0.499582 0.006489
C8    C     C_R   0.673654 0.671912 0.135493 0.386846
C9    C     C_R   0.754777 0.750387 0.057278 -0.104546
C10   C     C_R   0.751691 0.747313 0.915485 -0.237576
C11   C     C_R   0.667193 0.665376 0.849745 -0.109497
C12   C     C_3   0.877933 0.500825 0.500904 0.026037
C13   C     C_R   0.582793 0.581979 0.923161 0.109043
C14   C     C_R   0.583981 0.583220 0.072888 0.148865
C15   C     C_R   0.421503 0.421823 0.074343 -0.003774
C16   C     C_R   0.496530 0.737028 0.499790 0.572258
C17   C     C_R   0.421376 0.422019 0.926807 0.000991
C18   C     C_R   0.739946 0.501236 0.500234 0.608788
C19   C     C_3   0.060268 0.370366 0.448321 -0.062832
C20   C     C_3   0.916236 0.374265 0.445669 -0.291895
C21   C     C_3   0.072936 0.519565 0.649674 -0.259579
C22   C     C_3   0.080298 0.607063 0.408541 -0.187890
C23   C     C_3   0.930293 0.519207 0.650456 -0.227018
C24   C     C_3   0.121699 0.498335 0.499926 -0.032063
C25   C     C_2   0.100723 0.100102 0.791661 0.574597
C26   C     C_2   0.108374 0.328659 0.309316 0.573670
C27   C     C_3   0.936797 0.606663 0.406321 0.271536
C28   C     C_R   0.295099 0.113386 0.644959 -0.103509
C29   C     C_R   0.200842 0.041000 0.715452 0.072397
C30   C     C_R   0.201938 0.911353 0.712635 -0.105917
C31   C     C_R   0.295756 0.854705 0.642313 -0.138012
C32   C     C_R   0.392412 0.926230 0.573404 0.017047
Cu1   Cu    Cu3+1 0.499990 0.499990 0.640660 0.938816
Cu2   Cu    Cu3+1 0.500010 0.500010 0.359340 1.041098
F1    F     F_    0.900596 0.721174 0.450006 -0.619878
F2    F     F_    0.690624 0.691096 0.270745 -0.606958
H1    H     H_    0.083037 0.298657 0.526310 0.142030
H2    H     H_    0.821228 0.815502 0.108257 0.180165
H3    H     H_    0.815179 0.809257 0.855562 0.178202
H4    H     H_    0.673114 0.672182 0.740454 0.216468
H5    H     H_    0.356709 0.357850 0.872391 0.139901
H6    H     H_    0.878382 0.359026 0.339001 0.151956
H7    H     H_    0.873277 0.297243 0.511297 0.120165
H8    H     H_    0.101887 0.445708 0.721246 0.188099
H9    H     H_    0.891388 0.443100 0.719969 0.150451
H10   H     H_    0.121025 0.697142 0.450353 0.154871
H11   H     H_    0.116032 0.600937 0.300750 0.155986
H12   H     H_    0.113255 0.609962 0.690831 0.130229
H13   H     H_    0.904420 0.592139 0.297534 0.180049
H14   H     H_    0.940076 0.077315 0.900821 0.344524
H15   H     H_    0.117819 0.354630 0.101762 0.347740
H16   H     H_    0.902621 0.608672 0.693905 0.173367
H17   H     H_    0.648505 0.125190 0.367390 0.128767
H18   H     H_    0.290581 0.213271 0.643782 0.149538
H19   H     H_    0.129707 0.853027 0.764542 0.158899
H20   H     H_    0.290369 0.754383 0.641094 0.135344
H21   H     H_    0.649631 0.900275 0.367044 0.206131
H22   H     H_    0.357377 0.357287 0.129602 0.160263
N1    N     N_R   0.501200 0.501210 0.147910 -0.244285
N2    N     N_R   0.501250 0.501290 0.852040 -0.244977
O1    O     O_R   0.499990 0.319640 0.618810 -0.513458
O2    O     O_R   0.002254 0.026331 0.851557 -0.708057
O3    O     O_2   0.169215 0.237143 0.303785 -0.516536
O4    O     O_R   0.081758 0.392803 0.187549 -0.724669
O5    O     O_R   0.500000 0.319660 0.381240 -0.497626
O6    O     O_R   0.317680 0.499970 0.618790 -0.525017
O7    O     O_R   0.317700 0.499990 0.381210 -0.490115
O8    O     O_R   0.500000 0.680340 0.618760 -0.533141
O9    O     O_R   0.500010 0.680360 0.381190 -0.422713
O10   O     O_R   0.682300 0.500010 0.618790 -0.535394
O11   O     O_R   0.682320 0.500030 0.381210 -0.437359
O12   O     O_2   0.104168 0.213219 0.803262 -0.584272

loop_
_geom_bond_atom_site_label_1
_geom_bond_atom_site_label_2
_ccdc_geom_bond_type
Cu2   O7    S    
C18   O10   A    
C4    O7    A    
C1    O5    A    
C26   O3    D    
C6    C7    A    
C16   O8    A    
C26   O4    S    
C31   H20   S    
C21   H8    S    
C19   H1    S    
C9    C10   A    
C30   H19   S    
C20   H6    S    
C19   C20   S    
C6    H21   S    
C22   C27   S    
C21   H12   S    
Cu1   O1    S    
C12   C20   S    
C2    C3    A    
C3    C5    A    
C13   N2    A    
C13   C14   A    
C4    O6    A    
C14   N1    A    
C11   C13   A    
Cu2   O9    S    
C23   H16   S    
C29   C30   A    
C25   O12   D    
Cu1   O10   S    
C19   C24   S    
C4    C24   S    
C23   H9    S    
C5    C6    A    
Cu2   O5    S    
C5    H17   S    
C28   C29   A    
C22   H10   S    
Cu1   Cu2   S    
Cu1   O6    S    
C22   H11   S    
Cu1   N2    S    
C22   C24   S    
C25   O2    S    
C21   C23   S    
C25   C29   S    
C30   C31   A    
H14   O2    S    
C15   H22   S    
C8    C14   A    
C17   H5    S    
C10   C11   A    
H15   O4    S    
C17   N2    A    
C11   H4    S    
C12   C23   S    
C20   H7    S    
C2    C32   A    
C8    F2    S    
C21   C24   S    
C12   C18   S    
C18   O11   A    
C15   C17   A    
C19   C26   S    
C28   H18   S    
C9    H2    S    
C2    C28   A    
C7    C32   A    
C12   C27   S    
C27   F1    S    
Cu2   N1    S    
C15   N1    A    
Cu2   O11   S    
C10   H3    S    
C31   C32   A    
C7    C16   S    
C16   O9    A    
C27   H13   S    
Cu1   O8    S    
C8    C9    A    
C1    C3    S    
C1    O1    A    
