data_mof_unit_30799.cif
_audit_creation_date              2012-12-11T15:42:42-0500
_audit_creation_method            fapswitch 2.2
_symmetry_space_group_name_H-M    P1
_symmetry_Int_Tables_number       1
_space_group_crystal_system       triclinic
_cell_length_a                    6.92116
_cell_length_b                    14.573816
_cell_length_c                    16.207224
_cell_angle_alpha                 90.359701
_cell_angle_beta                  90.364463
_cell_angle_gamma                 90.078246
_cell_volume                      1634.71870405

loop_
_atom_site_label
_atom_site_type_symbol
_atom_type_description
_atom_site_fract_x
_atom_site_fract_y
_atom_site_fract_z
_atom_type_partial_charge
O1    O     O_R   0.505810 0.583360 0.413880 -0.540869
O2    O     O_R   0.175870 0.595480 0.585520 -0.545105
O3    O     O_R   0.005540 0.416640 0.586120 -0.539226
C1    C     C_R   0.346194 0.616289 0.615608 0.700156
O4    O     O_R   0.176100 0.594390 0.414490 -0.542259
O5    O     O_R   0.005770 0.415540 0.413870 -0.539690
C2    C     C_R   0.344255 0.618752 0.387370 0.681977
O6    O     O_R   0.505580 0.584460 0.586130 -0.537591
O7    O     O_3   0.339190 0.441320 0.500000 -0.366420
V1    V     V_3+5 0.064350 0.510890 0.500000 1.385104
O8    O     O_R   0.676050 0.404520 0.414480 -0.543074
C3    C     C_R   0.844824 0.382030 0.385681 0.686195
O9    O     O_R   0.675830 0.405610 0.585510 -0.539675
C4    C     C_R   0.845332 0.383754 0.613828 0.750859
V2    V     V_3+5 0.564340 0.489110 0.500000 1.389066
O10   O     O_3   0.839370 0.558680 0.500000 -0.376239
C5    C     C_2   0.719929 0.209102 0.785763 -0.128074
C6    C     C_2   0.885347 0.181565 0.822411 -0.313561
H1    H     H_    0.583512 0.180765 0.806506 0.135938
H2    H     H_    0.023433 0.209147 0.803679 0.127501
C7    C     C_2   0.708103 0.277594 0.717845 -0.136830
C8    C     C_2   0.862099 0.315664 0.680714 -0.311243
H3    H     H_    0.563854 0.296678 0.697581 0.134675
H4    H     H_    0.007582 0.297415 0.699108 0.129449
C9    C     C_R   0.047784 0.223190 0.219894 -0.159140
H5    H     H_    0.188849 0.204865 0.196515 0.116210
C10   C     C_R   0.036150 0.287131 0.284604 -0.150316
H6    H     H_    0.168999 0.316227 0.308880 0.119624
C11   C     C_R   0.856047 0.313225 0.317352 -0.046805
C12   C     C_R   0.687922 0.273513 0.283475 -0.158364
H7    H     H_    0.546859 0.291829 0.306862 0.116556
C13   C     C_R   0.699556 0.209571 0.218764 -0.150364
H8    H     H_    0.566710 0.180467 0.194493 0.118749
C14   C     C_R   0.879654 0.183521 0.185983 -0.046367
C15   C     C_R   0.206994 0.743850 0.699258 -0.203082
H9    H     H_    0.082085 0.740763 0.658720 0.136166
C16   C     C_R   0.211108 0.809098 0.763484 0.163807
C17   C     C_R   0.374928 0.814156 0.817085 -0.098788
C18   C     C_R   0.529533 0.754039 0.803082 -0.197626
H10   H     H_    0.654421 0.756997 0.843675 0.132746
C19   C     C_R   0.525732 0.689028 0.738684 0.162232
C20   C     C_R   0.361360 0.683556 0.685426 -0.097868
C21   C     C_R   0.197823 0.752125 0.303856 0.084399
C22   C     C_R   0.214084 0.812534 0.236716 -0.173403
H11   H     H_    0.097063 0.859695 0.223621 0.116245
C23   C     C_R   0.380194 0.815334 0.187643 -0.066142
C24   C     C_R   0.533902 0.756546 0.206663 -0.169811
H12   H     H_    0.664591 0.757424 0.170268 0.125302
C25   C     C_R   0.519322 0.694264 0.271701 -0.183575
H13   H     H_    0.639377 0.648283 0.282672 0.122359
C26   C     C_R   0.352163 0.689637 0.320871 -0.065883
O11   O     O_R   0.230120 0.912300 0.917180 -0.535596
O12   O     O_R   0.559740 0.902430 0.088770 -0.543404
O13   O     O_R   0.729930 0.081310 0.089370 -0.540653
C27   C     C_R   0.391198 0.880942 0.117884 0.695402
O14   O     O_R   0.559840 0.901330 0.917750 -0.546636
O15   O     O_R   0.730030 0.080210 0.917120 -0.536285
C28   C     C_R   0.389629 0.880919 0.887350 0.707050
O16   O     O_R   0.230020 0.913400 0.089430 -0.540025
O17   O     O_3   0.396460 0.055470 0.003290 -0.369844
V3    V     V_3+5 0.671360 0.985960 0.003250 1.395647
O18   O     O_R   0.059740 0.091300 0.917690 -0.545218
C29   C     C_R   0.890757 0.113139 0.889370 0.748074
O19   O     O_R   0.059640 0.092400 0.088720 -0.544605
C30   C     C_R   0.890873 0.114805 0.117581 0.684561
V4    V     V_3+5 0.171350 0.007820 0.003190 1.395437
O20   O     O_3   0.896380 0.938200 0.003220 -0.371229
C31   C     C_3   0.040676 0.873188 0.771072 -0.739365
H14   H     H_    0.936362 0.864481 0.719210 0.187545
H15   H     H_    0.960881 0.859009 0.828777 0.220263
H16   H     H_    0.090796 0.945599 0.770489 0.195678
C32   C     C_3   0.697326 0.625715 0.730524 -0.735517
H17   H     H_    0.775601 0.640243 0.672504 0.218807
H18   H     H_    0.648829 0.553070 0.731393 0.198163
H19   H     H_    0.802562 0.634982 0.781952 0.190026
C33   C     C_3   0.016287 0.760015 0.355851 -0.357559
C34   C     C_3   0.059939 0.802262 0.441016 -0.283754
C35   C     C_3   0.876292 0.811574 0.492090 -0.756047
H20   H     H_    0.769150 0.855348 0.459635 0.222252
H21   H     H_    0.811472 0.743084 0.503270 0.241595
H22   H     H_    0.911613 0.843927 0.552534 0.205492
H23   H     H_    0.165192 0.759651 0.475631 0.187485
H24   H     H_    0.124532 0.871501 0.432972 0.186711
H25   H     H_    0.908579 0.804906 0.324777 0.163332
H26   H     H_    0.942266 0.692893 0.360911 0.194290

loop_
_geom_bond_atom_site_label_1
_geom_bond_atom_site_label_2
_ccdc_geom_bond_type
C27   O16   A    
C3    C11   S    
C10   C11   A    
C19   C20   A    
C15   H9    S    
C1    O6    A    
C33   H25   S    
C24   C25   A    
O13   C30   A    
C34   C35   S    
O18   C29   A    
C15   C16   A    
C16   C17   A    
O16   V4    S    
O5    C3    A    
C17   C18   A    
C35   H21   S    
C6    C29   S    
C34   H24   S    
V2    O10   S    
C16   C31   S    
C15   C20   A    
C17   C28   S    
O8    V2    S    
C31   H14   S    
C25   C26   A    
C23   C27   S    
O1    V2    S    
O7    V1    S    
C9    C14   A    
V4    O20   S    
O17   V4    S    
O9    C4    A    
O12   V3    S    
C32   H19   S    
C14   C30   S    
C22   C23   A    
O15   C29   A    
O12   C27   A    
O18   V4    S    
C33   C34   S    
C32   H18   S    
C18   H10   S    
O4    C2    A    
C35   H20   S    
C9    H5    S    
C5    C7    S    
O17   V3    S    
C13   C14   A    
O2    C1    A    
C21   C22   A    
C11   C12   A    
V3    O20   S    
C24   H12   S    
C5    C6    D    
O3    C4    A    
O11   C28   A    
C19   C32   S    
O6    V2    S    
O9    V2    S    
C8    H4    S    
O2    V1    S    
O11   V4    S    
C22   H11   S    
C21   C33   S    
C23   C24   A    
O1    C2    A    
C32   H17   S    
O5    V1    S    
O8    C3    A    
O15   V3    S    
O13   V3    S    
C9    C10   A    
C13   H8    S    
C4    C8    S    
C7    H3    S    
O7    V2    S    
C2    C26   S    
O4    V1    S    
O3    V1    S    
V1    O10   S    
O19   C30   A    
C12   C13   A    
C35   H22   S    
C21   C26   A    
C12   H7    S    
C1    C20   S    
C34   H23   S    
C31   H16   S    
C5    H1    S    
O14   C28   A    
C6    H2    S    
C18   C19   A    
C31   H15   S    
C25   H13   S    
C10   H6    S    
O14   V3    S    
C7    C8    D    
C33   H26   S    
O19   V4    S    
