data_mof_unit_67467.cif
_audit_creation_date              2013-03-05T15:40:59-0500
_audit_creation_method            fapswitch 2.2
_symmetry_space_group_name_H-M    P1
_symmetry_Int_Tables_number       1
_space_group_crystal_system       triclinic
_cell_length_a                    10.774479
_cell_length_b                    8.778172
_cell_length_c                    7.453299
_cell_angle_alpha                 103.089402
_cell_angle_beta                  95.226993
_cell_angle_gamma                 93.834441
_cell_volume                      680.975613188

loop_
_atom_site_label
_atom_site_type_symbol
_atom_site_description
_atom_site_fract_x
_atom_site_fract_y
_atom_site_fract_z
_atom_type_partial_charge
O1    O     O_R   0.509140 0.286130 0.619770 -0.615424
O2    O     O_R   0.485380 0.256770 0.308360 -0.570148
C1    C     C_R   0.498897 0.199959 0.454932 0.868974
O3    O     O_R   0.329570 0.514650 0.655700 -0.497765
O4    O     O_R   0.305810 0.485300 0.344290 -0.548380
C2    C     C_R   0.259674 0.495368 0.500234 0.873025
Cu1   Cu    Cu3+1 0.514070 0.517380 0.684380 0.980387
Cu2   Cu    Cu3+1 0.485930 0.482620 0.315620 1.014395
O5    O     O_R   0.514620 0.743230 0.691640 -0.567287
O6    O     O_R   0.490860 0.713870 0.380230 -0.597735
O7    O     O_R   0.694190 0.514700 0.655710 -0.618430
O8    O     O_R   0.670430 0.485350 0.344300 -0.582604
C3    C     C_R   0.511375 0.800696 0.549253 0.885081
C4    C     C_R   0.740003 0.502982 0.500012 0.853309
C5    C     C_3   0.070219 0.399167 0.629152 0.253552
H1    H     H_    0.086689 0.276063 0.567549 0.159368
C6    C     C_3   0.928778 0.406227 0.631791 -0.456073
H2    H     H_    0.882334 0.284473 0.583655 0.165599
H3    H     H_    0.904060 0.445344 0.774427 0.228200
C7    C     C_3   0.091286 0.683770 0.567034 0.370275
C8    C     C_3   0.053350 0.432015 0.302918 0.130206
C9    C     C_3   0.122173 0.504613 0.502864 -0.180262
H4    H     H_    0.080479 0.504398 0.207318 0.210029
C10   C     C_3   0.878062 0.508941 0.502032 -0.042822
C11   C     C_3   0.941176 0.685094 0.560377 0.352155
C12   C     C_3   0.910979 0.428605 0.305254 -0.438887
H5    H     H_    0.867152 0.305394 0.265820 0.219192
H6    H     H_    0.871330 0.484785 0.195990 0.221111
C13   C     C_2   0.499768 0.033096 0.438086 -0.408699
H7    H     H_    0.473447 0.959406 0.299984 0.178082
C14   C     C_2   0.526156 0.970070 0.585815 -0.037062
N1    N     N_2   0.464720 0.456420 0.038520 -0.185469
H8    H     H_    0.400729 0.377126 0.947567 0.267396
N2    N     N_2   0.535280 0.543580 0.961480 -0.223190
H9    H     H_    0.599241 0.623148 0.052575 0.235641
Cl1   Cl    Cl    0.144396 0.429400 0.860628 -0.588516
C15   C     C_3   0.151301 0.786961 0.442619 -0.355146
C16   C     C_3   0.154008 0.965677 0.514777 -0.640895
H10   H     H_    0.061199 0.002538 0.549247 0.277244
H11   H     H_    0.223306 0.008798 0.638813 0.265570
H12   H     H_    0.184149 0.023644 0.406336 0.259541
H13   H     H_    0.250299 0.764615 0.430802 0.198829
H14   H     H_    0.105714 0.756333 0.298332 0.239171
Cl2   Cl    Cl    0.877467 0.779347 0.382404 -0.783079
C17   C     C_3   0.567237 0.070854 0.785882 -0.328782
C18   C     C_3   0.604552 0.995057 0.946783 -0.763484
H15   H     H_    0.521910 0.931341 0.984152 0.278940
H16   H     H_    0.679314 0.916399 0.915926 0.250793
H17   H     H_    0.641376 0.088752 0.070872 0.235709
H18   H     H_    0.649647 0.152387 0.780203 0.221416
H19   H     H_    0.487714 0.137696 0.832863 0.234348
Cl3   Cl    Cl    0.172558 0.767588 0.796469 -0.571706
C19   C     C_3   0.896317 0.791622 0.737859 -0.302022
C20   C     C_3   0.903564 0.740945 0.922490 -0.722737
H20   H     H_    0.818280 0.667513 0.933199 0.240281
H21   H     H_    0.985810 0.678126 0.949254 0.309938
H22   H     H_    0.908453 0.848067 0.036413 0.294209
H23   H     H_    0.948317 0.909577 0.764256 0.253766
H24   H     H_    0.797226 0.811885 0.705187 0.199365
Cl4   Cl    Cl    0.093762 0.237399 0.201311 -0.598496

loop_
_geom_bond_atom_site_label_1
_geom_bond_atom_site_label_2
_geom_bond_distance
_ccdc_geom_bond_type
C15   H14   1.106882 S    
O4    Cu2   1.972795 S    
Cu1   O7    1.972795 S    
C8    C12   1.534025 S    
C5    C6    1.531082 S    
C15   C16   1.536264 S    
C19   H23   1.111211 S    
C12   H6    1.111579 S    
C7    C9    1.603472 S    
Cu2   O8    1.977842 S    
C20   H22   1.109757 S    
N1    H8    1.027784 S    
C6    H2    1.115118 S    
C19   H24   1.108361 S    
Cu1   Cu2   2.682368 S    
C13   C14   1.356169 D    
C18   H15   1.110135 S    
C19   C20   1.536238 S    
C10   C11   1.594837 S    
C16   H11   1.110565 S    
C7    C15   1.584273 S    
C18   H17   1.110955 S    
C1    C13   1.442254 S    
C12   H5    1.114262 S    
C13   H7    1.085837 S    
C17   H18   1.112667 S    
C8    Cl4   1.804221 S    
O3    Cu1   1.977843 S    
O4    C2    1.292460 A    
C11   Cl2   1.822766 S    
Cu2   O6    1.973214 S    
O8    C4    1.295142 A    
C6    H3    1.103408 S    
C11   C19   1.573078 S    
O2    C1    1.300320 A    
C18   H16   1.102141 S    
C8    H4    1.102289 S    
C16   H10   1.105934 S    
N2    H9    1.029238 S    
O7    C4    1.287635 A    
C20   H21   1.100962 S    
C6    C10   1.552889 S    
C7    C11   1.614492 S    
C17   H19   1.108995 S    
C5    H1    1.107172 S    
Cu2   N1    2.015552 S    
C17   C18   1.533585 S    
C5    Cl1   1.788492 S    
Cu1   N2    2.015552 S    
C16   H12   1.108887 S    
C7    Cl3   1.817551 S    
O3    C2    1.293669 A    
C14   C17   1.559485 S    
C4    C10   1.483514 S    
C15   H13   1.105103 S    
Cu1   O5    1.970596 S    
O5    C3    1.272798 A    
C20   H20   1.106207 S    
O1    Cu1   1.973214 S    
N1    N2    1.301462 D    
C8    C9    1.575483 S    
C3    C14   1.444678 S    
C5    C9    1.573981 S    
O2    Cu2   1.970597 S    
C10   C12   1.560091 S    
O1    C1    1.279446 A    
O6    C3    1.307152 A    
C2    C9    1.490805 S    
