data_mof_unit_17033.cif
_audit_creation_date              2012-10-26T20:03:22-0400
_audit_creation_method            fapswitch 2.2
_symmetry_space_group_name_H-M    P1
_symmetry_Int_Tables_number       1
_space_group_crystal_system       triclinic
_cell_length_a                    10.625221
_cell_length_b                    12.340144
_cell_length_c                    13.123884
_cell_angle_alpha                 116.622876
_cell_angle_beta                  77.84708
_cell_angle_gamma                 100.96972
_cell_volume                      1494.75173534

loop_
_atom_site_label
_atom_site_type_symbol
_atom_type_description
_atom_site_fract_x
_atom_site_fract_y
_atom_site_fract_z
_atom_type_partial_charge
C1    C     C_R   0.512129 0.854962 0.286298 0.523047
C2    C     C_R   0.495951 0.566397 0.008861 0.033706
C3    C     C_R   0.457452 0.652262 0.122613 0.025840
C4    C     C_R   0.740179 0.999663 0.500648 0.553335
C5    C     C_R   0.448956 0.440987 0.976345 -0.008074
C6    C     C_R   0.353829 0.405323 0.052729 0.069917
C7    C     C_R   0.305639 0.494694 0.158848 -0.121861
C8    C     C_R   0.355623 0.615858 0.192718 -0.140761
C9    C     C_R   0.495823 0.349961 0.870675 -0.172150
C10   C     C_R   0.350884 0.192321 0.911591 0.098513
C11   C     C_R   0.520584 0.772999 0.162642 -0.000993
C12   C     C_3   0.021642 0.026670 0.607997 -0.098699
C13   C     C_R   0.710468 0.350218 0.334424 -0.147471
C14   C     C_R   0.326645 0.763580 0.647571 0.033684
C15   C     C_R   0.295899 0.675386 0.689521 -0.150673
C16   C     C_R   0.477824 0.145120 0.713828 0.568515
C17   C     C_R   0.364581 0.573349 0.641270 0.087001
C18   C     C_R   0.461210 0.555432 0.543019 0.035033
C19   C     C_R   0.493394 0.653222 0.507840 0.160029
C20   C     C_R   0.531128 0.449008 0.480492 0.004163
C21   C     C_R   0.636801 0.449145 0.393697 0.028823
C22   C     C_R   0.668221 0.547236 0.365038 -0.185000
C23   C     C_3   0.935872 0.917033 0.533019 0.116134
C24   C     C_R   0.597291 0.645952 0.419747 -0.096198
C25   C     C_R   0.500100 0.340031 0.496278 0.059479
C26   C     C_R   0.678678 0.249594 0.359208 0.042691
C27   C     C_R   0.259910 0.000875 0.500211 0.547960
C28   C     C_3   0.979745 0.975008 0.394402 -0.151243
C29   C     C_3   0.038665 0.890221 0.426121 -0.128475
C30   C     C_3   0.123584 0.002088 0.500292 0.026897
C31   C     C_3   0.067517 0.086707 0.468118 -0.124403
C32   C     C_3   0.962744 0.110710 0.575405 -0.134967
C33   C     C_3   0.876836 0.999160 0.501606 0.069923
C34   C     C_R   0.306572 0.281229 0.021266 0.104635
C35   C     C_R   0.444437 0.228122 0.835710 0.016929
C36   C     C_R   0.603767 0.812055 0.084450 -0.136356
C37   C     C_R   0.629675 0.731649 0.969478 -0.142754
C38   C     C_R   0.578838 0.609801 0.931967 -0.124838
Cu1   Cu    Cu3+1 0.529830 0.098270 0.475420 0.923269
Cu2   Cu    Cu3+1 0.470170 0.901730 0.524580 0.938234
H1    H     H_    0.572955 0.371434 0.812516 0.128680
H2    H     H_    0.229085 0.471647 0.217156 0.151607
H3    H     H_    0.071513 0.799699 0.366286 0.099522
H4    H     H_    0.651484 0.904402 0.112733 0.125057
H5    H     H_    0.692938 0.763079 0.909543 0.124731
H6    H     H_    0.735589 0.173192 0.314617 0.120681
H7    H     H_    0.792126 0.350760 0.269226 0.094925
H8    H     H_    0.274240 0.842903 0.687496 0.153371
H9    H     H_    0.243445 0.462001 0.702852 0.224981
H10   H     H_    0.360521 0.548720 0.784318 0.243574
H11   H     H_    0.125009 0.157057 0.441265 0.128647
H12   H     H_    0.603580 0.552913 0.841619 0.116683
H13   H     H_    0.041059 0.046211 0.694828 0.106085
H14   H     H_    0.927780 0.795408 0.599482 0.218898
H15   H     H_    0.835076 0.750444 0.496412 0.228945
H16   H     H_    0.314580 0.035480 0.932760 0.227933
H17   H     H_    0.197989 0.060882 0.877266 0.210592
H18   H     H_    0.249034 0.184825 0.117424 0.233017
H19   H     H_    0.128152 0.204143 0.062279 0.223407
H20   H     H_    0.310714 0.680838 0.273657 0.143647
H21   H     H_    0.748587 0.547615 0.298664 0.106316
H22   H     H_    0.415233 0.324341 0.550669 0.178863
H23   H     H_    0.959955 0.954331 0.307400 0.104916
H24   H     H_    0.221061 0.688490 0.762938 0.099502
H25   H     H_    0.630023 0.716605 0.391872 0.185288
H26   H     H_    0.929208 0.200704 0.636023 0.112137
N1    N     N_R   0.575030 0.246270 0.438190 -0.245601
N2    N     N_R   0.425760 0.754330 0.561190 -0.240947
N3    N     N_3   0.341479 0.496012 0.699725 -0.673902
N4    N     N_3   0.863175 0.825098 0.569872 -0.603416
N5    N     N_3   0.297818 0.066995 0.875516 -0.627677
N6    N     N_3   0.211952 0.246627 0.100325 -0.664594
O1    O     O_R   0.537510 0.972500 0.318130 -0.503283
O2    O     O_R   0.487140 0.806530 0.359650 -0.530290
O3    O     O_R   0.708330 0.082950 0.479220 -0.511216
O4    O     O_R   0.657960 0.916980 0.520740 -0.495499
O5    O     O_R   0.512860 0.193470 0.640350 -0.512877
O6    O     O_R   0.462490 0.027500 0.681870 -0.457901
O7    O     O_R   0.342040 0.083020 0.479260 -0.510672
O8    O     O_R   0.291670 0.917050 0.520780 -0.516966

loop_
_geom_bond_atom_site_label_1
_geom_bond_atom_site_label_2
_ccdc_geom_bond_type
C17   N3    S    
C25   N1    A    
C7    C8    A    
C12   C23   S    
C28   C29   S    
C29   C30   S    
C1    O2    A    
C23   C29   S    
C22   C24   A    
C36   C37   A    
H10   N3    S    
C16   O5    A    
C27   O7    A    
C16   C35   S    
C5    C6    A    
C38   H12   S    
C20   C25   A    
C18   C19   A    
C7    H2    S    
C4    O3    A    
C23   C33   S    
C1    C11   S    
C15   H24   S    
Cu2   O8    S    
C10   C35   A    
Cu1   O3    S    
C16   O6    A    
C12   H13   S    
H19   N6    S    
C10   N5    S    
H9    N3    S    
C21   C22   A    
C29   H3    S    
C27   C30   S    
C23   N4    S    
C3    C8    A    
Cu1   Cu2   S    
C13   H7    S    
C14   H8    S    
Cu2   O4    S    
Cu1   O7    S    
C5    C9    A    
C37   C38   A    
C2    C38   A    
C31   C32   S    
H14   N4    S    
H16   N5    S    
C17   C18   A    
C13   C21   A    
C19   N2    A    
C10   C34   A    
H17   N5    S    
C24   H25   S    
C28   C33   S    
C27   O8    A    
Cu2   O6    S    
C13   C26   A    
C36   H4    S    
C2    C5    A    
C26   N1    A    
C37   H5    S    
C34   N6    S    
C32   H26   S    
C15   C17   A    
C4    C33   S    
C11   C36   A    
C12   C30   S    
Cu1   N1    S    
C28   C31   S    
C31   H11   S    
C6    C7    A    
C9    H1    S    
C1    O1    A    
C32   C33   S    
C2    C3    A    
C8    H20   S    
C22   H21   S    
H18   N6    S    
C30   C31   S    
Cu2   O2    S    
C19   C24   A    
C18   C20   A    
C25   H22   S    
Cu1   O1    S    
C4    O4    A    
H15   N4    S    
C3    C11   A    
C26   H6    S    
C28   H23   S    
C6    C34   A    
C20   C21   A    
Cu1   O5    S    
Cu2   N2    S    
C9    C35   A    
C14   N2    A    
C14   C15   A    
C12   C32   S    
