data_mof_unit_51224.cif
_audit_creation_date              2013-03-05T15:58:35-0500
_audit_creation_method            fapswitch 2.2
_symmetry_space_group_name_H-M    P1
_symmetry_Int_Tables_number       1
_space_group_crystal_system       triclinic
_cell_length_a                    15.019316
_cell_length_b                    13.718785
_cell_length_c                    10.613586
_cell_angle_alpha                 90.200738
_cell_angle_beta                  90.070677
_cell_angle_gamma                 89.983421
_cell_volume                      2186.87990764

loop_
_atom_site_label
_atom_site_type_symbol
_atom_site_description
_atom_site_fract_x
_atom_site_fract_y
_atom_site_fract_z
_atom_type_partial_charge
O1    O     O_R   0.370260 0.582280 0.500030 -0.572822
O2    O     O_R   0.629740 0.417720 0.499970 -0.579622
O3    O     O_R   0.629740 0.582280 0.499970 -0.560990
O4    O     O_R   0.370260 0.417720 0.500030 -0.567912
C1    C     C_R   0.328937 0.499992 0.496268 0.826508
C2    C     C_R   0.671064 0.500014 0.503734 0.826975
O5    O     O_R   0.499980 0.582260 0.316850 -0.589971
O6    O     O_R   0.500020 0.417740 0.683150 -0.583972
O7    O     O_R   0.500020 0.582260 0.683150 -0.590208
O8    O     O_R   0.499980 0.417740 0.316850 -0.585295
C3    C     C_R   0.500051 0.499788 0.259147 0.814404
C4    C     C_R   0.499850 0.500213 0.740848 0.812846
Cu1   Cu    Cu3+1 0.500000 0.597420 0.500000 0.991453
Cu2   Cu    Cu3+1 0.500000 0.402580 0.500000 0.990491
C5    C     C_3   0.428023 0.548458 0.042153 -0.138616
C6    C     C_3   0.571739 0.451552 0.957841 -0.128626
C7    C     C_3   0.502460 0.592774 0.959892 -0.099425
C8    C     C_3   0.497292 0.407252 0.040086 -0.077909
C9    C     C_3   0.425470 0.456495 0.957554 -0.139527
C10   C     C_3   0.574295 0.543528 0.042418 -0.147974
H1    H     H_    0.364615 0.420991 0.919592 0.183719
H2    H     H_    0.635164 0.579009 0.080374 0.183433
H3    H     H_    0.369255 0.587976 0.079940 0.188410
H4    H     H_    0.630499 0.412009 0.920075 0.189678
H5    H     H_    0.504632 0.668757 0.924306 0.189596
H6    H     H_    0.494921 0.331299 0.075657 0.212789
C11   C     C_3   0.499902 0.500713 0.877622 -0.035176
C12   C     C_3   0.499872 0.499302 0.122363 -0.042481
C13   C     C_R   0.812030 0.466262 0.401740 -0.200808
C14   C     C_R   0.187979 0.533879 0.598214 -0.195138
C15   C     C_R   0.767451 0.499624 0.508129 -0.099367
C16   C     C_R   0.232552 0.500416 0.491868 -0.103093
C17   C     C_R   0.814182 0.533202 0.614992 0.132810
C18   C     C_R   0.185814 0.466861 0.385001 0.129845
C19   C     C_R   0.908456 0.525105 0.617249 -0.037436
C20   C     C_R   0.091548 0.475042 0.382715 -0.037298
C21   C     C_R   0.953159 0.498825 0.503552 0.013407
C22   C     C_R   0.046846 0.501350 0.496400 0.012254
C23   C     C_R   0.904226 0.469860 0.396539 0.067871
C24   C     C_R   0.095782 0.530327 0.603404 0.066298
C25   C     C_R   0.960291 0.544269 0.726670 0.343695
C26   C     C_R   0.039721 0.455927 0.273277 0.345123
C27   C     C_R   0.052671 0.551302 0.716604 -0.185250
C28   C     C_R   0.947338 0.448925 0.283326 -0.188981
H7    H     H_    0.774160 0.442496 0.319988 0.149696
H8    H     H_    0.225853 0.557673 0.679950 0.153530
H9    H     H_    0.091649 0.567135 0.800327 0.211215
H10   H     H_    0.908362 0.433122 0.199593 0.210399
C29   C     C_R   0.454330 0.793329 0.590798 0.111291
C30   C     C_R   0.546614 0.206679 0.410174 0.111841
C31   C     C_R   0.545876 0.792826 0.409433 0.117690
C32   C     C_R   0.453400 0.207187 0.589831 0.120150
N1    N     N_R   0.500000 0.743810 0.500000 -0.212579
N2    N     N_R   0.500000 0.256190 0.500000 -0.212708
C33   C     C_R   0.547962 0.896055 0.407202 -0.125752
C34   C     C_R   0.453548 0.103980 0.594355 -0.125340
C35   C     C_R   0.452352 0.896586 0.593164 -0.123848
C36   C     C_R   0.546673 0.103436 0.405886 -0.123382
C37   C     C_R   0.500135 0.948244 0.500160 0.011555
C38   C     C_R   0.500109 0.051781 0.500126 0.010235
C39   C     C_R   0.594926 0.947855 0.313172 0.252411
C40   C     C_R   0.407104 0.052196 0.688929 0.253870
C41   C     C_R   0.405584 0.948937 0.687393 0.254479
C42   C     C_R   0.593415 0.051089 0.311639 0.256182
H11   H     H_    0.419777 0.751470 0.661500 0.168177
H12   H     H_    0.583952 0.248527 0.342307 0.167099
H13   H     H_    0.580520 0.750594 0.338795 0.172230
H14   H     H_    0.415919 0.249414 0.657539 0.171318
I1    I     I_    0.739786 0.610756 0.756924 -0.196825
I2    I     I_    0.260166 0.389208 0.243111 -0.197654
N3    N     N_R   0.923029 0.542786 0.850924 0.153456
O9    O     O_R   0.878407 0.466650 0.887467 -0.313433
O10   O     O_R   0.949652 0.605658 0.934994 -0.271233
N4    N     N_R   0.077001 0.457421 0.149033 0.153717
O11   O     O_R   0.121710 0.533515 0.112560 -0.311435
O12   O     O_R   0.050338 0.394611 0.064913 -0.275626
N5    N     N_R   0.642744 0.896190 0.216792 0.139880
O13   O     O_R   0.623883 0.910516 0.098611 -0.254889
O14   O     O_R   0.710171 0.841274 0.246509 -0.314436
N6    N     N_R   0.360370 0.103873 0.786420 0.141930
O15   O     O_R   0.276023 0.087909 0.805021 -0.246167
O16   O     O_R   0.403658 0.160562 0.863637 -0.324267
N7    N     N_R   0.358033 0.897810 0.784013 0.137438
O17   O     O_R   0.377344 0.912600 0.902084 -0.259943
O18   O     O_R   0.290481 0.842837 0.754667 -0.326067
N8    N     N_R   0.640636 0.102169 0.214625 0.140318
O19   O     O_R   0.725159 0.086342 0.197258 -0.252311
O20   O     O_R   0.597620 0.157794 0.136328 -0.335923

loop_
_geom_bond_atom_site_label_1
_geom_bond_atom_site_label_2
_geom_bond_distance
_ccdc_geom_bond_type
C14   C16   1.389588 A    
C33   C37   1.413691 A    
C20   C26   1.421129 A    
C8    H6    1.110105 S    
O3    C2    1.288561 A    
N5    O13   1.301164 A    
O5    C3    1.284649 A    
C30   N2    1.362817 A    
C29   H11   1.079974 S    
O1    C1    1.288890 A    
C40   N6    1.436073 S    
C19   C21   1.426806 A    
N8    O20   1.301215 A    
C35   C37   1.413719 A    
C36   C38   1.413759 A    
C7    C10   1.545670 S    
C29   C35   1.417006 A    
C8    C9    1.545545 S    
O7    Cu1   1.955695 S    
C24   C27   1.394612 A    
C39   N5    1.435616 S    
C15   C17   1.409184 A    
O6    C4    1.284647 A    
C9    C11   1.530946 S    
C18   I2    2.154542 S    
C18   C20   1.420403 A    
C32   H14   1.080185 S    
C17   I1    2.154535 S    
C25   N3    1.433462 S    
C1    C16   1.448337 S    
C6    C11   1.531407 S    
C5    H3    1.110364 S    
C2    C15   1.448364 S    
C37   C38   1.420398 A    
C6    H4    1.110366 S    
Cu1   Cu2   2.672967 S    
C13   C15   1.389562 A    
C25   C27   1.395125 A    
O2    C2    1.288958 A    
C26   C28   1.395121 A    
C19   C25   1.421162 A    
C42   N8    1.435766 S    
C32   N2    1.362801 A    
C35   C41   1.416268 A    
Cu1   N1    2.008293 S    
N5    O14   1.301179 A    
C36   C42   1.416179 A    
C26   N4    1.433478 S    
N4    O11   1.301693 A    
C4    C11   1.451654 S    
C30   C36   1.416943 A    
C8    C12   1.533298 S    
N6    O16   1.301424 A    
O8    Cu2   1.955696 S    
N3    O10   1.301512 A    
N8    O19   1.301088 A    
N6    O15   1.301119 A    
C10   C12   1.530964 S    
C34   C38   1.413685 A    
C41   N7    1.435545 S    
C31   N1    1.362850 A    
C7    C11   1.533375 S    
C39   C42   1.416573 A    
C5    C9    1.546420 S    
C21   C22   1.409696 A    
N7    O17   1.301173 A    
C6    C10   1.546422 S    
C13   C23   1.386777 A    
C40   C41   1.416808 A    
C14   C24   1.386781 A    
C31   H13   1.079923 S    
C30   H12   1.080284 S    
N4    O12   1.301501 A    
N7    O18   1.301210 A    
C10   H2    1.110385 S    
C34   C40   1.416277 A    
O1    Cu1   1.959704 S    
C5    C7    1.545415 S    
O6    Cu2   1.954246 S    
Cu2   N2    2.008293 S    
C14   H8    1.086098 S    
O4    C1    1.288619 A    
O3    Cu1   1.959585 S    
C23   C28   1.394628 A    
C7    H5    1.110459 S    
C20   C22   1.426793 A    
N3    O9    1.301700 A    
C21   C23   1.408192 A    
C22   C24   1.408182 A    
C5    C12   1.531455 S    
C3    C12   1.451757 S    
C29   N1    1.362894 A    
C33   C39   1.416165 A    
C17   C19   1.420430 A    
C31   C33   1.416815 A    
O4    Cu2   1.959585 S    
O2    Cu2   1.959704 S    
O7    C4    1.283269 A    
O8    C3    1.283313 A    
C28   H10   1.084861 S    
O5    Cu1   1.954247 S    
C6    C8    1.545345 S    
C13   H7    1.086087 S    
C27   H9    1.084866 S    
C32   C34   1.416863 A    
C16   C18   1.409162 A    
C9    H1    1.110382 S    
