data_mof_unit_28399.cif
_audit_creation_date              2012-12-11T14:08:25-0500
_audit_creation_method            fapswitch 2.2
_symmetry_space_group_name_H-M    P1
_symmetry_Int_Tables_number       1
_space_group_crystal_system       triclinic
_cell_length_a                    28.177187
_cell_length_b                    7.181968
_cell_length_c                    17.30228
_cell_angle_alpha                 89.999786
_cell_angle_beta                  101.925666
_cell_angle_gamma                 90.000269
_cell_volume                      3425.84895552

loop_
_atom_site_label
_atom_site_type_symbol
_atom_type_description
_atom_site_fract_x
_atom_site_fract_y
_atom_site_fract_z
_atom_type_partial_charge
O1    O     O_R   0.000700 0.436510 0.857920 -0.526618
O2    O     O_R   0.999300 0.563490 0.142080 -0.526622
O3    O     O_R   0.999300 0.936510 0.642080 -0.526619
O4    O     O_R   0.000700 0.063490 0.357920 -0.526620
O5    O     O_R   0.930080 0.766380 0.721890 -0.540467
O6    O     O_R   0.069920 0.233620 0.278110 -0.540467
O7    O     O_R   0.069920 0.266380 0.778110 -0.540469
O8    O     O_R   0.930080 0.733620 0.221890 -0.540469
C1    C     C_R   0.910516 0.597496 0.709100 0.728803
C2    C     C_R   0.089484 0.402504 0.290898 0.728797
C3    C     C_R   0.089484 0.097496 0.790900 0.728807
C4    C     C_R   0.910516 0.902504 0.209099 0.728808
O9    O     O_R   0.996180 0.766230 0.862310 -0.511369
O10   O     O_R   0.003820 0.233770 0.137690 -0.511368
O11   O     O_R   0.003820 0.266230 0.637690 -0.511369
O12   O     O_R   0.996180 0.733770 0.362310 -0.511366
O13   O     O_R   0.065870 0.936460 0.783500 -0.544600
O14   O     O_R   0.934130 0.063540 0.216500 -0.544601
O15   O     O_R   0.934130 0.436460 0.716500 -0.544597
O16   O     O_R   0.065870 0.563540 0.283500 -0.544592
C5    C     C_R   0.998321 0.595630 0.894230 0.756375
C6    C     C_R   0.001678 0.404370 0.105770 0.756370
C7    C     C_R   0.001678 0.095630 0.605770 0.756378
C8    C     C_R   0.998322 0.904370 0.394230 0.756383
O17   O     O_3   0.022790 0.603020 0.723980 -0.370079
O18   O     O_3   0.977210 0.396980 0.276020 -0.370078
O19   O     O_3   0.977210 0.103020 0.776020 -0.370079
O20   O     O_3   0.022790 0.896980 0.223980 -0.370080
V1    V     V_3+5 0.995770 0.877900 0.754830 1.562468
V2    V     V_3+5 0.004230 0.122100 0.245170 1.562468
V3    V     V_3+5 0.004230 0.377900 0.745170 1.562469
V4    V     V_3+5 0.995770 0.622100 0.254830 1.562473
C9    C     C_2   0.007508 0.077527 0.522907 0.033408
C10   C     C_2   0.992492 0.922473 0.477093 0.033409
C11   C     C_2   0.992492 0.577527 0.977093 0.033407
C12   C     C_2   0.007508 0.422473 0.022907 0.033408
C13   C     C_R   0.683778 0.040407 0.039123 0.606226
C14   C     C_R   0.316221 0.959592 0.960874 0.606225
C15   C     C_R   0.316217 0.540537 0.460840 0.606243
C16   C     C_R   0.683777 0.459579 0.539127 0.606230
O21   O     O_2   0.713853 0.107627 0.994364 -0.501625
O22   O     O_2   0.286144 0.892373 0.005632 -0.501623
O23   O     O_2   0.286138 0.607904 0.505561 -0.501638
O24   O     O_2   0.713854 0.392353 0.494373 -0.501621
N1    N     N_R   0.702511 0.952571 0.108837 -0.568607
N2    N     N_R   0.297488 0.047427 0.891159 -0.568613
N3    N     N_R   0.297486 0.452592 0.391150 -0.568623
N4    N     N_R   0.702509 0.547414 0.608842 -0.568612
C17   C     C_R   0.672781 0.885575 0.155974 0.658297
C18   C     C_R   0.327218 0.114418 0.844022 0.658301
C19   C     C_R   0.327217 0.385485 0.344038 0.658332
C20   C     C_R   0.672778 0.614410 0.655977 0.658306
C21   C     C_R   0.782753 0.099816 0.152382 -0.072063
C22   C     C_R   0.217249 0.900188 0.847585 -0.072072
C23   C     C_R   0.217259 0.599800 0.347411 -0.072090
C24   C     C_R   0.782749 0.400182 0.652424 -0.072069
C25   C     C_R   0.833155 0.087818 0.176611 -0.176109
C26   C     C_R   0.166847 0.912186 0.823356 -0.176117
C27   C     C_R   0.166856 0.587796 0.323180 -0.176166
C28   C     C_R   0.833151 0.412183 0.676653 -0.176113
C29   C     C_R   0.828213 0.751635 0.166911 -0.165859
C30   C     C_R   0.171785 0.248361 0.833116 -0.165849
C31   C     C_R   0.171776 0.251662 0.333274 -0.165787
C32   C     C_R   0.828213 0.748355 0.666879 -0.165839
C33   C     C_R   0.777676 0.764105 0.142368 -0.063294
C34   C     C_R   0.222322 0.235892 0.857658 -0.063311
C35   C     C_R   0.222313 0.264138 0.357814 -0.063343
C36   C     C_R   0.777676 0.735882 0.642339 -0.063309
C37   C     C_R   0.754587 0.938399 0.134741 0.360528
C38   C     C_R   0.245412 0.061601 0.865255 0.360548
C39   C     C_R   0.245411 0.438411 0.365246 0.360592
C40   C     C_R   0.754585 0.561591 0.634748 0.360546
C41   C     C_R   0.601869 0.986446 0.059187 -0.093936
C42   C     C_R   0.398130 0.013547 0.940810 -0.093939
C43   C     C_R   0.398127 0.486463 0.440802 -0.093916
C44   C     C_R   0.601867 0.513543 0.559185 -0.093935
C45   C     C_R   0.633437 0.059130 0.013184 -0.009395
C46   C     C_R   0.366561 0.940870 0.986814 -0.009396
C47   C     C_R   0.366559 0.559219 0.486789 -0.009394
C48   C     C_R   0.633436 0.440862 0.513185 -0.009399
C49   C     C_R   0.614177 0.156681 0.943882 -0.068504
C50   C     C_R   0.385821 0.843323 0.056117 -0.068499
C51   C     C_R   0.385820 0.656797 0.556084 -0.068540
C52   C     C_R   0.614176 0.343319 0.443880 -0.068504
C53   C     C_R   0.621472 0.907465 0.133918 -0.160096
C54   C     C_R   0.378527 0.092521 0.866077 -0.160100
C55   C     C_R   0.378524 0.407417 0.366084 -0.160107
C56   C     C_R   0.621469 0.592515 0.633919 -0.160101
C57   C     C_R   0.856694 0.913584 0.184134 -0.046756
C58   C     C_R   0.143306 0.086416 0.815863 -0.046757
C59   C     C_R   0.143306 0.413586 0.315856 -0.046769
C60   C     C_R   0.856693 0.586413 0.684138 -0.046762
H1    H     H_    0.844914 0.615187 0.171784 0.133638
H2    H     H_    0.155083 0.384807 0.828267 0.133642
H3    H     H_    0.155065 0.115239 0.328564 0.133671
H4    H     H_    0.844916 0.884800 0.671721 0.133642
H5    H     H_    0.756476 0.638124 0.128780 0.132521
H6    H     H_    0.243522 0.361867 0.871268 0.132512
H7    H     H_    0.243508 0.138188 0.371555 0.132526
H8    H     H_    0.756476 0.861856 0.628723 0.132514
H9    H     H_    0.637544 0.226966 0.910711 0.194126
H10   H     H_    0.362453 0.773042 0.089289 0.194117
H11   H     H_    0.362454 0.727123 0.589244 0.194129
H12   H     H_    0.637544 0.273038 0.410708 0.194123
C61   C     C_R   0.481126 0.065105 0.921432 -0.073031
C62   C     C_R   0.518873 0.934886 0.078566 -0.073026
C63   C     C_R   0.518869 0.565119 0.578557 -0.073039
C64   C     C_R   0.481123 0.434871 0.421428 -0.073028
C65   C     C_R   0.468091 0.927882 0.045653 0.103777
C66   C     C_R   0.531907 0.072113 0.954346 0.103776
C67   C     C_R   0.531905 0.427877 0.454341 0.103778
C68   C     C_R   0.468088 0.572145 0.545639 0.103779
C69   C     C_R   0.449269 0.004704 0.969668 0.039596
C70   C     C_R   0.550729 0.995289 0.030330 0.039598
C71   C     C_R   0.550726 0.504705 0.530325 0.039601
C72   C     C_R   0.449267 0.495300 0.469660 0.039608
C73   C     C_R   0.460933 0.103288 0.840473 0.256420
C74   C     C_R   0.539066 0.896691 0.159524 0.256412
C75   C     C_R   0.539060 0.603298 0.659516 0.256420
C76   C     C_R   0.460929 0.396651 0.340473 0.256416
C77   C     C_R   0.410636 0.133853 0.814910 0.305267
C78   C     C_R   0.589364 0.866120 0.185084 0.305251
C79   C     C_R   0.589358 0.633848 0.685083 0.305254
C80   C     C_R   0.410632 0.366055 0.314919 0.305250
O25   O     O_2   0.306792 0.200818 0.776275 -0.472227
O26   O     O_2   0.693208 0.799179 0.223722 -0.472226
O27   O     O_2   0.693203 0.700816 0.723723 -0.472218
O28   O     O_2   0.306792 0.298925 0.276329 -0.472215
C81   C     C_R   0.564349 0.169137 0.916926 -0.077125
C82   C     C_R   0.435649 0.830864 0.083073 -0.077118
C83   C     C_R   0.435649 0.669208 0.583050 -0.077120
C84   C     C_R   0.564348 0.330862 0.416921 -0.077121
H13   H     H_    0.146409 0.784266 0.810428 0.135251
H14   H     H_    0.853593 0.215742 0.189515 0.135247
H15   H     H_    0.853589 0.284265 0.689586 0.135251
H16   H     H_    0.146425 0.715692 0.310114 0.135282
H17   H     H_    0.234501 0.764712 0.852669 0.128200
H18   H     H_    0.765502 0.235296 0.147276 0.128208
H19   H     H_    0.765497 0.264705 0.647347 0.128203
H20   H     H_    0.234521 0.735254 0.352365 0.128223
H21   H     H_    0.551661 0.261001 0.867718 0.203435
H22   H     H_    0.448336 0.739001 0.132282 0.203437
H23   H     H_    0.448339 0.761070 0.632257 0.203441
H24   H     H_    0.551662 0.239003 0.367711 0.203437
Br1   Br    Br    0.045345 0.276429 0.490045 -0.493704
Br2   Br    Br    0.954655 0.723570 0.509955 -0.493690
Br3   Br    Br    0.954656 0.776430 0.009954 -0.493689
Br4   Br    Br    0.045344 0.223569 0.990045 -0.493692
Br5   Br    Br    0.388019 0.215827 0.706645 -0.370454
Br6   Br    Br    0.611980 0.784105 0.293344 -0.370451
Br7   Br    Br    0.611974 0.715799 0.793352 -0.370457
Br8   Br    Br    0.388010 0.284054 0.206659 -0.370451
Br9   Br    Br    0.497584 0.056668 0.758857 -0.432464
Br10  Br    Br    0.502418 0.943308 0.241144 -0.432460
Br11  Br    Br    0.502404 0.556683 0.741125 -0.432432
Br12  Br    Br    0.497572 0.443292 0.258848 -0.432464

loop_
_geom_bond_atom_site_label_1
_geom_bond_atom_site_label_2
_ccdc_geom_bond_type
C84   H24   S    
C61   C66   A    
O1    C5    A    
C34   H6    S    
C23   C27   A    
O19   V1    S    
O13   V1    S    
C63   C68   A    
C64   C76   A    
O3    C7    A    
C11   C12   D    
C76   Br12  S    
C48   C52   A    
C21   C37   A    
C49   H9    S    
O7    C3    A    
C17   O26   S    
C25   C57   A    
C62   C70   A    
C19   O28   S    
C78   Br6   S    
O9    V1    S    
O10   V2    S    
C14   O22   S    
N4    C20   A    
O16   V4    S    
C55   C80   A    
O4    C8    A    
C29   H1    S    
C22   H17   S    
C81   H21   S    
C31   H3    S    
C27   H16   S    
O1    V3    S    
C44   C71   A    
C9    Br1   S    
C66   C81   A    
O2    V4    S    
C1    O15   A    
C74   C78   A    
O3    V1    S    
C73   C77   A    
C12   Br4   S    
C2    O16   A    
C24   C40   A    
O2    C6    A    
C16   C48   A    
O14   V2    S    
N1    C17   A    
C50   C82   A    
C66   C70   A    
C65   C69   A    
O11   C7    A    
C80   Br8   S    
O15   V3    S    
O12   C8    A    
C62   C74   A    
C61   C73   A    
N4    C40   S    
C56   C79   A    
C82   H22   S    
C1    C60   S    
C63   C75   A    
C20   O27   S    
C29   C57   A    
O5    V1    S    
C28   C60   A    
C26   H13   S    
C31   C35   A    
O7    V3    S    
C30   C34   A    
N1    C37   S    
C21   H18   S    
O8    V4    S    
C17   C53   A    
C4    C57   S    
C20   C56   A    
C32   H4    S    
C19   C55   A    
C24   H19   S    
C21   C25   A    
O18   V4    S    
C15   O23   S    
C14   C46   A    
C7    C9    S    
C42   C69   A    
C13   C45   A    
C52   C84   A    
C8    C10   S    
C23   H20   S    
C24   C28   A    
C36   C40   A    
C15   C47   A    
C18   C54   A    
C36   H8    S    
O5    C1    A    
C46   C50   A    
C49   C81   A    
C22   C38   A    
C45   C49   A    
O8    C4    A    
C41   C53   A    
C54   C77   A    
C9    C10   D    
C50   H10   S    
O9    C5    A    
C53   C78   A    
C18   O25   S    
C11   Br3   S    
C42   C54   A    
C26   C58   A    
C28   H15   S    
C63   C71   A    
C51   H11   S    
C43   C55   A    
O6    V2    S    
C2    C59   S    
C75   C79   A    
C30   H2    S    
C73   Br9   S    
C52   H12   S    
C27   C59   A    
N3    C39   S    
C13   N1    A    
C32   C36   A    
C68   C72   A    
N2    C38   S    
C83   H23   S    
C15   N3    A    
C22   C26   A    
C61   C69   A    
C16   N4    A    
C44   C56   A    
C3    O13   A    
C75   Br11  S    
O17   V3    S    
C79   Br7   S    
C44   C48   A    
O6    C2    A    
N3    C19   A    
O11   V3    S    
C5    C11   S    
C35   H7    S    
O12   V4    S    
C6    C12   S    
N2    C18   A    
C64   C67   A    
C64   C72   A    
O20   V2    S    
C51   C83   A    
C33   H5    S    
C47   C51   A    
C10   Br2   S    
C3    C58   S    
O10   C6    A    
C34   C38   A    
C33   C37   A    
C30   C58   A    
C77   Br5   S    
C74   Br10  S    
C35   C39   A    
C68   C83   A    
C13   O21   S    
C25   H14   S    
O4    V2    S    
C14   N2    A    
C41   C70   A    
C29   C33   A    
C67   C84   A    
C16   O24   S    
C31   C59   A    
C41   C45   A    
C42   C46   A    
C4    O14   A    
C65   C82   A    
C32   C60   A    
C67   C71   A    
C43   C72   A    
C43   C47   A    
C23   C39   A    
C76   C80   A    
C62   C65   A    
