data_mof_unit_27080.cif
_audit_creation_date              2012-12-10T17:32:57-0500
_audit_creation_method            fapswitch 2.2
_symmetry_space_group_name_H-M    P1
_symmetry_Int_Tables_number       1
_space_group_crystal_system       triclinic
_cell_length_a                    12.352574
_cell_length_b                    13.265288
_cell_length_c                    14.327209
_cell_angle_alpha                 93.340293
_cell_angle_beta                  107.915658
_cell_angle_gamma                 117.000242
_cell_volume                      1935.35132873

loop_
_atom_site_label
_atom_site_type_symbol
_atom_type_description
_atom_site_fract_x
_atom_site_fract_y
_atom_site_fract_z
_atom_type_partial_charge
C1    C     C_R   0.650778 0.714060 0.508600 0.776156
C2    C     C_R   0.839215 0.481936 0.913976 0.084766
C3    C     C_R   0.778131 0.481271 0.983211 0.125254
C4    C     C_R   0.946859 0.461146 0.940988 0.017453
C5    C     C_R   0.000580 0.452601 0.041245 0.020051
C6    C     C_R   0.928157 0.438772 0.104680 0.229615
C7    C     C_R   0.821499 0.457647 0.076477 -0.298076
C8    C     C_R   0.999928 0.444563 0.870488 -0.204763
C9    C     C_R   0.108066 0.428490 0.899564 -0.231064
C10   C     C_R   0.172046 0.436052 0.000571 0.158142
C11   C     C_R   0.122408 0.454003 0.072974 0.088940
C12   C     C_R   0.618473 0.516440 0.686484 0.793499
C13   C     C_R   0.286772 0.428222 0.030599 -0.203728
C14   C     C_R   0.354879 0.441862 0.132378 -0.200592
C15   C     C_R   0.200149 0.479652 0.175351 -0.208508
C16   C     C_R   0.138551 0.966027 0.363065 -0.190640
C17   C     C_R   0.248622 0.162250 0.463138 -0.048723
C18   C     C_R   0.730763 0.921508 0.573609 -0.188182
C19   C     C_R   0.820947 0.038529 0.592171 -0.143784
C20   C     C_R   0.921504 0.073021 0.555957 -0.186606
C21   C     C_R   0.931079 0.990301 0.496648 0.079595
C22   C     C_R   0.829436 0.872661 0.467551 0.082225
C23   C     C_R   0.345198 0.285279 0.484934 0.805182
C24   C     C_R   0.037517 0.020634 0.464443 0.072624
C25   C     C_R   0.033985 0.936809 0.395449 0.167299
C26   C     C_R   0.925056 0.825589 0.357952 -0.241437
C27   C     C_R   0.823505 0.794269 0.392423 -0.201079
C28   C     C_R   0.148552 0.131645 0.499957 -0.256723
C29   C     C_R   0.245172 0.078679 0.396226 -0.194296
C30   C     C_R   0.735660 0.837328 0.513649 -0.103503
C31   C     C_R   0.255857 0.689490 0.658594 -0.299296
C32   C     C_R   0.653481 0.336600 0.368937 0.067395
C33   C     C_R   0.729611 0.293711 0.347805 -0.257738
C34   C     C_R   0.381500 0.483215 0.313281 0.794886
C35   C     C_R   0.864835 0.352050 0.401024 -0.217647
C36   C     C_R   0.926807 0.456759 0.473824 -0.009265
C37   C     C_R   0.843867 0.494208 0.496630 0.292914
C38   C     C_R   0.067102 0.523839 0.526563 -0.039990
C39   C     C_R   0.120101 0.622622 0.604955 0.177017
C40   C     C_R   0.037504 0.654356 0.629558 -0.286206
C41   C     C_R   0.902911 0.592048 0.576504 -0.197767
C42   C     C_R   0.158355 0.498997 0.504291 0.013223
C43   C     C_R   0.339721 0.659910 0.633775 0.065325
C44   C     C_R   0.678452 0.515201 0.791657 -0.053909
C45   C     C_R   0.312334 0.468918 0.205494 -0.070818
C46   C     C_R   0.669931 0.499035 0.956673 -0.185385
C47   C     C_R   0.619433 0.514693 0.860968 -0.195554
C48   C     C_R   0.790605 0.504050 0.820022 -0.237417
Cu1   Cu    Cu3+1 0.416420 0.526630 0.522910 0.933265
Cu2   Cu    Cu3+1 0.583580 0.473370 0.477090 0.920068
H1    H     H_    0.768843 0.449104 0.126435 0.144138
H2    H     H_    0.323947 0.411941 0.975457 0.130766
H3    H     H_    0.321988 0.101488 0.366640 0.146873
H4    H     H_    0.918430 0.762225 0.301947 0.144610
H5    H     H_    0.136181 0.902563 0.310108 0.135052
H6    H     H_    0.159723 0.197003 0.556107 0.146666
H7    H     H_    0.658580 0.896750 0.608206 0.151581
H8    H     H_    0.988066 0.165320 0.573731 0.127555
H9    H     H_    0.815331 0.102830 0.637598 0.144596
H10   H     H_    0.739046 0.708695 0.357090 0.173900
H11   H     H_    0.444487 0.711569 0.674956 0.120510
H12   H     H_    0.176809 0.511978 0.232863 0.188799
H13   H     H_    0.077507 0.729124 0.690351 0.154880
H14   H     H_    0.296992 0.764715 0.719178 0.138067
H15   H     H_    0.126343 0.427186 0.444005 0.130426
H16   H     H_    0.548426 0.289680 0.328323 0.121993
H17   H     H_    0.918830 0.313253 0.384563 0.144596
H18   H     H_    0.683489 0.214191 0.290806 0.147865
H19   H     H_    0.848686 0.623025 0.602047 0.205819
H20   H     H_    0.442125 0.433739 0.153843 0.150865
H21   H     H_    0.144523 0.414226 0.843137 0.142766
H22   H     H_    0.622106 0.497534 0.009018 0.128211
H23   H     H_    0.532574 0.523382 0.840488 0.151562
H24   H     H_    0.838285 0.512843 0.767085 0.149667
H25   H     H_    0.957137 0.438966 0.791180 0.149442
N1    N     N_R   0.290690 0.566960 0.557640 -0.178203
N2    N     N_R   0.709100 0.433710 0.442970 -0.204607
O1    O     O_R   0.545970 0.684450 0.528810 -0.579327
O2    O     O_R   0.687130 0.639470 0.490120 -0.603620
O3    O     O_R   0.519670 0.535100 0.660030 -0.583943
O4    O     O_R   0.660830 0.490120 0.621340 -0.597645
O5    O     O_R   0.312870 0.360530 0.509880 -0.587172
O6    O     O_R   0.454030 0.315550 0.471190 -0.584297
O7    O     O_R   0.339170 0.509880 0.378660 -0.579866
O8    O     O_R   0.480330 0.464900 0.339970 -0.596052
N3    N     N_2   0.951630 0.392758 0.191235 -0.451364
H26   H     H_    0.925417 0.418353 0.245911 0.260003
C49   C     C_3   0.904917 0.269012 0.168917 -0.681789
H27   H     H_    0.939460 0.242814 0.239289 0.218630
H28   H     H_    0.943679 0.246388 0.115503 0.241984
H29   H     H_    0.796006 0.219763 0.135850 0.223868

loop_
_geom_bond_atom_site_label_1
_geom_bond_atom_site_label_2
_ccdc_geom_bond_type
C23   O5    A    
C17   C29   A    
C35   C36   A    
C4    C8    A    
Cu2   O2    S    
C28   H6    S    
C26   C27   A    
C17   C23   S    
C40   H13   S    
C31   C43   A    
Cu1   O7    S    
C32   H16   S    
C36   C37   A    
C38   C42   A    
C3    C7    A    
C27   H10   S    
C38   C39   A    
N3    C49   S    
C16   C25   A    
Cu1   O1    S    
C18   C19   A    
Cu2   O8    S    
C32   N2    A    
C11   C15   A    
C19   C20   A    
C8    C9    A    
C42   H15   S    
C18   C30   A    
C24   C28   A    
C9    C10   A    
C46   H22   S    
C44   C47   A    
C21   C22   A    
C1    O1    A    
C14   H20   S    
C34   O7    A    
C26   H4    S    
Cu2   O6    S    
C14   C45   A    
C48   H24   S    
C24   C25   A    
C47   H23   S    
C39   C40   A    
N3    H26   S    
C2    C48   A    
C16   C29   A    
C37   N2    A    
C8    H25   S    
C34   O8    A    
Cu1   O5    S    
C2    C4    A    
C13   H2    S    
C18   H7    S    
C49   H29   S    
C35   H17   S    
Cu1   N1    S    
C34   C45   S    
C20   C21   A    
C23   O6    A    
C40   C41   A    
C49   H28   S    
C22   C27   A    
C1    O2    A    
C15   C45   A    
C20   H8    S    
Cu2   N2    S    
C43   H11   S    
C41   H19   S    
C43   N1    A    
C46   C47   A    
C22   C30   A    
C17   C28   A    
C31   H14   S    
C9    H21   S    
C4    C5    A    
C10   C13   A    
C5    C11   A    
C6    C7    A    
C3    C46   A    
C42   N1    A    
C6    N3    S    
Cu1   O3    S    
C19   H9    S    
C32   C33   A    
C36   C38   A    
C2    C3    A    
C25   C26   A    
C16   H5    S    
C7    H1    S    
C12   C44   S    
C5    C6    A    
C29   H3    S    
C12   O3    A    
C1    C30   S    
C33   C35   A    
C15   H12   S    
C31   C39   A    
C12   O4    A    
C37   C41   A    
C10   C11   A    
C49   H27   S    
C33   H18   S    
Cu1   Cu2   S    
C21   C24   A    
C13   C14   A    
C44   C48   A    
Cu2   O4    S    
