data_mof_unit_26540.cif
_audit_creation_date              2012-12-10T17:56:50-0500
_audit_creation_method            fapswitch 2.2
_symmetry_space_group_name_H-M    P1
_symmetry_Int_Tables_number       1
_space_group_crystal_system       triclinic
_cell_length_a                    18.329247
_cell_length_b                    18.332567
_cell_length_c                    25.834163
_cell_angle_alpha                 89.56753
_cell_angle_beta                  90.463372
_cell_angle_gamma                 89.854607
_cell_volume                      8680.29048605

loop_
_atom_site_label
_atom_site_type_symbol
_atom_type_description
_atom_site_fract_x
_atom_site_fract_y
_atom_site_fract_z
_atom_type_partial_charge
C1    C     C_R   0.860871 0.141181 0.248222 0.938546
C2    C     C_R   0.772889 0.780114 0.794019 0.459113
C3    C     C_R   0.487970 0.503962 0.053815 -0.015309
C4    C     C_R   0.052903 0.000206 0.473508 -0.158074
C5    C     C_R   0.053156 0.000602 0.526762 -0.180297
C6    C     C_R   0.552903 0.500205 0.973507 -0.158073
C7    C     C_R   0.553156 0.500602 0.026762 -0.180296
C8    C     C_3   0.126890 0.755199 0.149098 0.117806
C9    C     C_3   0.050049 0.771088 0.129252 -0.782699
C10   C     C_3   0.748050 0.832156 0.872832 0.140743
C11   C     C_3   0.782842 0.882355 0.912555 -0.790593
C12   C     C_3   0.763459 0.841371 0.130356 0.095497
C13   C     C_R   0.745993 0.805656 0.213650 0.457643
C14   C     C_3   0.761126 0.906276 0.093374 -0.669971
C15   C     C_3   0.241214 0.841026 0.869267 0.094794
C16   C     C_3   0.243992 0.906281 0.905172 -0.658334
C17   C     C_3   0.626892 0.255201 0.649097 0.117805
C18   C     C_3   0.550051 0.271088 0.629250 -0.782697
C19   C     C_3   0.248050 0.332155 0.372832 0.140743
C20   C     C_3   0.282842 0.382355 0.412555 -0.790595
C21   C     C_3   0.263458 0.341371 0.630356 0.095499
C22   C     C_3   0.261126 0.406276 0.593375 -0.669968
C23   C     C_3   0.741214 0.341026 0.369267 0.094795
C24   C     C_R   0.254252 0.805100 0.785977 0.454950
C25   C     C_3   0.743992 0.406281 0.405172 -0.658333
C26   C     C_R   0.688188 0.241455 0.725790 0.419057
C27   C     C_R   0.272889 0.280114 0.294019 0.459113
C28   C     C_R   0.245993 0.305656 0.713650 0.457642
C29   C     C_R   0.754251 0.305100 0.285977 0.454949
C30   C     C_R   0.741549 0.187933 0.727330 -0.240113
C31   C     C_R   0.221581 0.224212 0.293810 -0.342455
C32   C     C_R   0.191293 0.253861 0.716527 -0.297030
C33   C     C_R   0.138889 0.141536 0.751803 0.890971
C34   C     C_R   0.808844 0.253185 0.282871 -0.314856
C35   C     C_R   0.241549 0.687933 0.227331 -0.240113
C36   C     C_R   0.721581 0.724212 0.793810 -0.342455
C37   C     C_R   0.691293 0.753861 0.216527 -0.297028
C38   C     C_R   0.308845 0.753185 0.782871 -0.314856
C39   C     C_R   0.807579 0.199854 0.752969 -0.274378
C40   C     C_R   0.192271 0.199155 0.247381 -0.214926
C41   C     C_R   0.194685 0.198086 0.753600 -0.274431
C42   C     C_R   0.804390 0.197209 0.246607 -0.274733
C43   C     C_R   0.307579 0.699854 0.252969 -0.274379
C44   C     C_R   0.139627 0.140211 0.249812 0.971421
C45   C     C_R   0.692271 0.699155 0.747381 -0.214926
C46   C     C_R   0.694685 0.698086 0.253600 -0.274432
C47   C     C_R   0.304390 0.697209 0.746607 -0.274733
C48   C     C_R   0.820582 0.265492 0.780440 0.321956
C49   C     C_R   0.213174 0.229966 0.199689 0.342207
C50   C     C_R   0.254241 0.194334 0.788815 0.281098
C51   C     C_R   0.743503 0.192948 0.212585 0.269701
C52   C     C_R   0.320583 0.765492 0.280440 0.321956
C53   C     C_R   0.713174 0.729966 0.699689 0.342208
C54   C     C_R   0.754241 0.694334 0.288815 0.281098
C55   C     C_R   0.861040 0.141204 0.750947 1.042362
C56   C     C_R   0.243503 0.692948 0.712585 0.269701
C57   C     C_R   0.263592 0.818791 0.282136 0.220001
C58   C     C_R   0.775330 0.775732 0.698613 0.172646
C59   C     C_R   0.816047 0.736355 0.278346 0.315265
C60   C     C_R   0.182121 0.735518 0.723463 0.284452
C61   C     C_R   0.763592 0.318790 0.782137 0.219999
C62   C     C_R   0.275330 0.275732 0.198612 0.172648
C63   C     C_R   0.316047 0.236354 0.778345 0.315264
C64   C     C_R   0.682121 0.235518 0.223463 0.284452
C65   C     C_R   0.198587 0.806233 0.253240 -0.291015
C66   C     C_R   0.360871 0.641181 0.748222 0.938546
C67   C     C_R   0.801981 0.804298 0.746659 -0.280855
C68   C     C_R   0.808063 0.798773 0.246079 -0.316562
C69   C     C_R   0.191383 0.798316 0.754576 -0.305034
C70   C     C_R   0.698587 0.306232 0.753240 -0.291013
C71   C     C_R   0.301981 0.304298 0.246659 -0.280855
C72   C     C_R   0.308063 0.298773 0.746079 -0.316561
C73   C     C_R   0.691383 0.298316 0.254576 -0.305034
C74   C     C_R   0.066118 0.996963 0.027242 -0.150526
C75   C     C_R   0.933948 0.004834 0.972814 -0.167491
C76   C     C_R   0.933736 0.004714 0.026352 -0.159302
C77   C     C_R   0.638889 0.641536 0.251803 0.890972
C78   C     C_R   0.066320 0.997258 0.973700 -0.151691
C79   C     C_R   0.566118 0.496963 0.527242 -0.150526
C80   C     C_R   0.433948 0.504834 0.472814 -0.167492
C81   C     C_R   0.433736 0.504714 0.526352 -0.159302
C82   C     C_R   0.566320 0.497258 0.473700 -0.151691
C83   C     C_R   0.000230 0.000746 0.946270 0.001127
C84   C     C_R   0.999793 0.000456 0.053769 -0.006908
C85   C     C_R   0.500230 0.500746 0.446270 0.001127
C86   C     C_R   0.499793 0.500456 0.553769 -0.006907
C87   C     C_R   0.140343 0.860238 0.250519 0.958751
C88   C     C_R   0.639627 0.640211 0.749812 0.971419
C89   C     C_R   0.859082 0.860443 0.748779 0.948354
C90   C     C_R   0.861604 0.857887 0.248222 0.963370
C91   C     C_R   0.138287 0.857966 0.751958 0.878051
C92   C     C_R   0.640343 0.360238 0.750519 0.958749
C93   C     C_R   0.359082 0.360443 0.248779 0.948354
C94   C     C_R   0.361604 0.357887 0.748222 0.963371
C95   C     C_R   0.638287 0.357966 0.251958 0.878051
C96   C     C_R   0.999818 0.000048 0.109861 0.782838
C97   C     C_R   0.000182 0.000206 0.890154 0.815145
C98   C     C_R   0.499818 0.500048 0.609861 0.782839
C99   C     C_R   0.361040 0.641204 0.250947 1.042364
C100  C     C_R   0.500182 0.500206 0.390153 0.815145
C101  C     C_R   0.995468 0.999358 0.389900 0.896596
C102  C     C_R   0.995340 0.000796 0.610014 0.876304
C103  C     C_R   0.495468 0.499358 0.889900 0.896596
C104  C     C_R   0.495340 0.500796 0.110014 0.876304
C105  C     C_R   0.849606 0.977482 0.447316 0.379267
C106  C     C_R   0.851202 0.021733 0.551777 0.417792
C107  C     C_R   0.349606 0.477483 0.947316 0.379267
C108  C     C_R   0.351202 0.521733 0.051777 0.417792
C109  C     C_R   0.785545 0.982978 0.475783 -0.223832
C110  C     C_R   0.188187 0.741454 0.225791 0.419058
C111  C     C_R   0.786214 0.005707 0.526293 -0.264678
C112  C     C_R   0.285545 0.482979 0.975783 -0.223833
C113  C     C_R   0.286214 0.505709 0.026293 -0.264677
C114  C     C_R   0.919372 0.007157 0.526877 -0.039293
C115  C     C_R   0.918777 0.993270 0.472048 -0.070275
C116  C     C_R   0.419372 0.507158 0.026877 -0.039293
C117  C     C_R   0.418777 0.493271 0.972047 -0.070275
C118  C     C_R   0.987491 0.996680 0.445820 -0.047573
C119  C     C_R   0.987971 0.003962 0.553815 -0.015309
C120  C     C_R   0.487491 0.496680 0.945820 -0.047573
H1    H     H_    0.104747 0.001091 0.453550 0.162972
H2    H     H_    0.204536 0.199830 0.330067 0.178457
H3    H     H_    0.145347 0.258506 0.690034 0.217626
H4    H     H_    0.855690 0.258097 0.308454 0.210962
H5    H     H_    0.231589 0.636748 0.207879 0.237934
H6    H     H_    0.704536 0.699830 0.830067 0.178457
H7    H     H_    0.645347 0.758506 0.190034 0.217626
H8    H     H_    0.355691 0.758097 0.808454 0.210962
H9    H     H_    0.117829 0.993914 0.047752 0.187253
H10   H     H_    0.882289 0.008444 0.952340 0.172933
H11   H     H_    0.882029 0.008269 0.046134 0.185250
H12   H     H_    0.105089 0.999719 0.547183 0.140954
H13   H     H_    0.118061 0.994665 0.953924 0.178700
H14   H     H_    0.617829 0.493914 0.547752 0.187253
H15   H     H_    0.382289 0.508444 0.452340 0.172933
H16   H     H_    0.382029 0.508269 0.546134 0.185250
H17   H     H_    0.618061 0.494665 0.453924 0.178700
H18   H     H_    0.725218 0.959591 0.361651 0.366934
H19   H     H_    0.749129 0.142539 0.583484 0.344976
H20   H     H_    0.225218 0.459591 0.861651 0.366935
H21   H     H_    0.249130 0.642541 0.083485 0.344976
H22   H     H_    0.152077 0.713363 0.124026 0.180443
H23   H     H_    0.604747 0.501091 0.953550 0.162972
H24   H     H_    0.158948 0.806695 0.145703 0.130371
H25   H     H_    0.023959 0.813288 0.153654 0.227809
H26   H     H_    0.052204 0.791501 0.088709 0.194494
H27   H     H_    0.016679 0.720629 0.130471 0.281517
H28   H     H_    0.721015 0.786729 0.893923 0.145343
H29   H     H_    0.706207 0.864418 0.850843 0.150239
H30   H     H_    0.808495 0.929452 0.892581 0.273544
H31   H     H_    0.740613 0.902987 0.939372 0.211494
H32   H     H_    0.825117 0.852387 0.935325 0.250261
H33   H     H_    0.728481 0.797439 0.114045 0.134668
H34   H     H_    0.605089 0.499719 0.047183 0.140954
H35   H     H_    0.821024 0.821701 0.132958 0.120596
H36   H     H_    0.795693 0.950915 0.108727 0.286676
H37   H     H_    0.781954 0.889952 0.054891 0.167954
H38   H     H_    0.704196 0.926351 0.088853 0.277877
H39   H     H_    0.278204 0.797966 0.885219 0.136115
H40   H     H_    0.184079 0.820212 0.868625 0.131513
H41   H     H_    0.207088 0.949850 0.890296 0.285837
H42   H     H_    0.226196 0.889798 0.944539 0.171547
H43   H     H_    0.300501 0.927793 0.907514 0.279783
H44   H     H_    0.652080 0.213365 0.624025 0.180442
H45   H     H_    0.732978 0.970675 0.458762 0.215897
H46   H     H_    0.658949 0.306697 0.645703 0.130372
H47   H     H_    0.523959 0.313287 0.653652 0.227810
H48   H     H_    0.552206 0.291501 0.588707 0.194494
H49   H     H_    0.516682 0.220628 0.630469 0.281516
H50   H     H_    0.221015 0.286729 0.393923 0.145343
H51   H     H_    0.206207 0.364418 0.350843 0.150239
H52   H     H_    0.308495 0.429452 0.392581 0.273544
H53   H     H_    0.240613 0.402986 0.439372 0.211494
H54   H     H_    0.325117 0.352387 0.435325 0.250261
H55   H     H_    0.228480 0.297440 0.614045 0.134668
H56   H     H_    0.734206 0.012512 0.545213 0.217664
H57   H     H_    0.321024 0.321701 0.632958 0.120596
H58   H     H_    0.295693 0.450915 0.608727 0.286676
H59   H     H_    0.281953 0.389952 0.554891 0.167953
H60   H     H_    0.204196 0.426352 0.588854 0.277877
H61   H     H_    0.778204 0.297966 0.385219 0.136115
H62   H     H_    0.684079 0.320211 0.368625 0.131513
H63   H     H_    0.707088 0.449850 0.390296 0.285837
H64   H     H_    0.726196 0.389798 0.444539 0.171547
H65   H     H_    0.800501 0.427793 0.407514 0.279783
H66   H     H_    0.014300 0.232999 0.818449 0.371156
H67   H     H_    0.232978 0.470677 0.958761 0.215897
H68   H     H_    0.042623 0.185700 0.131528 0.376557
H69   H     H_    0.151243 0.206506 0.873500 0.356640
H70   H     H_    0.842096 0.203561 0.125039 0.348116
H71   H     H_    0.514300 0.732998 0.318449 0.371156
H72   H     H_    0.542624 0.685700 0.631528 0.376557
H73   H     H_    0.651242 0.706507 0.373500 0.356641
H74   H     H_    0.342095 0.703561 0.625039 0.348116
H75   H     H_    0.294012 0.971790 0.254257 0.354136
H76   H     H_    0.776368 0.898089 0.625029 0.367923
H77   H     H_    0.011581 0.704611 0.262165 0.414006
H78   H     H_    0.234206 0.512513 0.045213 0.217664
H79   H     H_    0.985970 0.708048 0.741059 0.396832
H80   H     H_    0.794009 0.471791 0.754260 0.354134
H81   H     H_    0.276368 0.398089 0.125029 0.367924
H82   H     H_    0.511581 0.204611 0.762164 0.414006
H83   H     H_    0.485970 0.208048 0.241059 0.396832
H84   H     H_    0.731590 0.136749 0.707878 0.237935
O1    O     O_3   0.000000 0.000000 0.249960 -0.529896
O2    O     O_R   0.585480 0.646190 0.219690 -0.641723
O3    O     O_2   0.899675 0.762287 0.644994 -0.186555
O4    O     O_2   0.790318 0.755715 0.592800 -0.153273
O5    O     O_3   0.827871 0.881949 0.627821 -0.520747
O6    O     O_2   0.929946 0.731524 0.345366 -0.172913
O7    O     O_2   0.900453 0.618544 0.299944 -0.226493
O8    O     O_3   0.963781 0.721081 0.248233 -0.574674
O9    O     O_2   0.067596 0.734141 0.657173 -0.179089
O10   O     O_2   0.095518 0.619583 0.702694 -0.198172
O11   O     O_3   0.034440 0.722687 0.754607 -0.566911
O12   O     O_2   0.699865 0.435575 0.830742 -0.360069
O13   O     O_R   0.585480 0.646190 0.780310 -0.644152
O14   O     O_2   0.809092 0.385532 0.870515 -0.147586
O15   O     O_3   0.822877 0.461024 0.786001 -0.464785
O16   O     O_2   0.399675 0.262287 0.144994 -0.186555
O17   O     O_2   0.290318 0.255715 0.092800 -0.153273
O18   O     O_3   0.327871 0.381950 0.127821 -0.520748
O19   O     O_2   0.429947 0.231524 0.845366 -0.172913
O20   O     O_2   0.400453 0.118544 0.799943 -0.226493
O21   O     O_3   0.463781 0.221081 0.748232 -0.574675
O22   O     O_2   0.567596 0.234141 0.157173 -0.179089
O23   O     O_2   0.595518 0.119583 0.202694 -0.198171
O24   O     O_R   0.414520 0.646190 0.219690 -0.529628
O25   O     O_3   0.534440 0.222687 0.254607 -0.566910
O26   O     O_R   0.085470 0.853840 0.280350 -0.592695
O27   O     O_R   0.914530 0.853840 0.719650 -0.561102
O28   O     O_R   0.914530 0.853840 0.280350 -0.536959
O29   O     O_R   0.085470 0.853840 0.719650 -0.585523
O30   O     O_R   0.585470 0.353840 0.780350 -0.592693
O31   O     O_R   0.414530 0.353840 0.219650 -0.561102
O32   O     O_R   0.414530 0.353840 0.780350 -0.536959
O33   O     O_3   1.000000 0.000000 0.750040 -0.539592
O34   O     O_R   0.585470 0.353840 0.219650 -0.585523
O35   O     O_R   0.853820 0.914550 0.219610 -0.604267
O36   O     O_R   0.146180 0.914550 0.780390 -0.609888
O37   O     O_R   0.146180 0.914550 0.219610 -0.672919
O38   O     O_R   0.853820 0.914550 0.780390 -0.625014
O39   O     O_R   0.353820 0.414550 0.719610 -0.604267
O40   O     O_R   0.646180 0.414550 0.280390 -0.609889
O41   O     O_R   0.646180 0.414550 0.719610 -0.672922
O42   O     O_R   0.353820 0.414550 0.280390 -0.625014
O43   O     O_R   0.146180 0.085440 0.219600 -0.600333
O44   O     O_3   0.500000 0.500000 0.749960 -0.529896
O45   O     O_R   0.853820 0.085440 0.780400 -0.640839
O46   O     O_R   0.853820 0.085440 0.219600 -0.549998
O47   O     O_R   0.146180 0.085440 0.780400 -0.567455
O48   O     O_R   0.646180 0.585440 0.719600 -0.600335
O49   O     O_R   0.353820 0.585440 0.280400 -0.640839
O50   O     O_R   0.353820 0.585440 0.719600 -0.549998
O51   O     O_R   0.646180 0.585440 0.280400 -0.567455
O52   O     O_R   0.939280 0.999970 0.134160 -0.643759
O53   O     O_R   0.060720 0.999970 0.865840 -0.633204
O54   O     O_R   0.060720 0.999970 0.134160 -0.636546
O55   O     O_3   0.500000 0.500000 0.250040 -0.539592
O56   O     O_R   0.939280 0.999970 0.865840 -0.656367
O57   O     O_R   0.439280 0.499970 0.634160 -0.643759
O58   O     O_R   0.560720 0.499970 0.365840 -0.633204
O59   O     O_R   0.560720 0.499970 0.634160 -0.636545
O60   O     O_R   0.439280 0.499970 0.365840 -0.656367
O61   O     O_R   0.000000 0.060760 0.365770 -0.645128
O62   O     O_R   0.000000 0.060760 0.634230 -0.594033
O63   O     O_R   0.500000 0.560760 0.865770 -0.645129
O64   O     O_R   0.500000 0.560760 0.134230 -0.594033
O65   O     O_R   0.000000 0.939310 0.365780 -0.550542
O66   O     O_R   0.914520 0.146190 0.280310 -0.643290
O67   O     O_R   1.000000 0.939310 0.634220 -0.581523
O68   O     O_R   0.500000 0.439310 0.865780 -0.550541
O69   O     O_R   0.500000 0.439310 0.134220 -0.581523
O70   O     O_2   0.859410 0.987936 0.342711 -0.402902
O71   O     O_2   0.880504 0.867909 0.383877 -0.179020
O72   O     O_3   0.748771 0.914590 0.375241 -0.530758
O73   O     O_2   0.855600 0.030361 0.655892 -0.325542
O74   O     O_2   0.889504 0.140380 0.606293 -0.291490
O75   O     O_3   0.753592 0.105734 0.611613 -0.596051
O76   O     O_2   0.359410 0.487936 0.842711 -0.402902
O77   O     O_R   0.085480 0.146190 0.719690 -0.641723
O78   O     O_2   0.380504 0.367909 0.883878 -0.179020
O79   O     O_3   0.248771 0.414589 0.875241 -0.530759
O80   O     O_2   0.355600 0.530361 0.155892 -0.325542
O81   O     O_2   0.389505 0.640381 0.106293 -0.291491
O82   O     O_3   0.253593 0.605735 0.111614 -0.596051
O83   O     O_3   0.122939 0.728120 0.200366 -0.599392
O84   O     O_3   0.803039 0.804468 0.840245 -0.593036
O85   O     O_3   0.737670 0.863293 0.179238 -0.535789
O86   O     O_3   0.263609 0.863016 0.819350 -0.545144
O87   O     O_3   0.622940 0.228121 0.700364 -0.599391
O88   O     O_R   0.085480 0.146190 0.280310 -0.644152
O89   O     O_3   0.303040 0.304468 0.340245 -0.593036
O90   O     O_3   0.237670 0.363293 0.679238 -0.535790
O91   O     O_3   0.763609 0.363015 0.319350 -0.545144
O92   O     O_2   0.930828 0.355592 0.808627 -0.174442
O93   O     O_2   0.892708 0.262193 0.871068 -0.246030
O94   O     O_3   0.972951 0.223678 0.794486 -0.591255
O95   O     O_2   0.153078 0.288679 0.112833 -0.239943
O96   O     O_2   0.180798 0.157314 0.112440 -0.234130
O97   O     O_3   0.068053 0.202546 0.163222 -0.590587
O98   O     O_2   0.268396 0.069563 0.843678 -0.206440
O99   O     O_R   0.914520 0.146190 0.719690 -0.529628
O100  O     O_2   0.298520 0.182266 0.889008 -0.169208
O101  O     O_3   0.162423 0.153641 0.872575 -0.528047
O102  O     O_2   0.728345 0.066603 0.161004 -0.189571
O103  O     O_2   0.694604 0.177720 0.113609 -0.210729
O104  O     O_3   0.831608 0.150669 0.127396 -0.540691
O105  O     O_2   0.430829 0.855592 0.308625 -0.174442
O106  O     O_2   0.392707 0.762196 0.371068 -0.246028
O107  O     O_3   0.472951 0.723676 0.294487 -0.591257
O108  O     O_2   0.653078 0.788679 0.612833 -0.239943
O109  O     O_2   0.680798 0.657314 0.612440 -0.234130
O110  O     O_R   0.414520 0.646190 0.780310 -0.643290
O111  O     O_3   0.568053 0.702546 0.663222 -0.590587
O112  O     O_2   0.768395 0.569564 0.343679 -0.206441
O113  O     O_2   0.798519 0.682266 0.389009 -0.169209
O114  O     O_3   0.662423 0.653642 0.372574 -0.528048
O115  O     O_2   0.228345 0.566603 0.661005 -0.189572
O116  O     O_2   0.194604 0.677720 0.613610 -0.210730
O117  O     O_3   0.331608 0.650669 0.627396 -0.540691
O118  O     O_2   0.199867 0.935579 0.330739 -0.360071
O119  O     O_2   0.309093 0.885535 0.370513 -0.147587
O120  O     O_3   0.322880 0.961024 0.285998 -0.464785
S1    S     S_3+6 0.836706 0.937079 0.385536 0.026721
S2    S     S_3+6 0.654220 0.719741 0.644726 0.087417
S3    S     S_3+6 0.748070 0.648447 0.349888 0.135021
S4    S     S_3+6 0.247257 0.645462 0.652391 0.109531
S5    S     S_3+6 0.272306 0.900824 0.319424 0.102649
S6    S     S_3+6 0.823458 0.791814 0.639282 0.132014
S7    S     S_3+6 0.903838 0.700184 0.294956 0.110713
S8    S     S_3+6 0.093537 0.701199 0.707541 0.129846
S9    S     S_3+6 0.772305 0.400822 0.819426 0.102649
S10   S     S_3+6 0.323458 0.291815 0.139282 0.132014
S11   S     S_3+6 0.403839 0.200184 0.794956 0.110713
S12   S     S_3+6 0.839983 0.075203 0.608157 -0.009037
S13   S     S_3+6 0.593537 0.201199 0.207541 0.129846
S14   S     S_3+6 0.336706 0.437079 0.885536 0.026722
S15   S     S_3+6 0.339983 0.575204 0.108157 -0.009037
S16   S     S_3+6 0.905239 0.278230 0.814698 0.091288
S17   S     S_3+6 0.154220 0.219741 0.144726 0.087417
S18   S     S_3+6 0.248070 0.148446 0.849888 0.135021
S19   S     S_3+6 0.747258 0.145463 0.152391 0.109531
S20   S     S_3+6 0.405240 0.778231 0.314697 0.091288
Zn1   Zn    Zn3+2 0.000000 0.913250 0.293350 1.166042
Zn2   Zn    Zn3+2 0.586770 0.499990 0.293420 1.051785
Zn3   Zn    Zn3+2 0.586770 0.499990 0.706580 1.029946
Zn4   Zn    Zn3+2 0.413230 0.499990 0.293420 1.046615
Zn5   Zn    Zn3+2 0.000000 0.086780 0.293330 1.053106
Zn6   Zn    Zn3+2 0.000000 0.086780 0.706670 1.112945
Zn7   Zn    Zn3+2 0.500000 0.586780 0.793330 1.053105
Zn8   Zn    Zn3+2 0.500000 0.586780 0.206670 1.112945
Zn9   Zn    Zn3+2 1.000000 0.913250 0.706650 1.133978
Zn10  Zn    Zn3+2 0.500000 0.413250 0.793350 1.166044
Zn11  Zn    Zn3+2 0.500000 0.413250 0.206650 1.133978
Zn12  Zn    Zn3+2 0.913230 0.999990 0.206580 1.090713
Zn13  Zn    Zn3+2 0.086770 0.999990 0.793420 1.051784
Zn14  Zn    Zn3+2 0.086770 0.999990 0.206580 1.029947
Zn15  Zn    Zn3+2 0.913230 0.999990 0.793420 1.046615
Zn16  Zn    Zn3+2 0.413230 0.499990 0.706580 1.090713

loop_
_geom_bond_atom_site_label_1
_geom_bond_atom_site_label_2
_ccdc_geom_bond_type
O14   S9    D    
C107  C112  A    
C19   C20   S    
C34   C42   A    
O52   Zn12  S    
C4    C118  A    
C114  C115  A    
O37   Zn14  S    
C5    C119  A    
H19   O75   S    
H66   O94   S    
C43   C99   S    
O81   S15   D    
O34   Zn11  S    
C76   H11   S    
C87   O37   A    
O24   Zn8   S    
O40   Zn2   S    
O56   Zn15  S    
O44   Zn10  S    
C88   O13   A    
C62   S10   S    
C100  O60   A    
C68   C90   S    
C55   O45   A    
O119  S5    D    
C103  O63   A    
C99   O24   A    
C54   C59   A    
C72   C94   S    
C21   H57   S    
O57   Zn16  S    
O77   Zn6   S    
O78   S14   D    
C21   C22   S    
C29   O91   S    
C65   C87   S    
H82   O21   S    
C64   S13   S    
H71   O107  S    
C102  O67   A    
C54   S3    S    
C27   C31   A    
C28   C32   A    
O94   S16   S    
C23   H62   S    
C61   S9    S    
O33   Zn9   S    
C4    C5    A    
C17   O87   S    
O112  S3    D    
C16   H42   S    
C14   H36   S    
O118  S5    D    
O36   Zn13  S    
C108  C113  A    
C75   C76   A    
C17   H44   S    
C27   O89   S    
C11   H30   S    
C115  C118  A    
C89   O27   A    
O69   Zn11  S    
O5    S6    S    
C25   H65   S    
O35   Zn12  S    
C20   H52   S    
C14   H38   S    
O108  S2    D    
O72   S1    S    
C73   C95   S    
O117  S4    S    
O11   S8    S    
C27   C71   A    
C81   H16   S    
C34   H4    S    
C49   C62   A    
O65   Zn1   S    
C36   H6    S    
C51   C64   A    
C22   H59   S    
O31   Zn11  S    
C46   C77   S    
C38   H8    S    
C53   C58   A    
C6    C7    A    
C71   C93   S    
C82   C85   A    
C15   O86   S    
O74   S12   D    
C15   H40   S    
H68   O97   S    
O116  S4    D    
O19   S11   D    
O22   S13   D    
C65   C110  A    
O111  S2    S    
C58   C67   A    
C51   S19   S    
C107  S14   S    
C102  C119  S    
C10   H28   S    
O98   S18   D    
C28   O90   S    
C55   O99   A    
O39   Zn16  S    
C80   H15   S    
H79   O11   S    
C101  C118  S    
C3    C116  A    
C109  C111  A    
C10   H29   S    
C43   C52   A    
C40   C49   A    
C59   S7    S    
C9    H26   S    
O23   S13   D    
O107  S20   S    
C35   H5    S    
O76   S14   D    
C44   O43   A    
C5    H12   S    
C20   H54   S    
C21   H55   S    
O114  S3    S    
C32   C41   A    
O55   Zn8   S    
O29   Zn9   S    
C35   C43   A    
C114  C119  A    
C45   C53   A    
C50   C63   A    
C32   H3    S    
C90   O28   A    
O67   Zn9   S    
C106  C111  A    
O28   Zn1   S    
C39   C55   S    
C50   S18   S    
C111  H56   S    
C10   O84   S    
C108  S15   S    
C96   O52   A    
C52   C57   A    
O103  S19   D    
O38   Zn15  S    
O120  S5    S    
C101  O65   A    
O97   S17   S    
C94   O39   A    
O46   Zn12  S    
C17   C18   S    
C63   S11   S    
O1    Zn14  S    
C11   H31   S    
C26   C30   A    
C83   C97   S    
O6    S7    D    
O61   Zn5   S    
O63   Zn7   S    
C79   H14   S    
C105  C109  A    
C47   C66   S    
O43   Zn14  S    
C105  C115  A    
O104  S19   S    
C81   C86   A    
C74   C84   A    
O13   Zn7   S    
C79   C82   A    
C18   H47   S    
C25   H64   S    
C91   O29   A    
C88   O48   A    
O48   Zn3   S    
O106  S20   D    
C7    H34   S    
C60   C69   A    
O15   S9    S    
C62   C71   A    
O41   Zn3   S    
O105  S20   D    
C10   C11   S    
C49   S17   S    
C40   C44   S    
O7    S7    D    
C74   H9    S    
C89   O38   A    
H20   O79   S    
C69   C91   S    
C60   S8    S    
C24   O86   S    
C48   S16   S    
C97   O56   A    
C47   C56   A    
C13   C68   A    
C61   C70   A    
O45   Zn15  S    
C103  C120  S    
C77   O51   A    
C19   H50   S    
O12   S9    D    
C76   C84   A    
C112  H67   S    
C90   O35   A    
O1    Zn5   S    
C23   H61   S    
O44   Zn7   S    
C3    C7    A    
O62   Zn6   S    
C57   S5    S    
O10   S8    D    
H74   O117  S    
C31   C40   A    
C78   C83   A    
C75   C83   A    
O4    S6    D    
C110  O83   S    
C66   O50   A    
C91   O36   A    
C113  H78   S    
O60   Zn4   S    
C19   O89   S    
O66   Zn5   S    
C75   H10   S    
C95   O40   A    
O113  S3    D    
O80   S15   D    
O2    Zn8   S    
C28   C72   A    
C23   O91   S    
O17   S10   D    
C66   O110  A    
C14   H37   S    
O95   S17   D    
C26   O87   S    
C45   C88   S    
H73   O114  S    
C22   H60   S    
C117  C120  A    
O20   S11   D    
O25   S13   S    
O58   Zn2   S    
O93   S16   D    
C29   C34   A    
C56   C60   A    
O55   Zn4   S    
C15   H39   S    
C80   C85   A    
O3    S6    D    
C46   C54   A    
C35   C110  A    
C109  H45   S    
H76   O5    S    
O42   Zn4   S    
C26   C70   A    
O100  S18   D    
H75   O120  S    
O53   Zn13  S    
C41   C50   A    
C2    O84   S    
C18   H49   S    
C101  O61   A    
O26   Zn1   S    
O101  S18   S    
C70   C92   S    
C31   H2    S    
C57   C65   A    
C56   S4    S    
C92   O41   A    
C16   H41   S    
C87   O26   A    
C17   H46   S    
C33   C41   S    
C108  C116  A    
H77   O8    S    
C77   O2    A    
O68   Zn10  S    
C9    H25   S    
C4    H1    S    
C86   C98   S    
C78   H13   S    
C93   O42   A    
O49   Zn4   S    
C1    C42   S    
C52   S20   S    
C63   C72   A    
C74   C78   A    
H80   O15   S    
C8    H22   S    
C37   C46   A    
C104  O69   A    
C107  C117  A    
C79   C86   A    
C39   C48   A    
C3    C104  S    
C13   O85   S    
O92   S16   D    
O47   Zn13  S    
C12   H33   S    
C22   H58   S    
C97   O53   A    
C93   O31   A    
H69   O101  S    
C106  C114  A    
O55   Zn2   S    
C19   H51   S    
C82   H17   S    
H70   O104  S    
C29   C73   A    
O54   Zn14  S    
C15   C16   S    
C67   C89   S    
C116  C117  A    
C58   S6    S    
C84   C96   S    
O82   S15   S    
C33   O47   A    
C8    O83   S    
O33   Zn13  S    
C98   O59   A    
C8    C9    S    
C30   C39   A    
C24   C38   A    
O30   Zn10  S    
O75   S12   S    
O27   Zn9   S    
C13   C37   A    
C42   C51   A    
O70   S1    D    
O1    Zn1   S    
O32   Zn10  S    
H81   O18   S    
O44   Zn3   S    
O88   Zn5   S    
C6    C120  A    
C112  C113  A    
C24   C69   A    
C16   H43   S    
C106  S12   S    
C33   O77   A    
H72   O111  S    
O1    Zn12  S    
C2    C67   A    
H83   O25   S    
C18   H48   S    
C1    O46   A    
C1    O66   A    
C12   O85   S    
C9    H27   S    
O51   Zn2   S    
H18   O72   S    
C95   O34   A    
O50   Zn16  S    
O110  Zn7   S    
C59   C68   A    
C20   H53   S    
O18   S10   S    
C64   C73   A    
O59   Zn3   S    
O44   Zn16  S    
C105  S1    S    
C36   C45   A    
C8    H24   S    
O21   S11   S    
C38   C47   A    
O102  S19   D    
O8    S7    S    
C96   O54   A    
C100  O58   A    
O109  S2    D    
O71   S1    D    
C12   H35   S    
O96   S17   D    
H21   O82   S    
C2    C36   A    
C44   O88   A    
O9    S8    D    
O79   S14   S    
C21   O90   S    
C104  O64   A    
C80   C81   A    
C30   H84   S    
C103  O68   A    
C12   C14   S    
C99   O49   A    
C85   C100  S    
O33   Zn15  S    
C98   O57   A    
C94   O32   A    
C48   C61   A    
C53   S2    S    
O73   S12   D    
C92   O30   A    
O99   Zn6   S    
C23   C25   S    
O16   S10   D    
O55   Zn11  S    
C11   H32   S    
O115  S4    D    
C102  O62   A    
O64   Zn8   S    
C6    H23   S    
O33   Zn6   S    
C25   H63   S    
C37   H7    S    
