data_mof_unit_39165.cif
_audit_creation_date              2012-10-26T21:33:23-0400
_audit_creation_method            fapswitch 2.2
_symmetry_space_group_name_H-M    P1
_symmetry_Int_Tables_number       1
_space_group_crystal_system       triclinic
_cell_length_a                    28.117009
_cell_length_b                    18.549278
_cell_length_c                    17.124501
_cell_angle_alpha                 89.900106
_cell_angle_beta                  60.687996
_cell_angle_gamma                 89.505935
_cell_volume                      7787.46424959

loop_
_atom_site_label
_atom_site_type_symbol
_atom_type_description
_atom_site_fract_x
_atom_site_fract_y
_atom_site_fract_z
_atom_type_partial_charge
C1    C     C_R   0.702813 0.270753 0.675640 0.882823
C2    C     C_R   0.097540 0.498417 0.502818 0.059398
C3    C     C_R   0.199116 0.199155 0.897491 -0.028479
C4    C     C_R   0.074405 0.099104 0.933777 0.924544
C5    C     C_R   0.927138 0.899117 0.065015 0.924705
C6    C     C_R   0.924989 0.098701 0.066979 0.933828
C7    C     C_R   0.073164 0.899293 0.934929 0.920998
C8    C     C_R   0.574402 0.599109 0.933780 0.924503
C9    C     C_R   0.427137 0.399118 0.065015 0.924700
C10   C     C_R   0.424988 0.598699 0.066980 0.933808
C11   C     C_R   0.573168 0.399297 0.934926 0.920974
C12   C     C_R   0.572941 0.122660 0.432910 0.098020
C13   C     C_R   0.421004 0.997875 0.434717 0.052031
C14   C     C_R   0.465724 0.866863 0.452979 0.109297
C15   C     C_R   0.479317 0.125455 0.411905 0.100777
C16   C     C_R   0.542352 0.869593 0.513259 0.106223
C17   C     C_R   0.072940 0.622658 0.432915 0.098024
C18   C     C_R   0.965722 0.366863 0.452991 0.109295
C19   C     C_R   0.979314 0.625455 0.411915 0.100773
C20   C     C_R   0.042350 0.369593 0.513269 0.106221
C21   C     C_R   0.558538 0.185492 0.402815 -0.196720
C22   C     C_R   0.482619 0.802376 0.475355 -0.219159
C23   C     C_R   0.511311 0.187394 0.394498 -0.215664
C24   C     C_R   0.597541 0.998418 0.502812 0.059390
C25   C     C_R   0.519062 0.804112 0.508860 -0.225188
C26   C     C_R   0.058537 0.685491 0.402820 -0.196723
C27   C     C_R   0.982617 0.302376 0.475365 -0.219160
C28   C     C_R   0.011309 0.687393 0.394505 -0.215656
C29   C     C_R   0.019060 0.304112 0.508870 -0.225194
C30   C     C_R   0.496296 0.061317 0.435109 0.029767
C31   C     C_R   0.528532 0.933271 0.484516 0.022530
C32   C     C_R   0.541369 0.060777 0.450026 0.025560
C33   C     C_R   0.487861 0.932386 0.459448 0.020427
C34   C     C_R   0.996293 0.561317 0.435121 0.029757
C35   C     C_R   0.079898 0.372145 0.544272 -0.216260
C36   C     C_R   0.028530 0.433271 0.484527 0.022525
C37   C     C_R   0.041367 0.560776 0.450035 0.025559
C38   C     C_R   0.987858 0.432387 0.459461 0.020426
C39   C     C_R   0.968957 0.497157 0.441464 -0.030503
C40   C     C_R   0.055339 0.497744 0.480405 -0.032407
C41   C     C_R   0.468961 0.997157 0.441450 -0.030514
C42   C     C_R   0.555341 0.997744 0.480396 -0.032411
C43   C     C_R   0.895642 0.432383 0.436180 -0.021347
C44   C     C_R   0.128087 0.561510 0.489876 -0.023688
C45   C     C_R   0.111197 0.434756 0.533117 -0.005108
C46   C     C_R   0.930043 0.626650 0.409154 -0.224328
C47   C     C_R   0.897232 0.564024 0.430567 -0.004249
C48   C     C_R   0.395645 0.932383 0.436167 -0.021339
C49   C     C_R   0.628088 0.061511 0.489872 -0.023685
C50   C     C_R   0.611198 0.934756 0.533110 -0.005104
C51   C     C_R   0.397235 0.064024 0.430554 -0.004233
C52   C     C_R   0.840316 0.434865 0.454570 -0.212418
C53   C     C_R   0.166824 0.562559 0.521679 -0.212697
C54   C     C_R   0.157251 0.435406 0.547289 -0.251172
C55   C     C_R   0.840965 0.564125 0.453143 -0.247197
C56   C     C_R   0.340317 0.934865 0.454568 -0.212461
C57   C     C_R   0.924796 0.367496 0.429310 -0.222205
C58   C     C_R   0.666824 0.062560 0.521677 -0.212703
C59   C     C_R   0.657252 0.935406 0.547285 -0.251164
C60   C     C_R   0.340966 0.064125 0.453141 -0.247319
C61   C     C_R   0.812169 0.499928 0.476864 0.361571
C62   C     C_R   0.177479 0.500603 0.556965 0.389981
C63   C     C_R   0.312169 0.999928 0.476880 0.361664
C64   C     C_R   0.677478 0.000603 0.556962 0.389975
C65   C     C_3   0.740311 0.512612 0.619140 0.124281
C66   C     C_3   0.683183 0.483548 0.680329 -0.342888
C67   C     C_3   0.640709 0.514538 0.658235 -0.717022
C68   C     C_R   0.118317 0.620720 0.446040 -0.214380
C69   C     C_3   0.184784 0.495317 0.684939 0.085078
C70   C     C_3   0.177049 0.569529 0.728934 -0.318656
C71   C     C_3   0.150808 0.563786 0.830541 -0.962230
C72   C     C_3   0.240371 0.012675 0.619195 0.124241
C73   C     C_3   0.183274 0.983588 0.680506 -0.342854
C74   C     C_3   0.140752 0.014387 0.658401 -0.716923
C75   C     C_3   0.684781 0.995319 0.684939 0.085034
C76   C     C_3   0.677059 0.069530 0.728930 -0.318603
C77   C     C_3   0.650817 0.063789 0.830538 -0.962242
C78   C     C_3   0.806201 0.287897 0.756443 0.068686
C79   C     C_R   0.579900 0.872145 0.544263 -0.216275
C80   C     C_3   0.824416 0.334469 0.672978 -0.315989
C81   C     C_3   0.861975 0.394516 0.670393 -0.986068
C82   C     C_3   0.283470 0.879185 0.196432 0.021912
C83   C     C_3   0.283501 0.912422 0.278073 -0.276541
C84   C     C_3   0.299762 0.991678 0.262298 -0.950069
C85   C     C_3   0.197625 0.289417 0.236103 0.090627
C86   C     C_3   0.194383 0.358002 0.289062 -0.381819
C87   C     C_3   0.155933 0.413491 0.283109 -0.930439
C88   C     C_3   0.808854 0.687017 0.702973 0.155611
C89   C     C_3   0.834950 0.646323 0.750451 -0.399414
C90   C     C_R   0.430045 0.126650 0.409143 -0.224309
C91   C     C_3   0.880371 0.595967 0.685426 -0.945921
C92   C     C_3   0.306190 0.787942 0.756456 0.068670
C93   C     C_3   0.324410 0.834500 0.672979 -0.315959
C94   C     C_3   0.361965 0.894555 0.670389 -0.986088
C95   C     C_3   0.783410 0.379167 0.196477 0.021885
C96   C     C_3   0.783364 0.412430 0.278170 -0.276417
C97   C     C_3   0.799537 0.491717 0.262461 -0.950054
C98   C     C_3   0.697630 0.789401 0.236092 0.090606
C99   C     C_3   0.694377 0.857980 0.289067 -0.381790
C100  C     C_3   0.655930 0.913470 0.283106 -0.930452
C101  C     C_R   0.424798 0.867495 0.429298 -0.222199
C102  C     C_3   0.308861 0.187058 0.702986 0.155614
C103  C     C_3   0.334952 0.146366 0.750475 -0.399436
C104  C     C_3   0.380382 0.096018 0.685454 -0.945916
C105  C     C_R   0.299663 0.734498 0.323562 0.881702
C106  C     C_R   0.618316 0.120722 0.446037 -0.214370
C107  C     C_R   0.719719 0.269804 0.958185 0.127768
C108  C     C_R   0.281193 0.742756 0.046518 0.161350
C109  C     C_R   0.287839 0.256114 0.035984 0.117323
C110  C     C_R   0.729836 0.718034 0.945339 0.144490
C111  C     C_R   0.219713 0.769797 0.958189 0.127777
C112  C     C_R   0.781196 0.242753 0.046514 0.161395
C113  C     C_R   0.787849 0.756100 0.035975 0.117320
C114  C     C_R   0.229825 0.218050 0.945351 0.144483
C115  C     C_R   0.731326 0.198824 0.972372 -0.127929
C116  C     C_R   0.297146 0.271012 0.324526 0.902228
C117  C     C_R   0.270979 0.813531 0.028921 -0.128381
C118  C     C_R   0.265907 0.186676 0.045078 -0.133328
C119  C     C_R   0.752077 0.787211 0.936015 -0.110775
C120  C     C_R   0.231337 0.698820 0.972353 -0.127920
C121  C     C_R   0.771001 0.313530 0.028893 -0.128443
C122  C     C_R   0.765914 0.686662 0.045072 -0.133335
C123  C     C_R   0.252063 0.287228 0.936032 -0.110776
C124  C     C_R   0.760986 0.185450 0.017351 -0.208483
C125  C     C_R   0.238968 0.826929 0.988498 -0.242543
C126  C     C_R   0.237145 0.167889 0.000388 -0.246452
C127  C     C_R   0.704044 0.726815 0.674314 0.873318
C128  C     C_R   0.780888 0.805868 0.980274 -0.243596
C129  C     C_R   0.260999 0.685450 0.017332 -0.208504
C130  C     C_R   0.738990 0.326934 0.988472 -0.242529
C131  C     C_R   0.737152 0.667874 0.000381 -0.246450
C132  C     C_R   0.280875 0.305885 0.980290 -0.243606
C133  C     C_R   0.642168 0.325192 0.948153 -0.274944
C134  C     C_R   0.356050 0.676184 0.055722 -0.299455
C135  C     C_R   0.361829 0.319653 0.049379 -0.275631
C136  C     C_R   0.649228 0.663287 0.941524 -0.291391
C137  C     C_R   0.142159 0.825178 0.948161 -0.274957
C138  C     C_R   0.202811 0.770751 0.675641 0.882855
C139  C     C_R   0.856051 0.176184 0.055720 -0.299458
C140  C     C_R   0.861835 0.819645 0.049375 -0.275628
C141  C     C_R   0.149224 0.163295 0.941526 -0.291417
C142  C     C_R   0.615573 0.345509 0.899943 -0.061382
C143  C     C_R   0.383181 0.653796 0.102475 -0.061851
C144  C     C_R   0.385758 0.344400 0.099806 -0.064935
C145  C     C_R   0.619710 0.647967 0.896364 -0.059090
C146  C     C_R   0.115565 0.845496 0.899950 -0.061387
C147  C     C_R   0.883183 0.153799 0.102473 -0.061850
C148  C     C_R   0.885760 0.844396 0.099805 -0.064936
C149  C     C_R   0.799663 0.234498 0.323562 0.881722
C150  C     C_R   0.119717 0.147954 0.896353 -0.059128
C151  C     C_R   0.633125 0.320575 0.814794 -0.360885
C152  C     C_R   0.367699 0.679785 0.186618 -0.334413
C153  C     C_R   0.366929 0.321913 0.186346 -0.337539
C154  C     C_R   0.636410 0.673869 0.812000 -0.343022
C155  C     C_R   0.133115 0.820558 0.814803 -0.360832
C156  C     C_R   0.867703 0.179793 0.186614 -0.334414
C157  C     C_R   0.866929 0.821913 0.186345 -0.337541
C158  C     C_R   0.136429 0.173826 0.811974 -0.342981
C159  C     C_R   0.682254 0.284979 0.770360 -0.162911
C160  C     C_R   0.797147 0.771011 0.324525 0.902227
C161  C     C_R   0.324322 0.726670 0.226944 -0.158245
C162  C     C_R   0.318990 0.284315 0.229198 -0.158594
C163  C     C_R   0.686166 0.706604 0.766058 -0.170922
C164  C     C_R   0.182248 0.784971 0.770365 -0.163007
C165  C     C_R   0.824320 0.226670 0.226943 -0.158249
C166  C     C_R   0.818992 0.784311 0.229197 -0.158600
C167  C     C_R   0.186173 0.206591 0.766050 -0.170944
C168  C     C_R   0.713486 0.269630 0.814511 0.481983
C169  C     C_R   0.300204 0.757053 0.177500 0.489867
C170  C     C_R   0.289739 0.266308 0.183000 0.479250
C171  C     C_R   0.204047 0.226810 0.674311 0.873328
C172  C     C_R   0.719944 0.715708 0.806422 0.460330
C173  C     C_R   0.213482 0.769628 0.814515 0.481988
C174  C     C_R   0.800197 0.257044 0.177503 0.489830
C175  C     C_R   0.789743 0.766299 0.182995 0.479260
C176  C     C_R   0.219942 0.215718 0.806426 0.460326
C177  C     C_R   0.695471 0.127815 0.520407 0.935733
C178  C     C_R   0.307706 0.870872 0.469112 0.917255
C179  C     C_R   0.308435 0.129286 0.467049 0.898074
C180  C     C_R   0.691115 0.870792 0.533774 0.913109
C181  C     C_R   0.195471 0.627815 0.520407 0.935714
C182  C     C_R   0.921000 0.497876 0.434732 0.052029
C183  C     C_R   0.807706 0.370872 0.469111 0.917159
C184  C     C_R   0.808435 0.629286 0.467051 0.898091
C185  C     C_R   0.191114 0.370791 0.533775 0.913109
C186  C     C_R   0.690654 0.285650 0.906881 -0.053399
C187  C     C_R   0.313770 0.727409 0.092778 -0.040386
C188  C     C_R   0.314051 0.279034 0.089718 -0.039789
C189  C     C_R   0.699121 0.699144 0.897486 -0.028484
C190  C     C_R   0.190646 0.785640 0.906887 -0.053396
C191  C     C_R   0.813769 0.227405 0.092777 -0.040367
C192  C     C_R   0.814058 0.779022 0.089711 -0.039790
H1    H     H_    0.029998 0.254175 0.529275 0.140667
H2    H     H_    0.918078 0.676600 0.390950 0.175479
H3    H     H_    0.852137 0.685380 0.778982 0.246814
H4    H     H_    0.803428 0.613847 0.805946 0.215074
H5    H     H_    0.864414 0.558385 0.653509 0.261914
H6    H     H_    0.896718 0.564031 0.722077 0.270961
H7    H     H_    0.914149 0.627575 0.632347 0.274210
H8    H     H_    0.341960 0.756513 0.749148 0.161503
H9    H     H_    0.294123 0.824132 0.814528 0.138894
H10   H     H_    0.346435 0.800123 0.612468 0.253559
H11   H     H_    0.288360 0.859570 0.673168 0.204916
H12   H     H_    0.372194 0.930020 0.612414 0.276003
H13   H     H_    0.914979 0.316309 0.411518 0.179304
H14   H     H_    0.400227 0.871459 0.664267 0.279459
H15   H     H_    0.341369 0.928194 0.731937 0.259548
H16   H     H_    0.757624 0.414115 0.179198 0.166645
H17   H     H_    0.825695 0.380602 0.138094 0.106843
H18   H     H_    0.741941 0.408265 0.337341 0.254359
H19   H     H_    0.813043 0.382995 0.291784 0.194054
H20   H     H_    0.841330 0.497256 0.204661 0.255065
H21   H     H_    0.798918 0.514430 0.322817 0.284376
H22   H     H_    0.770392 0.523127 0.249285 0.266791
H23   H     H_    0.657285 0.762723 0.271182 0.165045
H24   H     H_    0.145479 0.665815 0.419630 0.190476
H25   H     H_    0.703420 0.804144 0.169334 0.149869
H26   H     H_    0.679546 0.843953 0.360229 0.254972
H27   H     H_    0.735036 0.883300 0.261925 0.211240
H28   H     H_    0.670409 0.928332 0.212169 0.259421
H29   H     H_    0.655089 0.962993 0.319912 0.274757
H30   H     H_    0.614090 0.891485 0.312317 0.271518
H31   H     H_    0.341664 0.213798 0.642762 0.184933
H32   H     H_    0.289521 0.147890 0.678023 0.091266
H33   H     H_    0.352129 0.185426 0.779020 0.246815
H34   H     H_    0.303430 0.113883 0.805960 0.215073
H35   H     H_    0.583485 0.824789 0.577846 0.173279
H36   H     H_    0.364434 0.058430 0.653529 0.261910
H37   H     H_    0.396728 0.064088 0.722111 0.270960
H38   H     H_    0.414159 0.127632 0.632381 0.274205
H39   H     H_    0.418078 0.176601 0.390942 0.175477
H40   H     H_    0.414979 0.816309 0.411510 0.179301
H41   H     H_    0.645477 0.165818 0.419631 0.190484
H42   H     H_    0.731943 0.382176 0.975820 0.135564
H43   H     H_    0.268455 0.630137 0.028970 0.140490
H44   H     H_    0.296015 0.360310 0.973526 0.143579
H45   H     H_    0.999714 0.737254 0.375003 0.141939
H46   H     H_    0.720940 0.613978 0.008339 0.136359
H47   H     H_    0.231908 0.882171 0.975865 0.135561
H48   H     H_    0.768430 0.130137 0.029007 0.140490
H49   H     H_    0.796030 0.860292 0.973507 0.143578
H50   H     H_    0.220936 0.113991 0.008341 0.136365
H51   H     H_    0.717210 0.153906 0.949059 0.144863
H52   H     H_    0.289384 0.858785 0.042677 0.114038
H53   H     H_    0.270655 0.147154 0.087437 0.155984
H54   H     H_    0.746231 0.827571 0.895646 0.159479
H55   H     H_    0.217234 0.653899 0.949023 0.144863
H56   H     H_    0.965412 0.251285 0.471705 0.138820
H57   H     H_    0.789422 0.358777 0.042629 0.114005
H58   H     H_    0.770659 0.647143 0.087436 0.155991
H59   H     H_    0.246215 0.327590 0.895666 0.159485
H60   H     H_    0.626608 0.342909 0.016765 0.178957
H61   H     H_    0.367205 0.652958 0.990900 0.173959
H62   H     H_    0.379285 0.334247 0.979443 0.173035
H63   H     H_    0.634015 0.646101 0.010124 0.173754
H64   H     H_    0.126597 0.842893 0.016774 0.178956
H65   H     H_    0.867207 0.152959 0.990897 0.173962
H66   H     H_    0.879292 0.834237 0.979438 0.173034
H67   H     H_    0.082653 0.733888 0.388879 0.150160
H68   H     H_    0.134004 0.146121 0.010131 0.173760
H69   H     H_    0.610647 0.334392 0.780262 0.198230
H70   H     H_    0.387035 0.659173 0.223640 0.198593
H71   H     H_    0.387456 0.338769 0.222780 0.198198
H72   H     H_    0.611769 0.664964 0.780183 0.189530
H73   H     H_    0.110637 0.834373 0.780271 0.198275
H74   H     H_    0.887041 0.159185 0.223634 0.198588
H75   H     H_    0.887455 0.838773 0.222782 0.198199
H76   H     H_    0.111807 0.164877 0.780130 0.189662
H77   H     H_    0.740020 0.571315 0.631707 0.124955
H78   H     H_    0.529999 0.754175 0.529266 0.140664
H79   H     H_    0.768485 0.485679 0.638939 0.066129
H80   H     H_    0.684204 0.424239 0.673544 0.226595
H81   H     H_    0.671001 0.496712 0.751037 0.171458
H82   H     H_    0.639994 0.574196 0.661853 0.250542
H83   H     H_    0.599732 0.494246 0.707256 0.224143
H84   H     H_    0.649830 0.497636 0.590054 0.266107
H85   H     H_    0.209988 0.461071 0.704188 0.173984
H86   H     H_    0.144565 0.467936 0.711671 0.104996
H87   H     H_    0.217359 0.595857 0.702642 0.263428
H88   H     H_    0.150722 0.603874 0.712213 0.202046
H89   H     H_    0.499715 0.237255 0.374997 0.141938
H90   H     H_    0.109980 0.538660 0.858778 0.263755
H91   H     H_    0.145897 0.618530 0.859876 0.272310
H92   H     H_    0.176967 0.530959 0.849132 0.262432
H93   H     H_    0.240058 0.071386 0.631706 0.124905
H94   H     H_    0.268591 0.985818 0.638942 0.066177
H95   H     H_    0.184330 0.924259 0.673875 0.226288
H96   H     H_    0.171118 0.996903 0.751169 0.171409
H97   H     H_    0.140168 0.074072 0.661441 0.250690
H98   H     H_    0.099766 0.994363 0.707766 0.224403
H99   H     H_    0.149715 0.997031 0.590450 0.265890
H100  H     H_    0.465414 0.751285 0.471696 0.138821
H101  H     H_    0.709978 0.961062 0.704189 0.173983
H102  H     H_    0.644556 0.967953 0.711673 0.104998
H103  H     H_    0.717375 0.095844 0.702637 0.263435
H104  H     H_    0.650738 0.103887 0.712209 0.202051
H105  H     H_    0.609985 0.038677 0.858776 0.263753
H106  H     H_    0.645918 0.118531 0.859870 0.272312
H107  H     H_    0.676970 0.030950 0.849130 0.262435
H108  H     H_    0.841970 0.256449 0.749109 0.161482
H109  H     H_    0.794153 0.324074 0.814518 0.138924
H110  H     H_    0.846437 0.300100 0.612459 0.253550
H111  H     H_    0.582653 0.233890 0.388878 0.150164
H112  H     H_    0.788365 0.359547 0.673180 0.204921
H113  H     H_    0.872202 0.429989 0.612425 0.276013
H114  H     H_    0.900237 0.371414 0.664264 0.279458
H115  H     H_    0.841382 0.428150 0.731947 0.259555
H116  H     H_    0.257674 0.914168 0.179213 0.166635
H117  H     H_    0.325737 0.880592 0.137999 0.106889
H118  H     H_    0.242086 0.908329 0.337277 0.254391
H119  H     H_    0.313166 0.882921 0.291661 0.193987
H120  H     H_    0.341537 0.997145 0.204434 0.255077
H121  H     H_    0.299227 0.014363 0.322594 0.284192
H122  H     H_    0.083484 0.324789 0.577855 0.173277
H123  H     H_    0.270619 0.023161 0.249191 0.266836
H124  H     H_    0.157278 0.262745 0.271208 0.165051
H125  H     H_    0.203409 0.304152 0.169347 0.149870
H126  H     H_    0.179561 0.343983 0.360223 0.254965
H127  H     H_    0.235045 0.383319 0.261902 0.211241
H128  H     H_    0.170405 0.428349 0.212173 0.259420
H129  H     H_    0.155097 0.463017 0.319907 0.274755
H130  H     H_    0.114092 0.391507 0.312333 0.271517
H131  H     H_    0.841655 0.713747 0.642736 0.184960
H132  H     H_    0.789499 0.647852 0.678030 0.091250
O1    O     O_R   0.746490 0.236330 0.638080 -0.590005
O2    O     O_R   0.325830 0.813840 0.483730 -0.679599
O3    O     O_R   0.325830 0.186160 0.483730 -0.669351
O4    O     O_R   0.674170 0.813840 0.516270 -0.663695
O5    O     O_R   0.174170 0.686160 0.516270 -0.656052
O6    O     O_R   0.825830 0.313840 0.483730 -0.679595
O7    O     O_R   0.825830 0.686160 0.483730 -0.669355
O8    O     O_R   0.174170 0.313840 0.516270 -0.663690
O9    O     O_R   0.739960 0.127620 0.525000 -0.570603
O10   O     O_R   0.260040 0.872380 0.475000 -0.586734
O11   O     O_R   0.260040 0.127620 0.475000 -0.570687
O12   O     O_R   0.253510 0.763670 0.361920 -0.602278
O13   O     O_R   0.739960 0.872380 0.525000 -0.567030
O14   O     O_R   0.239960 0.627620 0.525000 -0.570607
O15   O     O_R   0.760040 0.372380 0.475000 -0.586734
O16   O     O_R   0.760040 0.627620 0.475000 -0.570698
O17   O     O_R   0.239960 0.372380 0.525000 -0.567031
O18   O     O_R   0.680700 0.294870 0.629350 -0.638074
O19   O     O_R   0.319300 0.705130 0.370650 -0.641993
O20   O     O_R   0.319300 0.294870 0.370650 -0.642069
O21   O     O_R   0.680700 0.705130 0.629350 -0.650614
O22   O     O_R   0.180700 0.794870 0.629350 -0.637944
O23   O     O_R   0.253510 0.236330 0.361920 -0.576243
O24   O     O_R   0.819300 0.205130 0.370650 -0.641984
O25   O     O_R   0.819300 0.794870 0.370650 -0.642066
O26   O     O_R   0.180700 0.205130 0.629350 -0.650668
O27   O     O_R   0.062020 0.072840 0.007170 -0.628543
O28   O     O_R   0.937980 0.927160 0.992830 -0.628945
O29   O     O_R   0.937980 0.072840 0.992830 -0.627837
O30   O     O_R   0.062020 0.927160 0.007170 -0.629997
O31   O     O_R   0.562020 0.572840 0.007170 -0.628550
O32   O     O_R   0.437980 0.427160 0.992830 -0.628950
O33   O     O_R   0.437980 0.572840 0.992830 -0.627844
O34   O     O_R   0.746490 0.763670 0.638080 -0.600038
O35   O     O_R   0.562020 0.427160 0.007170 -0.630000
O36   O     O_R   0.947860 0.073950 0.109290 -0.624061
O37   O     O_R   0.052140 0.926050 0.890710 -0.629846
O38   O     O_R   0.052140 0.073950 0.890710 -0.626816
O39   O     O_R   0.947860 0.926050 0.109290 -0.624483
O40   O     O_R   0.447860 0.573950 0.109290 -0.624067
O41   O     O_R   0.552140 0.426050 0.890710 -0.629774
O42   O     O_R   0.552140 0.573950 0.890710 -0.626723
O43   O     O_R   0.447860 0.426050 0.109290 -0.624484
O44   O     O_3   0.755582 0.500021 0.528076 -0.574492
O45   O     O_R   0.246490 0.736330 0.638080 -0.590015
O46   O     O_3   0.213554 0.502298 0.590433 -0.602232
O47   O     O_3   0.255586 0.000018 0.528168 -0.574348
O48   O     O_3   0.713553 0.002298 0.590433 -0.602231
O49   O     O_3   0.765094 0.238200 0.767698 -0.632951
O50   O     O_3   0.259744 0.809524 0.215691 -0.628090
O51   O     O_3   0.237367 0.238510 0.230392 -0.640574
O52   O     O_3   0.772697 0.741886 0.758638 -0.651777
O53   O     O_3   0.265098 0.738224 0.767696 -0.632947
O54   O     O_3   0.759715 0.309487 0.215706 -0.628077
O55   O     O_3   0.737373 0.738497 0.230384 -0.640574
O56   O     O_R   0.753510 0.263670 0.361920 -0.602304
O57   O     O_3   0.272690 0.241914 0.758652 -0.651777
O58   O     O_R   0.753510 0.736330 0.361920 -0.576247
O59   O     O_R   0.246490 0.263670 0.638080 -0.600048
O60   O     O_R   0.674170 0.186160 0.516270 -0.656037
Zn1   Zn    Zn3+2 0.792340 0.208750 0.507670 0.954153
Zn2   Zn    Zn3+2 0.494040 0.500000 0.919480 0.917152
Zn3   Zn    Zn3+2 0.005960 0.000000 0.080520 0.932404
Zn4   Zn    Zn3+2 0.994040 0.000000 0.919480 0.917066
Zn5   Zn    Zn3+2 0.207660 0.791250 0.492330 0.950084
Zn6   Zn    Zn3+2 0.207660 0.208750 0.492330 0.958199
Zn7   Zn    Zn3+2 0.792340 0.791250 0.507670 0.960189
Zn8   Zn    Zn3+2 0.292340 0.708750 0.507670 0.954166
Zn9   Zn    Zn3+2 0.707660 0.291250 0.492330 0.950046
Zn10  Zn    Zn3+2 0.707660 0.708750 0.492330 0.958148
Zn11  Zn    Zn3+2 0.292340 0.291250 0.507670 0.960173
Zn12  Zn    Zn3+2 0.505960 0.500000 0.080520 0.932406

loop_
_geom_bond_atom_site_label_1
_geom_bond_atom_site_label_2
_ccdc_geom_bond_type
C65   O44   S    
C106  H41   S    
C8    C145  S    
C50   C79   A    
C14   C33   A    
C19   C46   A    
C102  H32   S    
C16   C31   A    
C89   H4    S    
C140  H66   S    
C129  H43   S    
C71   H92   S    
C97   H20   S    
C119  H54   S    
C112  C124  A    
C52   C61   A    
O7    Zn7   S    
C16   C25   A    
C70   H88   S    
C174  O54   S    
O18   Zn9   S    
C134  C143  A    
C13   C51   A    
C44   C53   A    
C10   O33   A    
C113  C122  A    
C87   H128  S    
O45   Zn8   S    
C111  C125  A    
C120  H55   S    
C160  C166  S    
C174  C191  A    
O28   Zn4   S    
C7    C146  S    
C119  C128  A    
C5    C148  S    
O27   Zn3   S    
C185  O8    A    
O43   Zn12  S    
C104  H36   S    
C170  O51   S    
C137  C146  A    
C1    C159  S    
C96   H18   S    
C169  C187  A    
O39   Zn3   S    
O40   Zn12  S    
O8    Zn6   S    
C167  C171  S    
C75   O48   S    
C58   C64   A    
C176  O57   S    
C120  C129  A    
C21   H111  S    
C142  C151  A    
C9    O43   A    
C75   C76   S    
O20   Zn11  S    
C64   O48   S    
C28   H45   S    
C11   O41   A    
C36   C40   A    
C109  C132  A    
C168  O49   S    
C164  C173  A    
C163  C172  A    
C132  H44   S    
C133  H60   S    
C155  H73   S    
C179  O3    A    
O5    Zn5   S    
C97   H22   S    
O31   Zn12  S    
C103  H33   S    
C50   C59   A    
C35   C45   A    
C87   H129  S    
C15   C30   A    
C77   H105  S    
C171  O59   A    
C95   H16   S    
C71   H90   S    
C72   H93   S    
C72   C73   S    
C7    O37   A    
C49   C106  A    
C88   O52   S    
C4    C150  S    
C175  O55   S    
O24   Zn1   S    
C18   C38   A    
C63   O47   S    
C112  C191  S    
C61   O44   S    
C104  H37   S    
C31   C42   A    
C100  H29   S    
C29   H1    S    
C48   C101  A    
C141  H68   S    
O42   Zn2   S    
O32   Zn2   S    
O14   Zn8   S    
C74   H99   S    
C93   H11   S    
O10   Zn5   S    
C69   O46   S    
C85   H125  S    
C2    C40   A    
C3    C176  A    
C78   O49   S    
C156  H74   S    
C88   C89   S    
C105  O12   A    
C98   C99   S    
C66   H81   S    
C123  C132  A    
C27   C29   A    
C4    O27   A    
C3    C141  A    
C121  C130  A    
C85   H124  S    
C178  O2    A    
C81   H113  S    
C56   C178  S    
C85   C86   S    
C60   C179  S    
O38   Zn4   S    
C133  C142  A    
C59   C180  S    
C185  O17   A    
C37   C40   A    
C51   C90   A    
C180  O13   A    
C114  C126  A    
C78   C80   S    
C43   C52   A    
C89   H3    S    
C5    O28   A    
C67   H84   S    
C20   C35   A    
C83   H118  S    
C2    C44   A    
C22   C25   A    
O30   Zn3   S    
C126  H50   S    
C55   C184  S    
C30   C41   A    
C89   C91   S    
O17   Zn11  S    
C152  C161  A    
C77   H107  S    
C161  C169  A    
C78   H108  S    
C66   C67   S    
O16   Zn10  S    
C92   O53   S    
C116  O23   A    
C69   C70   S    
O59   Zn11  S    
C141  C150  A    
C46   H2    S    
C2    C45   A    
C24   C50   A    
C168  C186  A    
C26   H67   S    
C34   C39   A    
O56   Zn9   S    
C171  O26   A    
C149  C165  S    
C76   H103  S    
C160  O58   A    
C175  C192  A    
C11   O35   A    
C165  C174  A    
C149  O24   A    
O12   Zn5   S    
C151  C159  A    
C74   H97   S    
O60   Zn9   S    
C6    O29   A    
C7    O30   A    
C122  H58   S    
C83   C84   S    
C99   H26   S    
C102  O57   S    
C160  O25   A    
C184  O7    A    
C19   C28   A    
C88   H131  S    
C114  C123  A    
C8    O31   A    
C105  C161  S    
C98   H25   S    
C94   H12   S    
C145  C154  A    
C122  C131  A    
C81   H115  S    
C82   H116  S    
C113  C192  S    
O58   Zn10  S    
O19   Zn8   S    
C134  H61   S    
C3    C114  S    
C110  C119  A    
C136  C189  A    
C116  O20   A    
C71   H91   S    
C14   C22   A    
C67   H82   S    
C112  C121  A    
C6    C147  S    
C73   H96   S    
C69   H86   S    
C55   C61   A    
O26   Zn6   S    
C101  H40   S    
C148  C157  A    
C135  H62   S    
C102  C103  S    
C153  H71   S    
C39   C182  A    
C154  H72   S    
C43   C57   A    
C137  C190  A    
C100  H28   S    
O21   Zn10  S    
C170  C188  A    
O41   Zn2   S    
C96   H19   S    
C177  O60   A    
C51   C60   A    
C92   H8    S    
C117  C125  A    
C98   H23   S    
C34   C37   A    
C24   C42   A    
C73   C74   S    
C136  H63   S    
C84   H120  S    
C149  O56   A    
C13   C41   A    
C80   H110  S    
C113  C128  A    
C107  C186  S    
C166  C175  A    
C95   O54   S    
C177  O9    A    
C139  C191  A    
C124  H48   S    
C179  O11   A    
C86   H126  S    
C131  H46   S    
C152  H70   S    
C173  C190  A    
C138  O22   A    
C91   H6    S    
C146  C155  A    
O36   Zn3   S    
C94   H14   S    
C109  C118  A    
C70   C71   S    
O33   Zn2   S    
O4    Zn10  S    
C83   H119  S    
C97   H21   S    
O2    Zn8   S    
C128  H49   S    
C107  C130  A    
C108  C117  A    
C9    C144  S    
C102  H31   S    
C23   H89   S    
C95   H17   S    
C72   H94   S    
C86   C87   S    
C181  O14   A    
C14   C101  A    
C54   C62   A    
C130  H42   S    
C70   H87   S    
C18   C57   A    
C104  H38   S    
C162  C170  A    
C100  H30   S    
O9    Zn1   S    
C147  C156  A    
C84   H121  S    
C35   H122  S    
C178  O10   A    
C143  C152  A    
C99   H27   S    
C62   O46   S    
C21   C23   A    
C80   H112  S    
C85   O51   S    
O11   Zn6   S    
C46   C47   A    
C17   C68   A    
C127  C163  S    
C115  C124  A    
C150  C158  A    
C134  C187  A    
C94   H15   S    
O3    Zn11  S    
C6    O36   A    
C172  C189  A    
C75   H102  S    
C110  C189  S    
C153  C162  A    
C16   C79   A    
C33   C41   A    
C36   C38   A    
C75   H101  S    
C27   H56   S    
C38   C39   A    
O23   Zn6   S    
C156  C165  A    
C139  H65   S    
C92   C93   S    
C67   H83   S    
C68   H24   S    
C137  H64   S    
C151  H69   S    
C20   C36   A    
C117  H52   S    
C111  C190  S    
O1    Zn1   S    
C82   C83   S    
O6    Zn1   S    
C103  C104  S    
C32   C42   A    
C181  O5    A    
C87   H130  S    
C77   H106  S    
C78   H109  S    
C30   C32   A    
C93   C94   S    
C8    O42   A    
C108  C187  S    
C95   C96   S    
C82   H117  S    
C52   C183  S    
C140  C148  A    
C118  H53   S    
C103  H34   S    
C139  C147  A    
C59   C64   A    
C60   C63   A    
C17   C26   A    
C116  C162  S    
C76   H104  S    
C9    O32   A    
C169  O50   S    
C82   O50   S    
C57   H13   S    
C1    O18   A    
C159  C168  A    
C5    O39   A    
C144  C153  A    
C74   H98   S    
O34   Zn7   S    
C84   H123  S    
C10   O40   A    
C127  O34   A    
C31   C33   A    
C105  O19   A    
C22   H100  S    
C88   H132  S    
C136  C145  A    
C125  H47   S    
C91   H7    S    
C15   C23   A    
C12   C32   A    
C98   O55   S    
C47   C182  A    
C79   H35   S    
C81   H114  S    
O13   Zn7   S    
O37   Zn4   S    
C20   C29   A    
C109  C188  S    
C157  H75   S    
C158  H76   S    
C158  C167  A    
C154  C163  A    
C110  C131  A    
C172  O52   S    
C76   C77   S    
C127  O21   A    
O22   Zn5   S    
C183  O6    A    
C12   C21   A    
C54   C185  S    
C49   C58   A    
C111  C120  A    
C123  H59   S    
C93   H10   S    
C53   C181  S    
C53   C62   A    
C73   H95   S    
C121  H57   S    
C99   C100  S    
C69   H85   S    
C96   C97   S    
C56   C63   A    
C17   C37   A    
C72   O47   S    
C107  C115  A    
C108  C129  A    
C133  C186  A    
C115  H51   S    
C135  C144  A    
C45   C54   A    
C140  C192  A    
C90   H39   S    
C44   C68   A    
C135  C188  A    
O15   Zn9   S    
C65   H77   S    
C47   C55   A    
C24   C49   A    
C48   C56   A    
C173  O53   S    
C18   C27   A    
C25   H78   S    
O29   Zn4   S    
C80   C81   S    
O25   Zn7   S    
C19   C34   A    
C157  C166  A    
C13   C48   A    
C184  O16   A    
C180  O4    A    
C155  C164  A    
C43   C182  A    
C26   C28   A    
O35   Zn12  S    
C15   C90   A    
C12   C106  A    
C86   H127  S    
C138  O45   A    
C58   C177  S    
C10   C143  S    
C65   H79   S    
C11   C142  S    
C66   H80   S    
C183  O15   A    
C91   H5    S    
C65   C66   S    
C138  C164  S    
C118  C126  A    
C4    O38   A    
C1    O1    A    
C92   H9    S    
C167  C176  A    
