data_mof_unit_23806.cif
_audit_creation_date              2012-10-26T17:10:25-0400
_audit_creation_method            fapswitch 2.2
_symmetry_space_group_name_H-M    P1
_symmetry_Int_Tables_number       1
_space_group_crystal_system       triclinic
_cell_length_a                    16.869353
_cell_length_b                    16.888655
_cell_length_c                    16.873995
_cell_angle_alpha                 67.543126
_cell_angle_beta                  67.53911
_cell_angle_gamma                 67.52382
_cell_volume                      3945.45783117

loop_
_atom_site_label
_atom_site_type_symbol
_atom_type_description
_atom_site_fract_x
_atom_site_fract_y
_atom_site_fract_z
_atom_type_partial_charge
C1    C     C_R   0.597584 0.019098 0.597615 -0.018981
C2    C     C_R   0.170724 0.434187 0.974395 0.569183
C3    C     C_R   0.565936 0.025743 0.829223 0.553666
C4    C     C_R   0.434063 0.974256 0.170777 0.553660
C5    C     C_R   0.434049 0.170749 0.974257 0.553611
C6    C     C_R   0.565952 0.829251 0.025741 0.553614
C7    C     C_R   0.974452 0.434177 0.170707 0.569219
C8    C     C_R   0.025547 0.565824 0.829293 0.569232
C9    C     C_R   0.170730 0.974294 0.434226 0.568060
C10   C     C_R   0.829271 0.025696 0.565777 0.568096
C11   C     C_R   0.547559 0.008634 0.548052 0.037041
C12   C     C_R   0.402437 0.980822 0.402411 -0.018971
C13   C     C_R   0.452462 0.991275 0.451980 0.037038
C14   C     C_R   0.008927 0.547816 0.547612 0.037573
C15   C     C_R   0.991057 0.452189 0.452393 0.037572
C16   C     C_R   0.547517 0.547816 0.009075 0.036677
C17   C     C_R   0.452481 0.452182 0.990932 0.036677
C18   C     C_R   0.589170 0.950583 0.493329 -0.113522
C19   C     C_R   0.410851 0.049326 0.506703 -0.113524
C20   C     C_R   0.057483 0.457886 0.554645 -0.113320
C21   C     C_R   0.942501 0.542119 0.445360 -0.113320
C22   C     C_R   0.492306 0.589421 0.951468 -0.112374
C23   C     C_R   0.019141 0.597800 0.597398 -0.019940
C24   C     C_R   0.507692 0.410577 0.048539 -0.112373
C25   C     C_R   0.542167 0.942085 0.445783 -0.115143
C26   C     C_R   0.457854 0.057824 0.554249 -0.115142
C27   C     C_R   0.445317 0.542152 0.942555 -0.113594
C28   C     C_R   0.554681 0.457846 0.057452 -0.113593
C29   C     C_R   0.048707 0.410621 0.507563 -0.112460
C30   C     C_R   0.951277 0.589384 0.492441 -0.112459
C31   C     C_R   0.557789 0.022975 0.686187 -0.153665
C32   C     C_R   0.442226 0.976965 0.313833 -0.153662
C33   C     C_R   0.022697 0.686432 0.557830 -0.149540
C34   C     C_R   0.980846 0.402204 0.402606 -0.019937
C35   C     C_R   0.977294 0.313572 0.442172 -0.149532
C36   C     C_R   0.686040 0.557884 0.022475 -0.154950
C37   C     C_R   0.313959 0.442113 0.977531 -0.154949
C38   C     C_R   0.313709 0.977637 0.442271 -0.156844
C39   C     C_R   0.686309 0.022289 0.557753 -0.156847
C40   C     C_R   0.442334 0.313595 0.977012 -0.151408
C41   C     C_R   0.557666 0.686404 0.022990 -0.151402
C42   C     C_R   0.977666 0.442103 0.313894 -0.155434
C43   C     C_R   0.022322 0.557902 0.686109 -0.155434
C44   C     C_R   0.603611 0.036054 0.732570 -0.006906
C45   C     C_R   0.597272 0.597779 0.019371 -0.019351
C46   C     C_R   0.396392 0.963924 0.267435 -0.006947
C47   C     C_R   0.035642 0.732727 0.603796 -0.003834
C48   C     C_R   0.964356 0.267273 0.396203 -0.003842
C49   C     C_R   0.732650 0.603248 0.035622 0.011284
C50   C     C_R   0.267351 0.396752 0.964379 0.011286
C51   C     C_R   0.267269 0.964451 0.396764 0.008992
C52   C     C_R   0.732736 0.035515 0.603246 0.009014
C53   C     C_R   0.396321 0.267310 0.964108 -0.006529
C54   C     C_R   0.603681 0.732691 0.035889 -0.006540
C55   C     C_R   0.964547 0.396718 0.267287 0.010940
C56   C     C_R   0.402727 0.402219 0.980635 -0.019352
C57   C     C_R   0.035448 0.603283 0.732714 0.010945
C58   C     C_R   0.688108 0.051705 0.687091 0.118471
C59   C     C_R   0.311886 0.948287 0.312906 0.118430
C60   C     C_R   0.051363 0.687197 0.688262 0.117739
C61   C     C_R   0.948639 0.312801 0.311736 0.117728
C62   C     C_R   0.688152 0.687129 0.051639 0.118238
C63   C     C_R   0.311851 0.312873 0.948356 0.118251
C64   C     C_3   0.686595 0.177862 0.724672 -0.287028
C65   C     C_3   0.313276 0.822245 0.275223 -0.286760
C66   C     C_3   0.177418 0.724618 0.687490 -0.286086
C67   C     C_R   0.025636 0.829263 0.565991 0.554534
C68   C     C_3   0.822603 0.275374 0.312478 -0.286008
C69   C     C_3   0.687015 0.724727 0.177715 -0.288929
C70   C     C_3   0.313001 0.275282 0.822265 -0.289020
C71   C     C_R   0.974364 0.170736 0.434008 0.554553
C72   C     C_R   0.829276 0.565812 0.025605 0.569172
Cu1   Cu    Cu3+1 0.995180 0.995180 0.424630 0.904108
Cu2   Cu    Cu3+1 0.004820 0.004820 0.575370 0.904116
Cu3   Cu    Cu3+1 0.995180 0.424630 0.995180 0.927093
Cu4   Cu    Cu3+1 0.004820 0.575370 0.004820 0.927098
Cu5   Cu    Cu3+1 0.424630 0.995180 0.995180 0.885057
Cu6   Cu    Cu3+1 0.575370 0.004820 0.004820 0.885053
H1    H     H_    0.424427 0.104068 0.594804 0.098859
H2    H     H_    0.486496 0.658176 0.912149 0.105038
H3    H     H_    0.896571 0.575585 0.404418 0.101159
H4    H     H_    0.103413 0.424420 0.595586 0.101161
H5    H     H_    0.491739 0.013394 0.719572 0.133002
H6    H     H_    0.508280 0.986538 0.280453 0.132999
H7    H     H_    0.015540 0.719326 0.490892 0.132860
H8    H     H_    0.984448 0.280678 0.509111 0.132860
H9    H     H_    0.719380 0.492066 0.012441 0.134043
H10   H     H_    0.280618 0.507930 0.987568 0.134043
H11   H     H_    0.280845 0.985164 0.509086 0.129515
H12   H     H_    0.575594 0.895843 0.405225 0.098857
H13   H     H_    0.719179 0.014744 0.490945 0.129519
H14   H     H_    0.509312 0.280684 0.984131 0.131662
H15   H     H_    0.490687 0.719314 0.015872 0.131661
H16   H     H_    0.987607 0.507945 0.280599 0.134026
H17   H     H_    0.012377 0.492061 0.719405 0.134027
H18   H     H_    0.751983 0.042942 0.776548 0.278373
H19   H     H_    0.619025 0.185660 0.772581 0.148918
H20   H     H_    0.681311 0.221223 0.657079 0.141264
H21   H     H_    0.728043 0.199701 0.745495 0.137585
H22   H     H_    0.247965 0.957222 0.223414 0.278375
H23   H     H_    0.911827 0.658109 0.486726 0.101765
H24   H     H_    0.381026 0.814322 0.227630 0.148796
H25   H     H_    0.271986 0.800614 0.253981 0.137494
H26   H     H_    0.318161 0.778797 0.342903 0.141298
H27   H     H_    0.042143 0.776771 0.752162 0.278159
H28   H     H_    0.198928 0.745602 0.729062 0.133819
H29   H     H_    0.185639 0.772230 0.619819 0.151953
H30   H     H_    0.220825 0.656960 0.682623 0.142412
H31   H     H_    0.957888 0.223212 0.247839 0.278158
H32   H     H_    0.801141 0.254273 0.270951 0.133795
H33   H     H_    0.779181 0.343067 0.317227 0.142417
H34   H     H_    0.088158 0.341896 0.513278 0.101767
H35   H     H_    0.814347 0.227849 0.380204 0.151934
H36   H     H_    0.752062 0.776590 0.042588 0.278208
H37   H     H_    0.619254 0.772297 0.185728 0.147999
H38   H     H_    0.728390 0.745921 0.199296 0.132173
H39   H     H_    0.682185 0.657084 0.221193 0.142003
H40   H     H_    0.247931 0.223426 0.957388 0.278201
H41   H     H_    0.380700 0.227620 0.814283 0.148053
H42   H     H_    0.317958 0.342883 0.778802 0.141991
H43   H     H_    0.271570 0.254221 0.800637 0.132201
H44   H     H_    0.595662 0.424347 0.103342 0.102512
H45   H     H_    0.404336 0.575651 0.896665 0.102514
H46   H     H_    0.342265 0.089227 0.511778 0.102107
H47   H     H_    0.657756 0.910684 0.488253 0.102100
H48   H     H_    0.513502 0.341821 0.087858 0.105039
N1    N     N_2   0.728266 0.085905 0.722821 -0.486059
N2    N     N_2   0.271682 0.914193 0.277117 -0.486034
N3    N     N_2   0.085267 0.723016 0.728611 -0.485703
N4    N     N_2   0.914755 0.276972 0.271377 -0.485699
N5    N     N_2   0.728445 0.722886 0.085669 -0.484857
N6    N     N_2   0.271564 0.277123 0.914310 -0.484862
O1    O     O_R   0.124540 0.978640 0.385460 -0.476299
O2    O     O_R   0.124540 0.385460 0.978640 -0.481600
O3    O     O_R   0.021360 0.875460 0.614540 -0.513284
O4    O     O_R   0.978640 0.124540 0.385460 -0.513277
O5    O     O_R   0.013780 0.867370 0.487190 -0.516016
O6    O     O_R   0.986220 0.132630 0.512810 -0.516002
O7    O     O_R   0.867370 0.487190 0.013780 -0.525435
O8    O     O_R   0.132630 0.512810 0.986220 -0.525430
O9    O     O_R   0.487190 0.013780 0.867370 -0.519232
O10   O     O_R   0.512810 0.986220 0.132630 -0.519218
O11   O     O_R   0.512810 0.132630 0.986220 -0.518883
O12   O     O_R   0.875460 0.021360 0.614540 -0.476303
O13   O     O_R   0.487190 0.867370 0.013780 -0.518860
O14   O     O_R   0.986220 0.512810 0.132630 -0.525464
O15   O     O_R   0.013780 0.487190 0.867370 -0.525461
O16   O     O_R   0.132630 0.986220 0.512810 -0.530057
O17   O     O_R   0.867370 0.013780 0.487190 -0.530053
O18   O     O_R   0.978640 0.385460 0.124540 -0.481436
O19   O     O_R   0.021360 0.614540 0.875460 -0.481442
O20   O     O_R   0.385460 0.124540 0.978640 -0.508591
O21   O     O_R   0.614540 0.875460 0.021360 -0.508588
O22   O     O_R   0.614540 0.021360 0.875460 -0.508278
O23   O     O_R   0.385460 0.978640 0.124540 -0.508231
O24   O     O_R   0.875460 0.614540 0.021360 -0.481590

loop_
_geom_bond_atom_site_label_1
_geom_bond_atom_site_label_2
_ccdc_geom_bond_type
C16   C28   A    
C11   C18   A    
C72   O24   A    
C20   H4    S    
C46   C59   A    
Cu1   Cu2   S    
C37   H10   S    
C3    O9    A    
C7    C55   S    
C66   H29   S    
C10   C52   S    
Cu3   O2    S    
C23   C43   A    
C69   H38   S    
C4    C46   S    
Cu5   Cu6   S    
Cu2   O6    S    
C38   H11   S    
C25   H12   S    
C2    O2    A    
C5    O20   A    
Cu2   O16   S    
C14   C30   A    
Cu6   O10   S    
C18   H47   S    
C4    O10   A    
C8    C57   S    
C35   H8    S    
C28   H44   S    
C10   O12   A    
C5    O11   A    
Cu3   O18   S    
C1    C31   A    
C31   H5    S    
C34   C35   A    
H36   N5    S    
C39   H13   S    
C19   C26   A    
C33   H7    S    
C2    C50   S    
C47   C60   A    
C37   C56   A    
C72   O7    A    
C41   H15   S    
C70   H42   S    
C23   C33   A    
C49   C72   S    
C34   C42   A    
C43   H17   S    
C15   C34   S    
C68   H35   S    
C66   N3    S    
C64   H20   S    
C39   C52   A    
Cu4   O14   S    
C58   N1    S    
C42   H16   S    
C12   C32   A    
C24   H48   S    
C50   C63   A    
C13   C25   A    
C18   C25   A    
C65   H24   S    
C6    C54   S    
C35   C48   A    
Cu5   O20   S    
C47   C67   S    
C15   C29   A    
C71   O6    A    
C20   C29   A    
Cu4   O8    S    
C36   H9    S    
C32   H6    S    
C19   H46   S    
C17   C24   A    
C31   C44   A    
C13   C19   A    
C17   C27   A    
C65   N2    S    
C14   C20   A    
C36   C45   A    
C8    O19   A    
C44   C58   A    
C71   O4    A    
C6    O13   A    
C27   H45   S    
Cu6   O22   S    
C57   C60   A    
H27   N3    S    
C38   C51   A    
C54   C62   A    
C11   C26   A    
C40   C56   A    
C59   N2    S    
Cu4   O24   S    
C3    O22   A    
H18   N1    S    
C29   H34   S    
C68   H33   S    
C14   C23   S    
C16   C45   S    
C67   O3    A    
Cu3   Cu4   S    
C42   C55   A    
C7    O18   A    
C1    C39   A    
Cu1   O4    S    
C70   H41   S    
C69   N5    S    
C64   N1    S    
Cu2   O3    S    
C70   N6    S    
C64   H21   S    
C68   H32   S    
C63   N6    S    
C40   H14   S    
C68   N4    S    
C17   C56   S    
C52   C58   A    
C61   N4    S    
C64   H19   S    
C21   H3    S    
C3    C44   S    
C33   C47   A    
C8    O15   A    
C51   C59   A    
C65   H25   S    
C48   C71   S    
Cu5   O13   S    
C5    C53   S    
Cu2   O12   S    
C69   H37   S    
C16   C22   A    
C49   C62   A    
Cu1   O17   S    
H22   N2    S    
C32   C46   A    
C62   N5    S    
C24   C28   A    
C66   H30   S    
C60   N3    S    
Cu6   O21   S    
C21   C30   A    
C9    O16   A    
C26   H1    S    
Cu4   O19   S    
C22   C27   A    
Cu3   O15   S    
C9    C51   S    
C7    O14   A    
C2    O8    A    
C10   O17   A    
Cu3   O7    S    
Cu6   O11   S    
Cu5   O23   S    
C37   C50   A    
C53   C63   A    
C70   H43   S    
C48   C61   A    
C66   H28   S    
Cu1   O5    S    
C55   C61   A    
C30   H23   S    
C69   H39   S    
C12   C38   A    
C67   O5    A    
Cu5   O9    S    
C41   C54   A    
C6    O21   A    
H40   N6    S    
C43   C57   A    
C22   H2    S    
C15   C21   A    
C4    O23   A    
C12   C13   S    
C40   C53   A    
Cu1   O1    S    
H31   N4    S    
C41   C45   A    
C1    C11   S    
C65   H26   S    
C36   C49   A    
C9    O1    A    
