data_mof_unit_5351.cif
_audit_creation_date              2012-12-10T17:45:32-0500
_audit_creation_method            fapswitch 2.2
_symmetry_space_group_name_H-M    P1
_symmetry_Int_Tables_number       1
_space_group_crystal_system       triclinic
_cell_length_a                    11.529502
_cell_length_b                    10.640442
_cell_length_c                    9.945832
_cell_angle_alpha                 91.687343
_cell_angle_beta                  89.548486
_cell_angle_gamma                 90.60325
_cell_volume                      1219.51305005

loop_
_atom_site_label
_atom_site_type_symbol
_atom_type_description
_atom_site_fract_x
_atom_site_fract_y
_atom_site_fract_z
_atom_type_partial_charge
C1    C     C_R   0.502681 0.260582 0.497939 0.849831
C2    C     C_R   0.173767 0.082215 0.459972 -0.166355
C3    C     C_R   0.162146 0.959171 0.499875 -0.101515
C4    C     C_R   0.259577 0.890623 0.538059 0.138073
C5    C     C_R   0.373615 0.940628 0.512934 0.038516
C6    C     C_R   0.382690 0.070095 0.488002 0.080540
C7    C     C_R   0.492689 0.128147 0.493142 -0.065913
C8    C     C_R   0.594009 0.060748 0.504938 -0.210593
C9    C     C_R   0.587657 0.932431 0.509249 -0.164694
C10   C     C_R   0.479697 0.872156 0.511956 -0.096074
C11   C     C_R   0.348563 0.338224 0.136094 -0.154543
C12   C     C_R   0.282211 0.494849 0.500119 0.847533
C13   C     C_R   0.269745 0.262488 0.065354 -0.235673
C14   C     C_R   0.266831 0.264860 0.926132 0.017387
C15   C     C_R   0.344862 0.341138 0.857413 -0.182999
C16   C     C_R   0.424307 0.421150 0.926211 0.149430
C17   C     C_R   0.425100 0.420541 0.070422 0.142839
C18   C     C_R   0.572180 0.576008 0.072619 0.014350
C19   C     C_R   0.572068 0.575563 0.929697 -0.144355
C20   C     C_R   0.485757 0.738542 0.502713 0.854275
C21   C     C_R   0.717929 0.499074 0.499523 0.910623
C22   C     C_1   0.161665 0.486320 0.499974 -0.198949
C23   C     C_1   0.059346 0.483881 0.499281 -0.002492
C24   C     C_1   0.940576 0.487045 0.498552 0.003251
C25   C     C_1   0.838414 0.492584 0.498510 -0.186569
C26   C     C_R   0.282133 0.139538 0.461421 -0.205595
H1    H     H_    0.677997 0.107567 0.508142 0.140656
H2    H     H_    0.340216 0.335476 0.750743 0.208550
H3    H     H_    0.630700 0.637195 0.876467 0.152659
H4    H     H_    0.286440 0.238097 0.439740 0.124303
H5    H     H_    0.097652 0.135894 0.436538 0.150475
H6    H     H_    0.075471 0.920378 0.511479 0.140180
H7    H     H_    0.667550 0.879491 0.511088 0.145961
H8    H     H_    0.346760 0.330173 0.242048 0.205817
H9    H     H_    0.210564 0.202253 0.119840 0.158752
N1    N     N_R   0.498930 0.498800 0.142780 -0.139125
N2    N     N_R   0.498900 0.498720 0.857170 -0.118058
O1    O     O_R   0.500000 0.316780 0.614690 -0.625746
O2    O     O_R   0.499990 0.316750 0.385360 -0.638836
O3    O     O_R   0.334450 0.500030 0.614670 -0.641198
O4    O     O_R   0.334440 0.500000 0.385330 -0.628990
O5    O     O_R   0.500010 0.683250 0.614640 -0.624816
O6    O     O_R   0.500000 0.683220 0.385310 -0.594550
O7    O     O_R   0.665560 0.500000 0.614670 -0.605202
O8    O     O_R   0.665550 0.499970 0.385330 -0.601806
Zn1   Zn    Zn3+2 0.500010 0.500020 0.653130 0.936473
Zn2   Zn    Zn3+2 0.499990 0.499980 0.346870 0.951258
C27   C     C_1   0.181675 0.190840 0.853053 0.165703
N3    N     N_1   0.112714 0.132246 0.794272 -0.211457
C28   C     C_3   0.233286 0.782453 0.628722 -0.458345
C29   C     C_3   0.184123 0.827892 0.764610 -0.802488
H10   H     H_    0.244825 0.896389 0.813871 0.269060
H11   H     H_    0.098275 0.872183 0.752335 0.263142
H12   H     H_    0.172441 0.746541 0.831046 0.249960
H13   H     H_    0.168504 0.719794 0.579268 0.208163
H14   H     H_    0.309313 0.728129 0.652065 0.252659
C30   C     C_1   0.651113 0.659261 0.143557 0.250401
N4    N     N_1   0.714801 0.726499 0.200164 -0.213885

loop_
_geom_bond_atom_site_label_1
_geom_bond_atom_site_label_2
_ccdc_geom_bond_type
C12   O3    A    
C20   O5    A    
C23   C24   S    
C13   H9    S    
C6    C7    A    
C17   N1    A    
C21   O7    A    
C9    C10   A    
C18   C30   S    
C28   H13   S    
C11   H8    S    
C16   N2    A    
C29   H12   S    
C2    C3    A    
O4    Zn2   S    
C7    C8    A    
C2    C26   A    
C6    C26   A    
C13   C14   A    
C9    H7    S    
C11   C13   A    
C30   N4    T    
C12   O4    A    
O6    Zn2   S    
C1    O1    A    
C14   C27   S    
C5    C6    A    
C5    C10   A    
C27   N3    T    
O7    Zn1   S    
C26   H4    S    
C21   O8    A    
O8    Zn2   S    
C3    H6    S    
C28   H14   S    
O1    Zn1   S    
C16   C17   A    
O3    Zn1   S    
C15   H2    S    
C15   C16   A    
C19   H3    S    
C12   C22   S    
C4    C5    A    
C20   O6    A    
C24   C25   T    
N1    Zn2   S    
O2    Zn2   S    
C18   C19   A    
O5    Zn1   S    
C10   C20   S    
C8    H1    S    
C1    O2    A    
C14   C15   A    
C8    C9    A    
C21   C25   S    
C19   N2    A    
C28   C29   S    
N2    Zn1   S    
C1    C7    S    
C18   N1    A    
C22   C23   T    
C11   C17   A    
C3    C4    A    
C29   H10   S    
C4    C28   S    
C2    H5    S    
C29   H11   S    
