data_mof_unit_12014.cif
_audit_creation_date              2012-12-11T14:06:47-0500
_audit_creation_method            fapswitch 2.2
_symmetry_space_group_name_H-M    P1
_symmetry_Int_Tables_number       1
_space_group_crystal_system       triclinic
_cell_length_a                    6.97847
_cell_length_b                    17.307851
_cell_length_c                    23.941173
_cell_angle_alpha                 104.23354
_cell_angle_beta                  89.914639
_cell_angle_gamma                 89.983676
_cell_volume                      2802.89695251

loop_
_atom_site_label
_atom_site_type_symbol
_atom_type_description
_atom_site_fract_x
_atom_site_fract_y
_atom_site_fract_z
_atom_type_partial_charge
O1    O     O_R   0.494290 0.391990 0.999150 -0.528029
O2    O     O_R   0.827170 0.534410 0.082350 -0.558599
O3    O     O_R   0.994360 0.608010 0.000850 -0.536028
C1    C     C_R   0.657557 0.545543 0.106167 0.744188
O4    O     O_R   0.824210 0.388010 0.004470 -0.550425
O5    O     O_R   0.991370 0.460560 0.922410 -0.539067
C2    C     C_R   0.654453 0.355080 0.001682 0.778920
O6    O     O_R   0.497270 0.539440 0.077590 -0.519853
O7    O     O_3   0.659770 0.523970 0.973170 -0.375205
V1    V     V_3+5 0.935840 0.495550 0.004980 1.393011
O8    O     O_R   0.320910 0.465590 0.917650 -0.542505
C3    C     C_R   0.151150 0.454191 0.893514 0.701717
O9    O     O_R   0.323870 0.611990 0.995530 -0.546902
C4    C     C_R   0.154339 0.645005 0.998515 0.765807
V2    V     V_3+5 0.435470 0.504450 0.995020 1.432507
O10   O     O_3   0.161670 0.476030 0.026830 -0.370020
C5    C     C_2   0.142301 0.730265 0.998131 -0.340319
H1    H     H_    0.275713 0.761181 0.994810 0.149846
C6    C     C_2   0.973254 0.769790 0.002020 -0.342472
H2    H     H_    0.839843 0.738876 0.005343 0.150559
C7    C     C_R   0.999615 0.299650 0.624524 0.574355
N1    N     N_R   0.066797 0.375574 0.645363 -0.577892
C8    C     C_R   0.103550 0.423971 0.608921 0.612231
C9    C     C_R   0.077399 0.395570 0.548255 -0.113728
C10   C     C_R   0.016380 0.315874 0.526443 -0.139327
C11   C     C_R   0.975360 0.267645 0.564761 -0.107483
C12   C     C_R   0.105159 0.444260 0.508844 0.446505
C13   C     C_R   0.104185 0.408739 0.448927 -0.247677
C14   C     C_R   0.047855 0.329325 0.427161 -0.063819
C15   C     C_R   0.997089 0.283806 0.466054 -0.021330
C16   C     C_R   0.929721 0.205517 0.444473 -0.072689
C17   C     C_R   0.881311 0.159768 0.482964 -0.236358
C18   C     C_R   0.913199 0.188258 0.542038 0.427905
C19   C     C_R   0.038925 0.294226 0.367205 0.621741
N2    N     N_R   0.976731 0.217175 0.347151 -0.546824
C20   C     C_R   0.919436 0.173296 0.384575 0.591774
O11   O     O_2   0.955287 0.255402 0.661941 -0.499686
O12   O     O_2   0.163257 0.499208 0.631377 -0.445427
H3    H     H_    0.142906 0.444375 0.419295 0.175676
O13   O     O_2   0.091516 0.336742 0.329470 -0.528163
O14   O     O_2   0.856491 0.097939 0.363889 -0.532119
H4    H     H_    0.829086 0.099503 0.467258 0.179456
C21   C     C_R   0.145347 0.147245 0.258481 -0.192280
H5    H     H_    0.278520 0.154751 0.282387 0.130878
C22   C     C_R   0.143414 0.103155 0.200530 0.423290
C23   C     C_R   0.970017 0.093902 0.168712 -0.164689
C24   C     C_R   0.801724 0.128009 0.197032 -0.282359
H6    H     H_    0.667397 0.123380 0.174018 0.204903
C25   C     C_R   0.804475 0.169752 0.255078 -0.089364
H7    H     H_    0.672418 0.194113 0.276012 0.142237
C26   C     C_R   0.976308 0.179925 0.286129 0.320596
C27   C     C_R   0.275131 0.408583 0.732303 -0.074502
H8    H     H_    0.401079 0.397285 0.705031 0.114233
C28   C     C_R   0.296271 0.424654 0.792644 -0.191223
H9    H     H_    0.439028 0.427124 0.810640 0.126433
C29   C     C_R   0.134281 0.435994 0.829087 -0.063567
C30   C     C_R   0.951635 0.433058 0.803355 -0.182156
H10   H     H_    0.822992 0.442328 0.829499 0.132119
C31   C     C_R   0.931075 0.417531 0.743459 -0.083403
H11   H     H_    0.788725 0.413534 0.725005 0.109914
C32   C     C_R   0.091970 0.404215 0.707194 0.368492
C33   C     C_R   0.579362 0.840039 0.618815 0.586529
N3    N     N_R   0.536892 0.790182 0.653494 -0.542264
C34   C     C_R   0.530328 0.709215 0.631638 0.680605
C35   C     C_R   0.558848 0.675430 0.571846 -0.159023
C36   C     C_R   0.587867 0.727274 0.535182 -0.104989
C37   C     C_R   0.599832 0.810003 0.558907 -0.047930
C38   C     C_R   0.552863 0.592048 0.547350 0.522108
C39   C     C_R   0.568872 0.562375 0.487125 -0.288956
C40   C     C_R   0.592419 0.613952 0.450378 -0.094412
C41   C     C_R   0.598323 0.696754 0.474492 -0.060509
C42   C     C_R   0.612381 0.749202 0.437885 -0.115793
C43   C     C_R   0.643476 0.831487 0.462580 0.423021
C44   C     C_R   0.631471 0.861002 0.522368 -0.247810
C45   C     C_R   0.603733 0.584813 0.389794 0.585526
N4    N     N_R   0.608078 0.636706 0.354594 -0.541244
C46   C     C_R   0.599272 0.717390 0.377753 0.550571
O15   O     O_2   0.602336 0.918633 0.642377 -0.556486
O16   O     O_2   0.495863 0.661975 0.667685 -0.465701
H12   H     H_    0.555111 0.498832 0.468979 0.183852
O17   O     O_2   0.611629 0.505556 0.366622 -0.525982
O18   O     O_2   0.575344 0.766691 0.342544 -0.520307
H13   H     H_    0.645518 0.924602 0.539927 0.175894
C47   C     C_R   0.774794 0.637080 0.263223 -0.106781
H14   H     H_    0.881621 0.677116 0.287288 0.129504
C48   C     C_R   0.783610 0.616546 0.203011 -0.309582
H15   H     H_    0.897352 0.641158 0.181846 0.141699
C49   C     C_R   0.645858 0.565994 0.170281 -0.133039
C50   C     C_R   0.498994 0.534497 0.199137 0.380390
C51   C     C_R   0.493091 0.555131 0.260207 -0.186951
H16   H     H_    0.382618 0.530894 0.282693 0.143173
C52   C     C_R   0.627287 0.607989 0.292510 0.319906
C53   C     C_R   0.661454 0.826736 0.752228 -0.199999
H17   H     H_    0.795912 0.798533 0.736227 0.174258
C54   C     C_R   0.645524 0.867499 0.810071 -0.208396
H18   H     H_    0.769418 0.869275 0.837549 0.145479
C55   C     C_R   0.472439 0.904555 0.832271 -0.096000
C56   C     C_R   0.314326 0.897823 0.795286 -0.302198
H19   H     H_    0.178997 0.922417 0.813245 0.134063
C57   C     C_R   0.331229 0.859474 0.735715 0.518670
C58   C     C_R   0.507733 0.824012 0.714462 0.316557
C59   C     C_2   0.642240 0.269865 0.002261 -0.338350
H20   H     H_    0.775602 0.238920 0.005605 0.147090
C60   C     C_2   0.473125 0.230377 0.998394 -0.340132
H21   H     H_    0.339745 0.261374 0.995169 0.151186
O19   O     O_R   0.618210 0.960470 0.922400 -0.543188
O20   O     O_R   0.291310 0.111960 0.995450 -0.546009
O21   O     O_R   0.124210 0.039530 0.077580 -0.505011
C61   C     C_R   0.460998 0.145014 0.998580 0.780185
O22   O     O_R   0.288310 0.965490 0.917650 -0.544451
O23   O     O_R   0.121180 0.892010 0.999220 -0.536690
C62   C     C_R   0.457534 0.946036 0.894521 0.720606
O24   O     O_R   0.621230 0.107990 0.000760 -0.535044
O25   O     O_3   0.455770 0.976060 0.026840 -0.362511
V3    V     V_3+5 0.179680 0.004440 0.995020 1.434580
O26   O     O_R   0.791670 0.888040 0.004570 -0.549318
C63   C     C_R   0.961207 0.855037 0.001609 0.760360
O27   O     O_R   0.794680 0.034510 0.082370 -0.544048
C64   C     C_R   0.962955 0.053000 0.105874 0.735539
V4    V     V_3+5 0.680070 0.995560 0.005010 1.420768
O28   O     O_3   0.953840 0.023940 0.973160 -0.378437
O29   O     O_3   0.506027 0.540467 0.581167 -0.479498
C65   C     C_3   0.664273 0.491613 0.584697 -0.123628
H22   H     H_    0.630849 0.456178 0.616304 0.157912
H23   H     H_    0.793520 0.527976 0.600514 0.148825
H24   H     H_    0.692611 0.448804 0.542653 0.091568
O30   O     O_3   0.678695 0.885368 0.429465 -0.555184
C66   C     C_3   0.865082 0.873879 0.404992 0.176392
H25   H     H_    0.864941 0.899503 0.366752 0.181032
H26   H     H_    0.906167 0.810095 0.389061 0.103178
C67   C     C_3   0.016725 0.916770 0.447390 -0.439413
H27   H     H_    0.969194 0.978659 0.466315 0.220600
H28   H     H_    0.034292 0.885680 0.482507 0.199537
C68   C     C_3   0.209276 0.918403 0.417425 -0.708946
H29   H     H_    0.262278 0.856708 0.399795 0.255138
H30   H     H_    0.315520 0.951560 0.448669 0.246144
H31   H     H_    0.195352 0.948876 0.381856 0.239593
O31   O     O_3   0.377282 0.476862 0.167103 -0.558362
C69   C     C_3   0.182039 0.493769 0.181517 0.086430
H32   H     H_    0.105283 0.497541 0.141821 0.168546
H33   H     H_    0.156359 0.552055 0.212992 0.062394
C70   C     C_3   0.092699 0.426917 0.204595 -0.289580
H34   H     H_    0.175136 0.419120 0.242461 0.231952
H35   H     H_    0.943657 0.443965 0.218946 0.176299
C71   C     C_3   0.087749 0.347858 0.158905 -0.655113
H36   H     H_    0.002338 0.354020 0.121120 0.200177
H37   H     H_    0.020449 0.301418 0.177291 0.216474
H38   H     H_    0.235225 0.328254 0.144616 0.245728
O32   O     O_3   0.176900 0.849884 0.697948 -0.555608
C72   C     C_3   0.060707 0.918707 0.708300 -0.272582
H39   H     H_    0.147399 0.974009 0.713407 0.153637
H40   H     H_    0.966864 0.923159 0.746267 0.148826
H41   H     H_    0.964648 0.913615 0.670846 0.206397
O33   O     O_3   0.143047 0.525198 0.529352 -0.524691
C73   C     C_3   0.026428 0.573563 0.502914 0.071086
H42   H     H_    0.942980 0.614376 0.537330 0.149451
H43   H     H_    0.924963 0.539748 0.470395 0.116472
C74   C     C_3   0.153505 0.623567 0.473965 -0.287122
H44   H     H_    0.249954 0.657552 0.507228 0.229645
H45   H     H_    0.231543 0.582874 0.438302 0.202479
C75   C     C_3   0.050799 0.684614 0.449161 -0.855309
H46   H     H_    0.954531 0.654388 0.413955 0.237804
H47   H     H_    0.158054 0.718654 0.430565 0.231854
H48   H     H_    0.973272 0.727517 0.483799 0.243251
O34   O     O_3   0.896770 0.135035 0.576203 -0.541776
C76   C     C_3   0.076933 0.097692 0.576364 0.125408
H49   H     H_    0.177770 0.138635 0.605358 0.154689
H50   H     H_    0.142487 0.080061 0.532438 0.095930
C77   C     C_3   0.052133 0.022877 0.598072 -0.317611
H51   H     H_    0.002433 0.039891 0.643526 0.219246
H52   H     H_    0.942191 0.983982 0.571977 0.204063
C78   C     C_3   0.240655 0.977488 0.593745 -0.797773
H53   H     H_    0.301083 0.966877 0.549698 0.230363
H54   H     H_    0.217464 0.918549 0.602970 0.262729
H55   H     H_    0.344601 0.012601 0.624914 0.275659
O35   O     O_3   0.313328 0.072820 0.174414 -0.555267
C79   C     C_3   0.358914 0.002688 0.191534 -0.221106
H56   H     H_    0.241894 0.957782 0.180450 0.122669
H57   H     H_    0.391823 0.015789 0.238380 0.146455
H58   H     H_    0.489246 0.975994 0.167880 0.164155

loop_
_geom_bond_atom_site_label_1
_geom_bond_atom_site_label_2
_ccdc_geom_bond_type
C76   H50   S    
C7    C11   A    
C53   H17   S    
V3    O28   S    
C73   H43   S    
C77   H52   S    
C43   C44   A    
C54   H18   S    
O21   C64   A    
C9    C12   A    
C44   H13   S    
N3    C58   S    
C67   C68   S    
C66   H25   S    
C71   H38   S    
C68   H31   S    
C75   H46   S    
C51   H16   S    
C65   H22   S    
C24   C25   A    
O19   C62   A    
C22   C23   A    
C27   H8    S    
O34   C76   S    
C33   C37   A    
C19   O13   S    
O21   V3    S    
C13   C14   A    
C47   C48   A    
C27   C32   A    
O5    C3    A    
C60   C61   S    
C69   C70   S    
C48   C49   A    
C65   H23   S    
V2    O10   S    
O26   C63   A    
C19   N2    A    
C77   H51   S    
C1    O6    A    
O27   C64   A    
C74   C75   S    
C71   H37   S    
C28   H9    S    
O8    V2    S    
C47   H14   S    
N2    C20   A    
C27   C28   A    
C38   C39   A    
C79   H57   S    
C2    C59   S    
C8    C9    A    
C40   C41   A    
O1    V2    S    
O7    V1    S    
C78   H55   S    
C61   O24   A    
C79   H58   S    
C12   O33   S    
C36   C37   A    
C31   H11   S    
C53   C54   A    
O1    C2    A    
O9    C4    A    
C73   C74   S    
C74   H45   S    
O20   C61   A    
C70   C71   S    
C20   O14   S    
C59   H20   S    
C60   H21   S    
C75   H47   S    
C78   H54   S    
C55   C56   A    
O22   C62   A    
C28   C29   A    
C31   C32   A    
C50   O31   S    
C24   H6    S    
C9    C10   A    
C22   O35   S    
C38   O29   S    
O4    C2    A    
C55   C62   S    
C48   H15   S    
C45   O17   S    
C65   H24   S    
C68   H30   S    
C13   H3    S    
C25   C26   A    
C10   C11   A    
C43   O30   S    
C14   C19   A    
C72   H41   S    
O26   V4    S    
C34   O16   S    
O2    C1    A    
C45   N4    A    
C36   C41   A    
C14   C15   A    
O24   V4    S    
C11   C18   A    
C51   C52   A    
C16   C17   A    
C69   H32   S    
C35   C38   A    
C33   N3    A    
C5    H1    S    
V4    O28   S    
C37   C44   A    
N4    C46   A    
C59   C60   D    
C21   C22   A    
O20   V3    S    
O33   C73   S    
C3    C29   S    
O3    C4    A    
N4    C52   S    
O35   C79   S    
C25   H7    S    
O6    V2    S    
C56   C57   A    
O9    V2    S    
C21   H5    S    
N2    C26   S    
C74   H44   S    
C77   C78   S    
C70   H35   S    
C29   C30   A    
C53   C58   A    
C67   H27   S    
O2    V1    S    
C66   C67   S    
C71   H36   S    
C40   C45   A    
C75   H48   S    
C78   H53   S    
C10   C15   A    
C50   C51   A    
C23   C24   A    
O19   V4    S    
C16   C20   A    
C33   O15   S    
C18   O34   S    
C42   C43   A    
C67   H28   S    
C66   H26   S    
O5    V1    S    
C42   C46   A    
O8    C3    A    
C54   C55   A    
O25   V3    S    
C68   H29   S    
C1    C49   S    
C57   O32   S    
C8    O12   S    
C72   H39   S    
O23   C63   A    
C17   C18   A    
C6    H2    S    
O7    V2    S    
C41   C42   A    
O3    V1    S    
V1    O10   S    
O32   C72   S    
C34   C35   A    
N1    C32   S    
C69   H33   S    
C21   C26   A    
C30   H10   S    
C15   C16   A    
C76   H49   S    
C46   O18   S    
C57   C58   A    
C5    C6    D    
C23   C64   S    
C72   H40   S    
C35   C36   A    
C39   C40   A    
O27   V4    S    
C30   C31   A    
O31   C69   S    
C79   H56   S    
N3    C34   A    
O4    V1    S    
C7    O11   S    
C49   C50   A    
C6    C63   S    
C76   C77   S    
C56   H19   S    
C73   H42   S    
C70   H34   S    
C17   H4    S    
N1    C8    A    
C39   H12   S    
O23   V3    S    
C47   C52   A    
O29   C65   S    
C7    N1    A    
O22   V3    S    
O25   V4    S    
O30   C66   S    
C12   C13   A    
C4    C5    S    
