data_mof_unit_38665.cif
_audit_creation_date              2012-12-11T16:39:24-0500
_audit_creation_method            fapswitch 2.2
_symmetry_space_group_name_H-M    P1
_symmetry_Int_Tables_number       1
_space_group_crystal_system       triclinic
_cell_length_a                    24.178916
_cell_length_b                    7.007861
_cell_length_c                    22.576688
_cell_angle_alpha                 89.854829
_cell_angle_beta                  98.974951
_cell_angle_gamma                 90.903259
_cell_volume                      3778.14413722

loop_
_atom_site_label
_atom_site_type_symbol
_atom_type_description
_atom_site_fract_x
_atom_site_fract_y
_atom_site_fract_z
_atom_type_partial_charge
O1    O     O_R   0.188680 0.380540 0.689820 -0.552384
O2    O     O_R   0.811320 0.619460 0.310180 -0.561160
O3    O     O_R   0.311320 0.880540 0.810180 -0.540743
O4    O     O_R   0.688680 0.119460 0.189820 -0.557026
O5    O     O_R   0.300940 0.707710 0.691860 -0.537868
O6    O     O_R   0.699060 0.292290 0.308140 -0.537030
O7    O     O_R   0.199060 0.207710 0.808140 -0.535672
O8    O     O_R   0.800940 0.792290 0.191860 -0.531341
C1    C     C_R   0.320679 0.542312 0.680491 0.790899
C2    C     C_R   0.680087 0.457778 0.320793 0.753699
C3    C     C_R   0.181253 0.038332 0.822509 0.703017
C4    C     C_R   0.820625 0.960657 0.180232 0.732824
O9    O     O_R   0.188460 0.710090 0.682560 -0.546383
O10   O     O_R   0.811540 0.289910 0.317440 -0.530756
O11   O     O_R   0.311540 0.210090 0.817440 -0.526070
O12   O     O_R   0.688460 0.789910 0.182560 -0.528315
O13   O     O_R   0.198040 0.882940 0.800810 -0.515881
O14   O     O_R   0.801960 0.117060 0.199190 -0.491672
O15   O     O_R   0.301960 0.382940 0.699190 -0.499775
O16   O     O_R   0.698040 0.617060 0.300810 -0.493941
C5    C     C_R   0.168581 0.540353 0.666238 0.630345
C6    C     C_R   0.832722 0.461339 0.332599 0.747729
C7    C     C_R   0.331273 0.040062 0.834683 0.785212
C8    C     C_R   0.667052 0.958741 0.168097 0.748297
O17   O     O_3   0.253280 0.547850 0.788810 -0.371396
O18   O     O_3   0.746720 0.452150 0.211190 -0.354053
O19   O     O_3   0.246720 0.047850 0.711190 -0.363525
O20   O     O_3   0.753280 0.952150 0.288810 -0.368623
V1    V     V_3+5 0.249390 0.821720 0.742800 1.483316
V2    V     V_3+5 0.750610 0.178280 0.257200 1.576301
V3    V     V_3+5 0.250610 0.321720 0.757200 1.508242
V4    V     V_3+5 0.749390 0.678280 0.242800 1.579390
C9    C     C_R   0.462134 0.864254 0.940478 -0.131276
C10   C     C_R   0.534013 0.137560 0.069957 -0.155372
C11   C     C_R   0.026332 0.409137 0.574770 -0.156685
C12   C     C_R   0.961918 0.660890 0.437800 -0.162233
H1    H     H_    0.482448 0.731752 0.955005 0.100896
H2    H     H_    0.501990 0.242463 0.071281 0.103296
H3    H     H_    0.989930 0.321763 0.579585 0.111359
H4    H     H_    0.985430 0.793261 0.446675 0.102405
C13   C     C_R   0.410836 0.857110 0.900780 0.119256
C14   C     C_R   0.574559 0.110670 0.121337 0.086410
C15   C     C_R   0.071932 0.411672 0.621518 0.088338
C16   C     C_R   0.916698 0.652950 0.390392 0.111592
C17   C     C_R   0.381796 0.027480 0.883224 -0.050252
C18   C     C_R   0.617836 0.974928 0.119468 -0.048494
C19   C     C_R   0.119412 0.529475 0.617501 -0.060575
C20   C     C_R   0.883575 0.480551 0.380052 -0.048480
C21   C     C_R   0.401075 0.191576 0.914657 -0.169037
C22   C     C_R   0.616689 0.865562 0.067262 -0.201305
C23   C     C_R   0.119112 0.642401 0.565894 -0.195900
C24   C     C_R   0.899958 0.321855 0.416439 -0.174459
H5    H     H_    0.373852 0.309262 0.909385 0.136241
H6    H     H_    0.649252 0.763207 0.064245 0.121840
H7    H     H_    0.154599 0.734758 0.561508 0.118368
H8    H     H_    0.876256 0.189171 0.410372 0.116401
C25   C     C_R   0.451011 0.198333 0.955897 -0.133418
C26   C     C_R   0.574738 0.889935 0.017669 -0.131166
C27   C     C_R   0.074065 0.632797 0.518523 -0.147930
C28   C     C_R   0.946993 0.330561 0.461160 -0.149855
H9    H     H_    0.463534 0.331789 0.978384 0.100207
H10   H     H_    0.575872 0.802895 0.978355 0.126378
H11   H     H_    0.076648 0.716042 0.478592 0.113602
H12   H     H_    0.958815 0.202271 0.486487 0.105424
C29   C     C_R   0.482983 0.033211 0.968850 0.076735
C30   C     C_R   0.532268 0.024869 0.018463 0.065258
C31   C     C_R   0.027051 0.514605 0.522389 0.069209
C32   C     C_R   0.978213 0.501217 0.472920 0.073660
C33   C     C_R   0.111473 0.181177 0.956515 0.155284
C34   C     C_R   0.915948 0.832513 0.066365 0.098833
C35   C     C_R   0.404551 0.658046 0.554207 0.128603
C36   C     C_R   0.594873 0.306978 0.443058 0.097688
C37   C     C_R   0.146561 0.173763 0.912000 -0.139601
C38   C     C_R   0.873044 0.827153 0.102219 -0.243339
C39   C     C_R   0.364356 0.663600 0.593635 -0.258637
C40   C     C_R   0.634439 0.311428 0.403180 -0.241690
H13   H     H_    0.177510 0.286654 0.910858 0.164645
H14   H     H_    0.845051 0.704386 0.099238 0.186203
H15   H     H_    0.331704 0.768592 0.587524 0.127708
H16   H     H_    0.662726 0.193202 0.403379 0.182922
C41   C     C_R   0.142934 0.023571 0.869608 -0.227783
C42   C     C_R   0.866012 0.977067 0.141804 -0.211467
C43   C     C_R   0.365109 0.532999 0.641255 -0.190566
C44   C     C_R   0.637811 0.464723 0.363087 -0.203166
C45   C     C_R   0.103178 0.871267 0.875510 0.431500
C46   C     C_R   0.903987 0.136456 0.144630 0.437706
C47   C     C_R   0.408572 0.396798 0.650491 0.388733
C48   C     C_R   0.599560 0.616924 0.363820 0.429040
C49   C     C_R   0.066371 0.889016 0.917172 -0.200492
C50   C     C_R   0.944084 0.145524 0.106176 -0.254059
C51   C     C_R   0.446351 0.384199 0.609396 -0.227514
C52   C     C_R   0.562890 0.617226 0.406355 -0.267614
H17   H     H_    0.034176 0.780819 0.919426 0.179849
H18   H     H_    0.971845 0.268611 0.107009 0.160039
H19   H     H_    0.478350 0.276213 0.615403 0.171689
H20   H     H_    0.534710 0.734924 0.407968 0.151951
C53   C     C_R   0.070049 0.038443 0.957500 0.010018
C54   C     C_R   0.950742 0.996714 0.067623 0.039231
C55   C     C_R   0.444590 0.511264 0.561386 0.030051
C56   C     C_R   0.559927 0.465155 0.445708 0.044967
C57   C     C_1   0.029841 0.034637 0.998764 -0.040099
C58   C     C_1   0.994293 0.017716 0.030631 -0.031196
C59   C     C_1   0.485483 0.490841 0.520883 -0.053706
C60   C     C_1   0.519444 0.475626 0.486972 -0.035448
C61   C     C_3   0.382014 0.666266 0.896388 -0.323752
C62   C     C_3   0.347085 0.643578 0.948346 -0.400841
C63   C     C_3   0.286336 0.583426 0.926976 -0.668233
H21   H     H_    0.284011 0.446203 0.902357 0.227799
H22   H     H_    0.264607 0.695744 0.897859 0.249710
H23   H     H_    0.264309 0.564354 0.966276 0.188868
H24   H     H_    0.366892 0.536851 0.981128 0.186107
H25   H     H_    0.346396 0.778861 0.973955 0.200803
H26   H     H_    0.358530 0.630105 0.851899 0.227661
H27   H     H_    0.415992 0.561425 0.900879 0.159648
C64   C     C_3   0.568922 0.228261 0.176681 -0.335765
C65   C     C_3   0.511579 0.197108 0.197052 -0.293646
C66   C     C_3   0.506115 0.319124 0.251703 -0.640757
H28   H     H_    0.542334 0.298582 0.287683 0.242134
H29   H     H_    0.503777 0.472154 0.238978 0.257912
H30   H     H_    0.467175 0.278329 0.269258 0.208434
H31   H     H_    0.476785 0.235330 0.161162 0.170058
H32   H     H_    0.506204 0.044012 0.207829 0.268263
H33   H     H_    0.600981 0.191995 0.215378 0.219089
H34   H     H_    0.574616 0.381683 0.166112 0.188001
C67   C     C_3   0.067959 0.277715 0.672597 -0.331425
C68   C     C_3   0.080535 0.076030 0.653195 -0.397694
C69   C     C_3   0.062983 0.932049 0.696524 -0.575539
H35   H     H_    0.084635 0.965876 0.742286 0.234863
H36   H     H_    0.016938 0.935106 0.695740 0.229670
H37   H     H_    0.074442 0.787635 0.683596 0.229647
H38   H     H_    0.057392 0.042084 0.607802 0.201192
H39   H     H_    0.126085 0.063106 0.651883 0.219300
H40   H     H_    0.096329 0.317999 0.714045 0.186948
H41   H     H_    0.024938 0.283459 0.684253 0.195158
C70   C     C_3   0.910094 0.827258 0.349925 -0.383843
C71   C     C_3   0.931459 0.788627 0.290740 -0.229530
C72   C     C_3   0.995213 0.772660 0.299164 -0.625324
H42   H     H_    0.015565 0.899231 0.323464 0.209555
H43   H     H_    0.008785 0.641265 0.324601 0.241084
H44   H     H_    0.009277 0.766223 0.254723 0.227050
H45   H     H_    0.911619 0.657192 0.269822 0.261276
H46   H     H_    0.919257 0.906631 0.259351 0.202677
H47   H     H_    0.866590 0.878891 0.342361 0.173160
H48   H     H_    0.934300 0.951324 0.371665 0.178699
C73   C     C_3   0.117314 0.345834 0.000404 -0.303963
C74   C     C_3   0.145283 0.283207 0.062880 -0.365218
C75   C     C_3   0.149510 0.448652 0.107256 -0.740545
H49   H     H_    0.174785 0.567932 0.092217 0.223536
H50   H     H_    0.107074 0.500555 0.111344 0.234241
H51   H     H_    0.170100 0.399923 0.152028 0.224259
H52   H     H_    0.120828 0.165035 0.079760 0.211842
H53   H     H_    0.188065 0.231201 0.060377 0.194388
H54   H     H_    0.142942 0.463198 0.984660 0.191549
H55   H     H_    0.075269 0.404978 0.002641 0.188606
C76   C     C_3   0.925765 0.658355 0.030092 -0.368686
C77   C     C_3   0.904014 0.685253 0.963180 -0.317594
C78   C     C_3   0.917086 0.511903 0.927236 -0.702182
H56   H     H_    0.963058 0.491046 0.932461 0.248706
H57   H     H_    0.896890 0.381378 0.942702 0.223201
H58   H     H_    0.900890 0.534289 0.878983 0.230859
H59   H     H_    0.857935 0.705190 0.956551 0.200400
H60   H     H_    0.923641 0.813686 0.945758 0.208079
H61   H     H_    0.971293 0.627265 0.037060 0.173920
H62   H     H_    0.904434 0.531198 0.046358 0.182688
C79   C     C_3   0.406046 0.804479 0.504422 -0.343751
C80   C     C_3   0.368191 0.977899 0.506238 -0.329263
C81   C     C_3   0.377231 0.123239 0.458049 -0.744969
H63   H     H_    0.421769 0.170698 0.463819 0.232016
H64   H     H_    0.365435 0.059555 0.412750 0.230130
H65   H     H_    0.350860 0.249738 0.461648 0.219038
H66   H     H_    0.323494 0.931385 0.498305 0.191989
H67   H     H_    0.377787 0.048424 0.550794 0.196851
H68   H     H_    0.449869 0.859118 0.507490 0.177063
H69   H     H_    0.394756 0.731121 0.460490 0.176245
C82   C     C_3   0.588577 0.128673 0.479521 -0.369022
C83   C     C_3   0.615007 0.154333 0.545292 -0.306806
C84   C     C_3   0.605205 0.976798 0.581823 -0.718037
H70   H     H_    0.559607 0.950680 0.580800 0.233436
H71   H     H_    0.623768 0.849936 0.563531 0.225102
H72   H     H_    0.625143 0.997756 0.629131 0.231110
H73   H     H_    0.660810 0.180501 0.548079 0.195812
H74   H     H_    0.596750 0.278738 0.565214 0.210085
H75   H     H_    0.543360 0.090685 0.476276 0.170713
H76   H     H_    0.608733 0.006228 0.460530 0.182428
S1    S     S_3+6 0.094872 0.647875 0.837763 -0.075328
O21   O     O_2   0.072095 0.503413 0.877157 -0.357308
O22   O     O_2   0.052427 0.661284 0.782068 -0.380499
O23   O     O_3   0.154973 0.564180 0.822082 -0.492612
H77   H     H_    0.146526 0.528787 0.779375 0.349779
S2    S     S_3+6 0.906713 0.325271 0.196808 -0.075302
O24   O     O_2   0.856200 0.447270 0.180563 -0.371897
O25   O     O_2   0.907572 0.248949 0.259059 -0.362041
O26   O     O_3   0.964935 0.459572 0.196232 -0.526449
H78   H     H_    0.954250 0.559813 0.165804 0.326995
S3    S     S_3+6 0.420146 0.248371 0.714829 0.006201
O27   O     O_2   0.478616 0.171928 0.723879 -0.324566
O28   O     O_2   0.412249 0.360508 0.769464 -0.333752
O29   O     O_3   0.374375 0.064112 0.706148 -0.488068
H79   H     H_    0.381391 0.999378 0.669180 0.314147
S4    S     S_3+6 0.591312 0.801379 0.309697 -0.072702
O30   O     O_2   0.640271 0.937733 0.320867 -0.363577
O31   O     O_2   0.587917 0.718849 0.247870 -0.363726
O32   O     O_3   0.532124 0.920057 0.313736 -0.527581
H80   H     H_    0.542012 0.011072 0.347348 0.325237

loop_
_geom_bond_atom_site_label_1
_geom_bond_atom_site_label_2
_ccdc_geom_bond_type
C67   H41   S    
C26   H10   S    
C55   C59   S    
O32   H80   S    
O1    C5    A    
C79   C80   S    
C7    C17   S    
C47   C51   A    
O19   V1    S    
O13   V1    S    
C61   C62   S    
O3    C7    A    
C75   H49   S    
C10   C14   A    
C56   C60   S    
C36   C40   A    
O4    V2    S    
O15   V3    S    
C10   C30   A    
C73   C74   S    
C9    C29   A    
C70   C71   S    
C81   H64   S    
C62   H25   S    
C3    C41   S    
C80   H67   S    
C72   H43   S    
C22   H6    S    
C65   H32   S    
C61   H26   S    
C77   C78   S    
C75   H50   S    
O10   V2    S    
C66   H29   S    
O16   V4    S    
C11   H3    S    
O4    C8    A    
S1    O22   D    
C62   C63   S    
C79   H68   S    
C64   C65   S    
O1    V3    S    
C33   C73   S    
C65   C66   S    
O2    V4    S    
C14   C18   A    
C36   C82   S    
C2    C44   S    
O3    V1    S    
C37   H13   S    
C71   H46   S    
C24   C28   A    
S2    O26   S    
C27   C31   A    
C1    O15   A    
C78   H56   S    
C48   C52   A    
C2    O16   A    
S4    O30   D    
C84   H71   S    
C34   C38   A    
C63   H21   S    
C33   C37   A    
O29   H79   S    
O14   V2    S    
C68   H39   S    
C11   C15   A    
O26   H78   S    
S3    O29   S    
C73   H54   S    
C16   C70   S    
C70   H47   S    
C77   H60   S    
C80   H66   S    
O12   C8    A    
C45   S1    S    
C63   H22   S    
C15   C67   S    
C38   C42   A    
O20   V4    S    
C37   C41   A    
C26   C30   A    
C50   H18   S    
C81   H65   S    
O5    V1    S    
C62   H24   S    
C52   H20   S    
O17   V1    S    
C83   H73   S    
C72   H44   S    
C40   C44   A    
C46   S2    S    
C64   H33   S    
C65   H31   S    
O19   V3    S    
C31   C32   S    
O8    V4    S    
C57   C58   T    
C44   C48   A    
C61   H27   S    
C12   H4    S    
C75   H51   S    
O7    V3    S    
C46   C50   A    
C66   H30   S    
C81   H63   S    
C45   C49   A    
O18   V4    S    
S1    O23   S    
C19   C23   A    
S3    O27   D    
C76   H61   S    
C79   H69   S    
C54   C58   S    
C35   C55   A    
C9    H1    S    
C34   C76   S    
C49   C53   A    
O23   H77   S    
C22   C26   A    
C78   H57   S    
C83   H74   S    
C69   H36   S    
S2    O24   D    
O5    C1    A    
C71   H45   S    
O7    C3    A    
C82   C83   S    
C11   C31   A    
O8    C4    A    
C84   H72   S    
C67   H40   S    
C17   C21   A    
C4    C42   S    
O11   V3    S    
O10   C6    A    
C13   C61   S    
C1    C43   S    
C74   H53   S    
C73   H55   S    
C70   H48   S    
O6    V2    S    
C6    C20   S    
C29   C30   S    
C78   H58   S    
C35   C79   S    
C67   C68   S    
C63   H23   S    
S3    O28   D    
C12   C16   A    
C23   C27   A    
C69   H35   S    
C76   C77   S    
C52   C56   A    
C82   H75   S    
C74   C75   S    
C36   C56   A    
O9    V1    S    
C3    O13   A    
S2    O25   D    
C64   H34   S    
C10   H2    S    
O17   V3    S    
C40   H16   S    
C25   C29   A    
C71   C72   S    
C43   C47   A    
C77   H59   S    
C21   C25   A    
C12   C32   A    
C25   H9    S    
C76   H62   S    
O12   V4    S    
C72   H42   S    
C18   C22   A    
C27   H11   S    
S4    O32   S    
C28   H12   S    
C8    C18   S    
C48   S4    S    
C83   C84   S    
C69   H37   S    
C9    C13   A    
O20   V2    S    
C16   C20   A    
C42   C46   A    
O2    C6    A    
O9    C5    A    
C35   C39   A    
C39   C43   A    
S1    O21   D    
C80   C81   S    
C39   H15   S    
C68   H38   S    
C68   C69   S    
C21   H5    S    
O11   C7    A    
C23   H7    S    
C49   H17   S    
C53   C57   S    
O6    C2    A    
C47   S3    S    
C74   H52   S    
C34   C54   A    
C14   C64   S    
C20   C24   A    
C28   C32   A    
C51   H19   S    
S4    O31   D    
C84   H70   S    
C38   H14   S    
C4    O14   A    
C59   C60   T    
C13   C17   A    
C51   C55   A    
C66   H28   S    
C15   C19   A    
C50   C54   A    
C41   C45   A    
C24   H8    S    
C82   H76   S    
C5    C19   S    
O18   V2    S    
C33   C53   A    
