data_mof_unit_16046.cif
_audit_creation_date              2012-10-26T17:12:28-0400
_audit_creation_method            fapswitch 2.2
_symmetry_space_group_name_H-M    P1
_symmetry_Int_Tables_number       1
_space_group_crystal_system       triclinic
_cell_length_a                    16.792279
_cell_length_b                    16.767859
_cell_length_c                    16.856565
_cell_angle_alpha                 67.567105
_cell_angle_beta                  67.698788
_cell_angle_gamma                 67.607083
_cell_volume                      3901.17579992

loop_
_atom_site_label
_atom_site_type_symbol
_atom_type_description
_atom_site_fract_x
_atom_site_fract_y
_atom_site_fract_z
_atom_type_partial_charge
C1    C     C_R   0.022025 0.828902 0.567037 0.601243
C2    C     C_R   0.031256 0.563496 0.828233 0.590164
C3    C     C_R   0.171393 0.975519 0.433612 0.612120
C4    C     C_R   0.828226 0.029780 0.564240 0.581604
C5    C     C_R   0.511315 0.936373 0.733677 0.236720
C6    C     C_R   0.502261 0.058327 0.261107 0.245459
C7    C     C_R   0.013073 0.714348 0.470132 0.319288
C8    C     C_R   0.951115 0.290244 0.542616 0.247546
C9    C     C_R   0.741646 0.506596 0.934734 0.243216
C10   C     C_R   0.288926 0.548238 0.935004 0.252593
C11   C     C_R   0.318755 0.903954 0.532206 0.235136
C12   C     C_R   0.969962 0.171830 0.436129 0.566350
C13   C     C_R   0.686122 0.098136 0.460935 0.257370
C14   C     C_R   0.551734 0.306812 0.895328 0.297051
C15   C     C_R   0.458777 0.708623 0.042623 0.247168
C16   C     C_R   0.060212 0.492037 0.262465 0.245817
C17   C     C_R   0.070385 0.449029 0.709549 0.247648
C18   C     C_R   0.553301 0.004153 0.546710 -0.085858
C19   C     C_R   0.455589 0.992252 0.448023 -0.088594
C20   C     C_R   0.040934 0.531618 0.542763 -0.075374
C21   C     C_R   0.019278 0.437782 0.447739 -0.069799
C22   C     C_R   0.555483 0.560736 0.973798 -0.071014
C23   C     C_R   0.830923 0.569283 0.015612 0.620345
C24   C     C_R   0.462945 0.468558 0.944629 -0.076540
C25   C     C_R   0.574037 0.041953 0.452846 0.054907
C26   C     C_R   0.435944 0.952582 0.541400 0.053638
C27   C     C_R   0.031995 0.443284 0.586820 0.049774
C28   C     C_R   0.040819 0.520797 0.400926 0.022827
C29   C     C_R   0.462908 0.598624 0.979540 0.051700
C30   C     C_R   0.556958 0.436753 0.927037 -0.001853
C31   C     C_R   0.529692 0.029147 0.403002 0.057069
C32   C     C_R   0.482044 0.962712 0.592064 0.053767
C33   C     C_R   0.415981 0.551592 0.966384 0.054812
C34   C     C_R   0.171865 0.436195 0.968805 0.590608
C35   C     C_R   0.603667 0.481347 0.945107 0.024751
C36   C     C_R   0.016938 0.397487 0.539678 0.049795
C37   C     C_R   0.046978 0.569723 0.450456 -0.012220
C38   C     C_R   0.455938 0.938032 0.686934 0.290108
C39   C     C_R   0.560081 0.047502 0.308994 0.292429
C40   C     C_R   0.053116 0.658872 0.413757 0.291064
C41   C     C_R   0.998488 0.313095 0.579795 0.286125
C42   C     C_R   0.696755 0.449357 0.937028 0.232594
C43   C     C_R   0.323147 0.583608 0.973694 0.285550
C44   C     C_R   0.379361 0.894637 0.577890 0.298353
C45   C     C_R   0.569813 0.014637 0.831212 0.623606
C46   C     C_R   0.632351 0.098731 0.412959 0.294895
C47   C     C_R   0.599722 0.365467 0.885280 0.297559
C48   C     C_R   0.421320 0.682978 0.997874 0.281003
C49   C     C_R   0.051801 0.551730 0.307123 0.235182
C50   C     C_R   0.034517 0.408077 0.677377 0.276323
C51   C     C_R   0.575212 0.985582 0.690141 -0.020012
C52   C     C_R   0.430989 0.018580 0.304170 -0.011527
C53   C     C_R   0.026515 0.678347 0.556072 -0.023239
C54   C     C_R   0.966541 0.318683 0.449479 -0.005682
C55   C     C_R   0.694413 0.573960 0.979721 -0.011508
C56   C     C_R   0.428488 0.993192 0.165578 0.579201
C57   C     C_R   0.323714 0.456371 0.940442 -0.001854
C58   C     C_R   0.328428 0.956127 0.442370 -0.017441
C59   C     C_R   0.675712 0.047909 0.550718 -0.003527
C60   C     C_R   0.457436 0.329224 0.931003 -0.023171
C61   C     C_R   0.552175 0.680725 0.027380 0.001134
C62   C     C_R   0.015485 0.424955 0.308214 -0.015147
C63   C     C_R   0.055484 0.542682 0.677795 0.002285
C64   C     C_R   0.612221 0.012575 0.736676 0.041350
C65   C     C_R   0.385081 0.006004 0.256328 -0.001855
C66   C     C_R   0.031467 0.730398 0.603889 0.027902
C67   C     C_R   0.436608 0.172379 0.968037 0.609564
C68   C     C_R   0.955697 0.270876 0.401991 0.000672
C69   C     C_R   0.736678 0.610573 0.012122 0.040095
C70   C     C_R   0.271816 0.403792 0.945162 0.001982
C71   C     C_R   0.267861 0.973203 0.392410 0.047839
C72   C     C_R   0.729381 0.044379 0.600333 0.010007
C73   C     C_R   0.403871 0.273269 0.944610 0.044736
C74   C     C_R   0.599009 0.728712 0.039757 0.003183
C75   C     C_R   0.984533 0.388948 0.264517 0.037985
C76   C     C_R   0.051267 0.595911 0.728868 0.002506
C77   C     C_R   0.689211 0.043271 0.690057 0.184472
C78   C     C_R   0.564415 0.827857 0.028465 0.578817
C79   C     C_R   0.297299 0.000300 0.298546 0.178221
C80   C     C_R   0.051748 0.686173 0.686578 0.183128
C81   C     C_R   0.951105 0.313775 0.313498 0.179744
C82   C     C_R   0.687019 0.685492 0.045635 0.177415
C83   C     C_R   0.314552 0.314377 0.940535 0.173207
C84   C     C_R   0.601168 0.012505 0.595857 -0.089537
C85   C     C_R   0.405112 0.988889 0.398261 -0.091998
C86   C     C_R   0.042234 0.584172 0.592112 -0.082850
C87   C     C_R   0.999729 0.394237 0.401786 -0.085152
C88   C     C_R   0.600706 0.604530 0.994482 -0.082203
C89   C     C_R   0.983101 0.430772 0.169550 0.618658
C90   C     C_R   0.414388 0.417220 0.940110 -0.084858
Cu1   Cu    Cu3+1 0.995180 0.995180 0.424630 1.137824
Cu2   Cu    Cu3+1 0.004820 0.004820 0.575370 1.077467
Cu3   Cu    Cu3+1 0.995180 0.424630 0.995180 1.081202
Cu4   Cu    Cu3+1 0.004820 0.575370 0.004820 1.082460
Cu5   Cu    Cu3+1 0.424630 0.995180 0.995180 1.086712
Cu6   Cu    Cu3+1 0.575370 0.004820 0.004820 1.093151
H1    H     H_    0.478747 0.835163 0.831678 0.344081
H2    H     H_    0.341277 0.758440 0.115965 0.349783
H3    H     H_    0.156044 0.532876 0.162942 0.337111
H4    H     H_    0.135955 0.333525 0.772977 0.334823
H5    H     H_    0.355363 0.930782 0.794621 0.336763
H6    H     H_    0.663942 0.038591 0.204941 0.334571
H7    H     H_    0.162950 0.631274 0.322082 0.351191
H8    H     H_    0.029856 0.189494 0.653603 0.333773
H9    H     H_    0.801800 0.346181 0.946586 0.339425
H10   H     H_    0.202481 0.648982 0.028188 0.328148
H11   H     H_    0.375023 0.772504 0.649786 0.339943
H12   H     H_    0.550277 0.150801 0.161472 0.341306
H13   H     H_    0.689013 0.168673 0.297837 0.354423
H14   H     H_    0.690967 0.421282 0.796030 0.343776
H15   H     H_    0.341957 0.804277 0.968969 0.329778
H16   H     H_    0.042513 0.652236 0.199926 0.341147
H17   H     H_    0.989975 0.336991 0.798721 0.328588
H18   H     H_    0.749296 0.122745 0.687977 0.355326
H19   H     H_    0.251667 0.074976 0.196286 0.339996
H20   H     H_    0.121686 0.690349 0.752435 0.352991
H21   H     H_    0.869934 0.252878 0.320517 0.352141
H22   H     H_    0.678046 0.744298 0.129243 0.335059
H23   H     H_    0.941095 0.801340 0.390440 0.351724
H24   H     H_    0.242570 0.304686 0.881140 0.353946
H25   H     H_    0.879348 0.237978 0.659640 0.346920
H26   H     H_    0.844769 0.465470 0.841214 0.334932
H27   H     H_    0.222981 0.667486 0.878001 0.339250
H28   H     H_    0.240270 0.843261 0.636330 0.349131
H29   H     H_    0.709957 0.213151 0.389140 0.331179
H30   H     H_    0.658841 0.223108 0.842507 0.381280
O1    O     O_R   0.124540 0.978640 0.385460 -0.441875
O2    O     O_R   0.124540 0.385460 0.978640 -0.487181
O3    O     O_R   0.021360 0.875460 0.614540 -0.436642
O4    O     O_R   0.978640 0.124540 0.385460 -0.481527
O5    O     O_R   0.013780 0.867370 0.487190 -0.471066
O6    O     O_R   0.986220 0.132630 0.512810 -0.486130
O7    O     O_R   0.867370 0.487190 0.013780 -0.484091
O8    O     O_R   0.132630 0.512810 0.986220 -0.455290
O9    O     O_R   0.487190 0.013780 0.867370 -0.487745
O10   O     O_R   0.512810 0.986220 0.132630 -0.480831
O11   O     O_R   0.512810 0.132630 0.986220 -0.461060
O12   O     O_R   0.875460 0.021360 0.614540 -0.491702
O13   O     O_R   0.487190 0.867370 0.013780 -0.444142
O14   O     O_R   0.986220 0.512810 0.132630 -0.484080
O15   O     O_R   0.013780 0.487190 0.867370 -0.452775
O16   O     O_R   0.132630 0.986220 0.512810 -0.495022
O17   O     O_R   0.867370 0.013780 0.487190 -0.461063
O18   O     O_3   0.508456 0.881215 0.819489 -0.696776
O19   O     O_3   0.509809 0.114218 0.174986 -0.686673
O20   O     O_3   0.943157 0.789452 0.452128 -0.662693
O21   O     O_3   0.888333 0.243331 0.596341 -0.679866
O22   O     O_3   0.828159 0.503407 0.881094 -0.688525
O23   O     O_R   0.978640 0.385460 0.124540 -0.449780
O24   O     O_3   0.231780 0.604153 0.882315 -0.693216
O25   O     O_3   0.257781 0.853996 0.570740 -0.684732
O26   O     O_3   0.739821 0.155538 0.425971 -0.711358
O27   O     O_3   0.593053 0.238020 0.854758 -0.652764
O28   O     O_3   0.404606 0.755071 0.105435 -0.668261
O29   O     O_3   0.117184 0.494313 0.177601 -0.690786
O30   O     O_3   0.123802 0.398002 0.766876 -0.698916
O31   O     O_3   0.371568 0.926124 0.733223 -0.635989
O32   O     O_3   0.649364 0.043677 0.265907 -0.667848
O33   O     O_3   0.116693 0.685838 0.336598 -0.629424
O34   O     O_R   0.021360 0.614540 0.875460 -0.487893
O35   O     O_3   0.040081 0.247733 0.642791 -0.632248
O36   O     O_3   0.742435 0.361198 0.936960 -0.657765
O37   O     O_3   0.265039 0.639674 0.026507 -0.650279
O38   O     O_3   0.394101 0.821325 0.650297 -0.637275
O39   O     O_3   0.628079 0.161900 0.331861 -0.660667
O40   O     O_3   0.681927 0.360389 0.822224 -0.645789
O41   O     O_3   0.353841 0.745083 0.960282 -0.642984
O42   O     O_3   0.049127 0.640018 0.259848 -0.667418
O43   O     O_3   0.992263 0.343323 0.736972 -0.640533
O44   O     O_3   0.723372 0.073621 0.732469 -0.639733
O45   O     O_R   0.385460 0.124540 0.978640 -0.466083
O46   O     O_3   0.238926 0.023438 0.248517 -0.639133
O47   O     O_3   0.072549 0.732254 0.725238 -0.643425
O48   O     O_3   0.915075 0.282691 0.273507 -0.653651
O49   O     O_3   0.725869 0.715720 0.083692 -0.654799
O50   O     O_3   0.270118 0.265996 0.930707 -0.651836
O51   O     O_R   0.614540 0.875460 0.021360 -0.502811
O52   O     O_R   0.614540 0.021360 0.875460 -0.434443
O53   O     O_R   0.385460 0.978640 0.124540 -0.480751
O54   O     O_R   0.875460 0.614540 0.021360 -0.448538

loop_
_geom_bond_atom_site_label_1
_geom_bond_atom_site_label_2
_ccdc_geom_bond_type
H21   O48   S    
C25   C31   A    
C21   C87   A    
C26   C32   A    
Cu3   Cu4   S    
C65   C79   A    
C46   O39   S    
C41   O35   S    
C78   O51   A    
Cu4   O14   S    
C64   C77   A    
C23   C69   S    
C40   O33   S    
Cu3   O23   S    
Cu5   Cu6   S    
C3    O16   A    
Cu2   O12   S    
C78   O13   A    
H6    O32   S    
C4    O17   A    
C71   C79   A    
C2    C76   S    
C66   C80   A    
Cu6   O10   S    
Cu1   O4    S    
H23   O20   S    
C22   C35   A    
C12   C68   S    
C9    C42   A    
C18   C32   A    
Cu1   O1    S    
H20   O47   S    
C68   C81   A    
C52   C85   A    
C22   C29   A    
C9    O22   S    
C80   O47   S    
C37   C40   A    
Cu3   O7    S    
C32   C38   A    
C54   C87   A    
C3    O1    A    
C58   C71   A    
Cu1   O5    S    
C63   C76   A    
C34   O8    A    
C56   C65   S    
H16   O42   S    
C29   C33   A    
C60   C73   A    
H18   O44   S    
C55   C88   A    
C35   C42   A    
C19   C26   A    
C15   O28   S    
C69   C82   A    
H24   O50   S    
C77   O44   S    
C20   C86   A    
C18   C84   A    
C7    C40   A    
H25   O21   S    
C53   C86   A    
C67   C73   S    
H26   O22   S    
C57   C70   A    
C11   C58   A    
Cu2   O16   S    
C34   C70   S    
Cu1   Cu2   S    
C27   C50   A    
C59   C72   A    
C7    O20   S    
H4    O30   S    
C89   O23   A    
H27   O24   S    
C19   C31   A    
C83   O50   S    
C36   C41   A    
C18   C25   A    
C16   C62   A    
C15   C48   A    
C74   C82   A    
C56   O10   A    
C24   C33   A    
Cu1   O17   S    
C2    O34   A    
C45   O9    A    
C57   C90   A    
C23   O7    A    
C29   C48   A    
C26   C44   A    
C33   C43   A    
C30   C47   A    
C10   C57   A    
C16   C49   A    
C38   O31   S    
C49   O42   S    
C8    C54   A    
H8    O35   S    
C21   C36   A    
C47   O40   S    
C75   C81   A    
C5    O18   S    
H17   O43   S    
C67   O45   A    
C20   C37   A    
C4    O12   A    
H3    O29   S    
C79   O46   S    
C3    C71   S    
H1    O18   S    
C72   C77   A    
C70   C83   A    
C61   C88   A    
C28   C49   A    
C39   O32   S    
C89   O14   A    
C16   O29   S    
Cu5   O9    S    
C1    C66   S    
C15   C61   A    
C11   C44   A    
Cu4   O54   S    
H10   O37   S    
C8    C41   A    
C53   C66   A    
C23   O54   A    
C55   C69   A    
H13   O39   S    
C45   O52   A    
C9    C55   A    
C30   C35   A    
C11   O25   S    
H28   O25   S    
H22   O49   S    
C12   O4    A    
C22   C88   A    
C63   C86   A    
Cu6   O51   S    
C62   C75   A    
C8    O21   S    
H15   O41   S    
C7    C53   A    
C58   C85   A    
C4    C72   S    
Cu3   O15   S    
H12   O19   S    
Cu5   O53   S    
C21   C28   A    
C6    O19   S    
H29   O26   S    
Cu4   O34   S    
C12   O6    A    
Cu2   O6    S    
C10   C43   A    
H9    O36   S    
Cu5   O13   S    
Cu6   O11   S    
C51   C64   A    
C76   C80   A    
C13   O26   S    
H19   O46   S    
C19   C85   A    
C24   C90   A    
C17   C50   A    
C42   O36   S    
C14   C47   A    
C13   C59   A    
C20   C27   A    
C60   C90   A    
C61   C74   A    
C14   C60   A    
C62   C87   A    
C45   C64   S    
C1    O3    A    
C59   C84   A    
C27   C36   A    
Cu6   O52   S    
C81   O48   S    
Cu2   O3    S    
Cu3   O2    S    
C14   O27   S    
C10   O24   S    
H2    O28   S    
H14   O40   S    
H7    O33   S    
C13   C46   A    
C48   O41   S    
C28   C37   A    
C1    O5    A    
C51   C84   A    
Cu4   O8    S    
C31   C39   A    
C50   O43   S    
C67   O11   A    
C24   C30   A    
C75   C89   S    
H5    O31   S    
H30   O27   S    
C54   C68   A    
H11   O38   S    
C34   O2    A    
C74   C78   S    
C2    O15   A    
C6    C39   A    
C5    C51   A    
C82   O49   S    
C44   O38   S    
C6    C52   A    
C5    C38   A    
C17   O30   S    
Cu5   O45   S    
C25   C46   A    
C73   C83   A    
C17   C63   A    
C52   C65   A    
C56   O53   A    
C43   O37   S    
