data_mof_unit_42168.cif
_audit_creation_date              2013-03-05T15:45:40-0500
_audit_creation_method            fapswitch 2.2
_symmetry_space_group_name_H-M    P1
_symmetry_Int_Tables_number       1
_space_group_crystal_system       triclinic
_cell_length_a                    15.065313
_cell_length_b                    11.124681
_cell_length_c                    9.881401
_cell_angle_alpha                 111.380142
_cell_angle_beta                  98.927208
_cell_angle_gamma                 90.500811
_cell_volume                      1519.59728714

loop_
_atom_site_label
_atom_site_type_symbol
_atom_site_description
_atom_site_fract_x
_atom_site_fract_y
_atom_site_fract_z
_atom_type_partial_charge
O1    O     O_R   0.508410 0.332340 0.577400 -0.559278
O2    O     O_R   0.491590 0.667660 0.422600 -0.558334
O3    O     O_R   0.481780 0.295500 0.332650 -0.551823
O4    O     O_R   0.518220 0.704500 0.667350 -0.554754
C1    C     C_R   0.494694 0.254794 0.440901 0.924903
C2    C     C_R   0.504306 0.745218 0.559067 0.919683
O5    O     O_R   0.383570 0.518390 0.622380 -0.571426
O6    O     O_R   0.616430 0.481610 0.377620 -0.575614
O7    O     O_R   0.356940 0.481550 0.377630 -0.583704
O8    O     O_R   0.643060 0.518450 0.622370 -0.585154
C3    C     C_R   0.329190 0.498423 0.500210 0.901101
C4    C     C_R   0.670933 0.501096 0.499520 0.923210
Cu1   Cu    Cu3+1 0.515770 0.521810 0.644910 1.086259
Cu2   Cu    Cu3+1 0.484230 0.478190 0.355090 1.085539
C5    C     C_R   0.823517 0.613926 0.588986 0.258510
C6    C     C_R   0.177940 0.383858 0.420696 0.253195
C7    C     C_R   0.767318 0.503467 0.497007 -0.267305
C8    C     C_R   0.232877 0.498354 0.500425 -0.263525
C9    C     C_R   0.802098 0.395848 0.399104 0.272384
C10   C     C_R   0.196270 0.613954 0.576776 0.275232
C11   C     C_R   0.895230 0.394593 0.399583 -0.033551
C12   C     C_R   0.102977 0.615873 0.574362 -0.031011
C13   C     C_R   0.952318 0.505913 0.488458 -0.008981
C14   C     C_R   0.046210 0.503215 0.489040 -0.008928
C15   C     C_R   0.915743 0.619525 0.577080 -0.082165
C16   C     C_R   0.083250 0.387672 0.405777 -0.080868
C17   C     C_R   0.932006 0.283680 0.311927 -0.142504
C18   C     C_R   0.065432 0.729775 0.652989 -0.141913
C19   C     C_R   0.024213 0.279718 0.311221 0.327127
C20   C     C_R   0.972992 0.734309 0.651385 0.330336
H1    H     H_    0.889056 0.198809 0.240202 0.234736
H2    H     H_    0.107527 0.818322 0.713387 0.235519
C21   C     C_2   0.484579 0.117033 0.409119 -0.254346
C22   C     C_2   0.512848 0.883179 0.590684 -0.255479
C23   C     C_2   0.514467 0.066651 0.511305 0.244591
C24   C     C_2   0.484653 0.932561 0.486870 0.245230
H3    H     H_    0.551158 0.942338 0.697245 0.211103
H4    H     H_    0.443940 0.059126 0.304142 0.208725
H5    H     H_    0.433916 0.433001 0.846645 0.183332
H6    H     H_    0.566182 0.566856 0.153444 0.184454
N1    N     N_2   0.460520 0.445420 0.137370 -0.275242
N2    N     N_2   0.539480 0.554580 0.862630 -0.274895
C25   C     C_2   0.509475 0.504654 0.079646 0.067190
C26   C     C_2   0.490619 0.495267 0.920402 0.069149
N3    N     N_R   0.787559 0.715844 0.699652 0.148967
O9    O     O_R   0.719927 0.775900 0.662626 -0.334584
O10   O     O_R   0.820364 0.745204 0.838492 -0.291136
N4    N     N_R   0.218963 0.262453 0.373334 0.136626
O11   O     O_R   0.272417 0.237745 0.276460 -0.327918
O12   O     O_R   0.205284 0.177932 0.431955 -0.268117
N5    N     N_R   0.742828 0.285754 0.303621 0.124505
O13   O     O_R   0.700189 0.217318 0.358820 -0.303908
O14   O     O_R   0.728941 0.256912 0.161701 -0.279243
N6    N     N_R   0.254398 0.729185 0.656791 0.108965
O15   O     O_R   0.254910 0.822436 0.606998 -0.277624
O16   O     O_R   0.301977 0.744564 0.784343 -0.282084
N7    N     N_R   0.054882 0.169479 0.203767 0.181466
O17   O     O_R   0.026508 0.053340 0.187213 -0.230504
O18   O     O_R   0.094927 0.185232 0.103213 -0.248314
N8    N     N_R   0.938503 0.858991 0.713076 0.174716
O19   O     O_R   0.977875 0.941280 0.840461 -0.221212
O20   O     O_R   0.881256 0.899850 0.629419 -0.245017
N9    N     N_R   0.425320 0.856193 0.352537 0.131576
O21   O     O_R   0.453170 0.822192 0.226472 -0.292433
O22   O     O_R   0.345920 0.812876 0.357692 -0.263157
N10   N     N_R   0.576451 0.141489 0.642996 0.133168
O23   O     O_R   0.550530 0.179986 0.770809 -0.290663
O24   O     O_R   0.656050 0.180498 0.633279 -0.258348
C27   C     C_2   0.612745 0.645395 0.949733 0.632624
H7    H     H_    0.674912 0.644395 0.907278 0.116436
O25   O     O_2   0.604393 0.731402 0.065665 -0.500555
C28   C     C_2   0.387431 0.354394 0.049906 0.634539
H8    H     H_    0.324786 0.355870 0.091316 0.110495
O26   O     O_2   0.396374 0.267828 0.934720 -0.499972

loop_
_geom_bond_atom_site_label_1
_geom_bond_atom_site_label_2
_geom_bond_distance
_ccdc_geom_bond_type
C4    C7    1.456303 S    
N4    O11   1.300645 A    
N10   O24   1.301005 A    
O7    Cu2   1.963716 S    
N9    O22   1.300920 A    
C3    C8    1.451308 S    
H5    C26   1.081240 S    
N6    O16   1.300718 A    
C17   C19   1.391218 A    
C24   N9    1.441882 S    
N1    C25   1.303699 D    
N2    C27   1.425290 S    
C8    C10   1.400466 A    
C23   C24   1.475545 S    
O5    Cu1   1.967869 S    
O6    C4    1.292933 A    
C2    C22   1.450567 S    
C6    N4    1.438259 S    
N4    O12   1.301105 A    
N10   O23   1.301007 A    
C11   C17   1.400472 A    
C27   O25   1.221196 D    
C18   C20   1.391830 A    
C12   C18   1.400111 A    
N3    O9    1.301076 A    
O5    C3    1.293146 A    
O7    C3    1.292254 A    
C10   N6    1.435902 S    
N7    O17   1.301287 A    
O2    C2    1.291585 A    
O3    Cu2   1.961792 S    
N2    C26   1.303728 D    
Cu2   N1    2.018986 S    
O1    C1    1.291577 A    
O8    C4    1.294595 A    
N8    O20   1.301271 A    
Cu1   N2    2.018986 S    
C21   C23   1.346261 D    
C10   C12   1.402467 A    
C22   C24   1.346955 D    
C1    C21   1.449375 S    
C11   C13   1.413712 A    
C25   C26   1.519414 S    
C6    C16   1.413828 A    
C27   H7    1.082581 S    
O2    Cu2   1.961596 S    
C12   C14   1.414210 A    
C5    C15   1.415186 A    
O4    C2    1.295926 A    
N7    O18   1.301185 A    
C5    N3    1.437146 S    
C13   C14   1.414257 A    
C17   H1    1.082381 S    
N9    O21   1.300894 A    
C22   H3    1.083734 S    
C7    C9    1.402721 A    
C9    N5    1.436810 S    
C18   H2    1.082436 S    
C13   C15   1.422283 A    
O1    Cu1   1.961596 S    
C28   O26   1.221369 D    
C16   C19   1.418317 A    
C6    C8    1.405572 A    
N5    O14   1.301170 A    
C19   N7    1.434447 S    
N3    O10   1.301217 A    
C15   C20   1.419207 A    
C5    C7    1.407680 A    
N6    O15   1.300582 A    
N8    O19   1.301125 A    
C21   H4    1.083808 S    
O6    Cu2   1.967869 S    
C23   N10   1.441481 S    
C9    C11   1.402530 A    
Cu1   Cu2   2.687594 S    
N1    C28   1.425439 S    
H6    C25   1.081128 S    
N5    O13   1.301061 A    
O4    Cu1   1.961791 S    
C14   C16   1.422836 A    
C28   H8    1.083340 S    
O3    C1    1.295083 A    
O8    Cu1   1.963716 S    
C20   N8    1.435232 S    
