data_mof_unit_41679.cif
_audit_creation_date              2012-12-10T19:52:16-0500
_audit_creation_method            fapswitch 2.2
_symmetry_space_group_name_H-M    P1
_symmetry_Int_Tables_number       1
_space_group_crystal_system       triclinic
_cell_length_a                    14.957717
_cell_length_b                    14.163258
_cell_length_c                    10.727809
_cell_angle_alpha                 90.806381
_cell_angle_beta                  90.252045
_cell_angle_gamma                 90.687672
_cell_volume                      2272.27392098

loop_
_atom_site_label
_atom_site_type_symbol
_atom_type_description
_atom_site_fract_x
_atom_site_fract_y
_atom_site_fract_z
_atom_type_partial_charge
C1    C     C_R   0.327543 0.499310 0.504029 0.826292
C2    C     C_3   0.592885 0.472113 0.918927 -0.395813
C3    C     C_R   0.092429 0.578125 0.534770 -0.189977
C4    C     C_R   0.098938 0.410880 0.581302 -0.179258
C5    C     C_R   0.183374 0.580178 0.514612 -0.210332
C6    C     C_R   0.190023 0.412796 0.560084 -0.229501
C7    C     C_R   0.232167 0.497159 0.524243 -0.029245
C8    C     C_R   0.049559 0.493094 0.565816 0.192821
C9    C     C_R   0.909777 0.417209 0.494636 -0.287366
C10   C     C_R   0.904399 0.564041 0.611499 -0.280317
C11   C     C_R   0.817666 0.419529 0.475225 0.409451
C12   C     C_R   0.816261 0.576132 0.575430 0.461263
C13   C     C_R   0.770267 0.500444 0.514431 -0.277987
C14   C     C_R   0.952622 0.488386 0.564273 -0.033281
C15   C     C_R   0.474775 0.100826 0.397033 0.381167
C16   C     C_R   0.423487 0.895851 0.473488 0.390581
C17   C     C_R   0.505811 0.499891 0.257385 0.886235
C18   C     C_R   0.465626 0.200126 0.402011 0.466988
C19   C     C_R   0.426460 0.796603 0.461415 0.470980
C20   C     C_R   0.537580 0.207837 0.598766 -0.132367
C21   C     C_R   0.569751 0.795185 0.554260 -0.136839
C22   C     C_R   0.538807 0.108703 0.604274 -0.376382
C23   C     C_R   0.572801 0.894584 0.558599 -0.389237
C24   C     C_R   0.505789 0.053118 0.504226 -0.004626
C25   C     C_R   0.500406 0.946891 0.513625 -0.017564
C26   C     C_R   0.673043 0.500571 0.501892 0.919288
C27   C     C_R   0.495379 0.500560 0.742094 0.861080
C28   C     C_3   0.474606 0.598036 0.074195 -0.548316
C29   C     C_3   0.436337 0.427530 0.071980 -0.445963
C30   C     C_3   0.474103 0.602118 0.931184 0.325700
C31   C     C_3   0.427310 0.429411 0.929520 0.283786
C32   C     C_3   0.605719 0.482838 0.063264 0.307807
C33   C     C_3   0.508037 0.500730 0.120045 0.048321
C34   C     C_3   0.497477 0.501433 0.878153 -0.030311
H1    H     H_    0.515525 0.655682 0.116720 0.206036
H2    H     H_    0.449865 0.355214 0.103304 0.259081
H3    H     H_    0.565147 0.249168 0.675558 0.189779
H4    H     H_    0.621568 0.755455 0.598311 0.215373
H5    H     H_    0.564733 0.075756 0.687170 0.182070
H6    H     H_    0.631599 0.930108 0.596366 0.185459
H7    H     H_    0.405055 0.609154 0.105601 0.134994
H8    H     H_    0.370116 0.444328 0.113556 0.113270
H9    H     H_    0.405007 0.617314 0.899029 0.057103
H10   H     H_    0.359216 0.456699 0.907700 0.028537
H11   H     H_    0.642601 0.515246 0.866575 0.162513
H12   H     H_    0.606336 0.399471 0.884962 0.196957
H13   H     H_    0.055441 0.642246 0.520648 0.125280
H14   H     H_    0.066655 0.344964 0.606304 0.125181
H15   H     H_    0.214816 0.646218 0.489319 0.195260
H16   H     H_    0.227087 0.348354 0.571666 0.140342
H17   H     H_    0.948546 0.362110 0.450480 0.153010
H18   H     H_    0.937759 0.619212 0.665797 0.160074
N1    N     N_R   0.499980 0.252470 0.500000 -0.161592
N2    N     N_R   0.499980 0.747530 0.500000 -0.159781
O1    O     O_R   0.369070 0.579480 0.500010 -0.576095
O2    O     O_R   0.369070 0.420520 0.500010 -0.653196
O3    O     O_R   0.499990 0.579480 0.314790 -0.653218
O4    O     O_R   0.499990 0.420520 0.314790 -0.583397
O5    O     O_R   0.630940 0.579480 0.499990 -0.607510
O6    O     O_R   0.630940 0.420520 0.499990 -0.589928
O7    O     O_R   0.500020 0.579480 0.685200 -0.574487
O8    O     O_R   0.500020 0.420520 0.685200 -0.612891
Zn1   Zn    Zn3+2 0.500010 0.606140 0.500000 0.959163
Zn2   Zn    Zn3+2 0.500010 0.393860 0.500000 0.947879
O9    O     O_3   0.775984 0.350436 0.401861 -0.644837
C35   C     C_3   0.782515 0.261569 0.459444 0.125910
H19   H     H_    0.752161 0.263962 0.554179 0.138677
H20   H     H_    0.853286 0.239052 0.466922 0.123693
C36   C     C_3   0.732265 0.187951 0.380001 -0.308017
H21   H     H_    0.660356 0.206049 0.376919 0.221927
H22   H     H_    0.758605 0.188731 0.283314 0.224376
C37   C     C_3   0.742839 0.088980 0.432074 -1.001339
H23   H     H_    0.814103 0.068098 0.428786 0.263143
H24   H     H_    0.702883 0.037619 0.375283 0.268895
H25   H     H_    0.719466 0.086618 0.530025 0.272349
O10   O     O_3   0.776635 0.661279 0.605249 -0.636549
C38   C     C_3   0.787990 0.726029 0.505970 0.092616
H26   H     H_    0.755554 0.792784 0.534358 0.164955
H27   H     H_    0.753115 0.700048 0.420671 0.152560
C39   C     C_3   0.885830 0.752146 0.476423 -0.419720
H28   H     H_    0.922406 0.770188 0.564098 0.230814
H29   H     H_    0.918521 0.691679 0.428927 0.218287
C40   C     C_3   0.891354 0.836361 0.389446 -0.947340
H30   H     H_    0.962446 0.851944 0.367407 0.266246
H31   H     H_    0.862174 0.899738 0.434831 0.266039
H32   H     H_    0.854799 0.820428 0.301106 0.263261
O11   O     O_3   0.442112 0.052705 0.292276 -0.612430
C41   C     C_3   0.510152 0.002643 0.229181 0.096903
H33   H     H_    0.477208 0.944869 0.174205 0.156599
H34   H     H_    0.558786 0.968451 0.292123 0.119899
C42   C     C_3   0.560189 0.067391 0.140354 -0.363337
H35   H     H_    0.511759 0.105845 0.081405 0.253488
H36   H     H_    0.599481 0.118687 0.197311 0.213147
C43   C     C_3   0.624196 0.012583 0.057041 -0.989392
H37   H     H_    0.673261 0.973880 0.114510 0.268037
H38   H     H_    0.661064 0.062445 0.996394 0.269803
H39   H     H_    0.586427 0.961694 0.996923 0.261707
O12   O     O_3   0.347015 0.941537 0.434926 -0.624286
C44   C     C_3   0.298546 0.976182 0.538414 0.068076
H40   H     H_    0.260385 0.038218 0.506559 0.159710
H41   H     H_    0.342061 0.002611 0.616108 0.125509
C45   C     C_3   0.231979 0.901136 0.583798 -0.333795
H42   H     H_    0.193369 0.871898 0.503027 0.236117
H43   H     H_    0.268860 0.842432 0.627429 0.230012
C46   C     C_3   0.166619 0.942340 0.678299 -0.986042
H44   H     H_    0.202995 0.972438 0.760328 0.268140
H45   H     H_    0.120527 0.885781 0.710506 0.270204
H46   H     H_    0.126387 0.998615 0.634862 0.267303
O13   O     O_3   0.423971 0.244382 0.304230 -0.643960
C47   C     C_3   0.332435 0.257413 0.332284 0.142618
H47   H     H_    0.314152 0.328827 0.299875 0.169068
H48   H     H_    0.316722 0.254722 0.433866 0.108241
C48   C     C_3   0.273939 0.184518 0.262607 -0.361462
H49   H     H_    0.293150 0.181797 0.162993 0.239846
H50   H     H_    0.283917 0.113637 0.302564 0.266128
C49   C     C_3   0.175075 0.208813 0.272560 -0.997058
H51   H     H_    0.154303 0.211227 0.371871 0.262717
H52   H     H_    0.134328 0.154084 0.222670 0.275585
H53   H     H_    0.162245 0.278319 0.229655 0.270233
O14   O     O_3   0.349353 0.749113 0.426265 -0.646849
C50   C     C_3   0.344943 0.738584 0.295319 0.149440
H54   H     H_    0.342508 0.661785 0.275057 0.165309
H55   H     H_    0.402997 0.769787 0.244151 0.092288
C51   C     C_3   0.257896 0.780530 0.246732 -0.357285
H56   H     H_    0.199993 0.745162 0.291861 0.211007
H57   H     H_    0.255669 0.857017 0.269889 0.270064
C52   C     C_3   0.249698 0.768188 0.105712 -0.991253
H58   H     H_    0.304904 0.806955 0.059434 0.274686
H59   H     H_    0.185145 0.797330 0.073508 0.276070
H60   H     H_    0.252107 0.692240 0.078794 0.255285
O15   O     O_3   0.534868 0.671741 0.885898 -0.615787
C53   C     C_3   0.508175 0.765936 0.912187 0.105286
H61   H     H_    0.566655 0.811856 0.890867 0.170582
H62   H     H_    0.493138 0.778965 0.012004 0.103473
C54   C     C_3   0.429098 0.798233 0.832517 -0.361378
H63   H     H_    0.440406 0.780238 0.733256 0.247808
H64   H     H_    0.366357 0.762722 0.861798 0.202678
C55   C     C_3   0.416504 0.904593 0.847521 -0.992002
H65   H     H_    0.412624 0.925029 0.947679 0.267382
H66   H     H_    0.353213 0.925048 0.802526 0.271384
H67   H     H_    0.472744 0.943560 0.803718 0.274338
O16   O     O_3   0.441711 0.336606 0.881203 -0.636535
C56   C     C_3   0.366055 0.299591 0.816384 0.143745
H68   H     H_    0.390080 0.246562 0.747625 0.165153
H69   H     H_    0.330507 0.353702 0.761106 0.120770
C57   C     C_3   0.302725 0.249537 0.906014 -0.383593
H70   H     H_    0.339811 0.192803 0.953681 0.232635
H71   H     H_    0.278322 0.300562 0.977380 0.219726
C58   C     C_3   0.222786 0.205744 0.836725 -0.979038
H72   H     H_    0.183388 0.261528 0.790790 0.264497
H73   H     H_    0.179014 0.168378 0.903793 0.276533
H74   H     H_    0.245662 0.154117 0.765096 0.258574
C59   C     C_3   0.673582 0.569156 0.080284 -0.422339
C60   C     C_3   0.701604 0.599474 0.211716 -0.940303
H75   H     H_    0.646176 0.633331 0.261984 0.285045
H76   H     H_    0.729460 0.540306 0.264597 0.260096
H77   H     H_    0.755641 0.653586 0.204565 0.247297
H78   H     H_    0.736772 0.551439 0.031130 0.206127
H79   H     H_    0.650214 0.633001 0.032751 0.260288
C61   C     C_3   0.655295 0.394922 0.117221 -0.349082
C62   C     C_3   0.613618 0.296686 0.098649 -0.908643
H80   H     H_    0.568210 0.280718 0.176888 0.291278
H81   H     H_    0.577737 0.286381 0.009364 0.295291
H82   H     H_    0.667948 0.244067 0.100479 0.239577
H83   H     H_    0.723179 0.392057 0.075340 0.203484
H84   H     H_    0.665603 0.404420 0.218933 0.251281

loop_
_geom_bond_atom_site_label_1
_geom_bond_atom_site_label_2
_ccdc_geom_bond_type
C56   C57   S    
C35   H20   S    
O11   C41   S    
C29   H8    S    
C54   C55   S    
C15   C18   A    
C9    H17   S    
C18   O13   S    
C4    C8    A    
C10   H18   S    
C62   H80   S    
C54   H63   S    
C38   H26   S    
C2    H12   S    
C46   H45   S    
C29   H2    S    
C15   O11   S    
C1    O2    A    
C48   H49   S    
C58   H73   S    
C21   N2    A    
N1    Zn2   S    
C35   C36   S    
N2    Zn1   S    
C23   H6    S    
C29   C33   S    
C28   H7    S    
C49   H51   S    
C45   C46   S    
C2    C32   S    
C30   O15   S    
C3    H13   S    
C59   H78   S    
C36   H22   S    
C47   H47   S    
C50   C51   S    
O8    Zn2   S    
C27   O7    A    
C18   N1    A    
C21   H4    S    
C44   H40   S    
C28   H1    S    
C53   H61   S    
O1    Zn1   S    
O2    Zn2   S    
C52   H58   S    
C61   H84   S    
C26   O5    A    
C60   H76   S    
C17   O4    A    
C37   H23   S    
C48   C49   S    
C41   H33   S    
C2    C34   S    
C35   H19   S    
C27   C34   S    
C54   H64   S    
C5    H15   S    
C36   H21   S    
C17   C33   S    
C39   C40   S    
C62   H81   S    
O3    Zn1   S    
C57   H71   S    
C38   H27   S    
C2    H11   S    
O4    Zn2   S    
C46   H46   S    
C31   H10   S    
C30   C34   S    
C45   H42   S    
C24   C25   S    
C60   H77   S    
C37   H24   S    
C3    C8    A    
C10   C14   A    
C58   H74   S    
C42   H35   S    
C5    C7    A    
C20   N1    A    
C43   H39   S    
C6    H16   S    
C59   H79   S    
C36   C37   S    
C43   H38   S    
C9    C14   A    
C52   H59   S    
C27   O8    A    
C42   H36   S    
C57   C58   S    
C40   H30   S    
C41   C42   S    
C44   C45   S    
O7    Zn1   S    
C50   H54   S    
C31   C34   S    
C61   H83   S    
O10   C38   S    
C45   H43   S    
C9    C11   A    
C47   C48   S    
C60   H75   S    
C10   C12   A    
C51   C52   S    
C19   N2    A    
C4    C6    A    
C15   C24   A    
C44   H41   S    
C41   H34   S    
C28   C33   S    
O9    C35   S    
C21   C23   A    
C22   C24   A    
C30   H9    S    
O15   C53   S    
C62   H82   S    
O14   C50   S    
C51   H57   S    
C57   H70   S    
C4    H14   S    
C38   C39   S    
C16   C25   A    
C56   H69   S    
C8    C14   S    
C40   H31   S    
C1    C7    S    
C20   C22   A    
C39   H28   S    
C3    C5    A    
C55   H67   S    
C19   O14   S    
C6    C7    A    
C55   H66   S    
C46   H44   S    
O5    Zn1   S    
C49   H53   S    
O6    Zn2   S    
C61   C62   S    
C31   O16   S    
C12   O10   S    
C1    O1    A    
C52   H60   S    
C29   C31   S    
C58   H72   S    
C32   C33   S    
C42   C43   S    
C20   H3    S    
C11   C13   A    
C37   H25   S    
C53   C54   S    
C22   H5    S    
C28   C30   S    
C39   H29   S    
C49   H52   S    
C23   C25   A    
C43   H37   S    
C13   C26   S    
C47   H48   S    
C50   H55   S    
C55   H65   S    
C32   C59   S    
C16   O12   S    
C11   O9    S    
C40   H32   S    
C12   C13   A    
C53   H62   S    
O12   C44   S    
O16   C56   S    
C48   H50   S    
C59   C60   S    
O13   C47   S    
C26   O6    A    
C56   H68   S    
C17   O3    A    
C51   H56   S    
C32   C61   S    
C16   C19   A    
