data_mof_unit_64007.cif
_audit_creation_date              2012-12-10T16:55:22-0500
_audit_creation_method            fapswitch 2.2
_symmetry_space_group_name_H-M    P1
_symmetry_Int_Tables_number       1
_space_group_crystal_system       triclinic
_cell_length_a                    29.299323
_cell_length_b                    30.204127
_cell_length_c                    21.654029
_cell_angle_alpha                 89.975243
_cell_angle_beta                  133.626177
_cell_angle_gamma                 90.39118
_cell_volume                      13870.6715162

loop_
_atom_site_label
_atom_site_type_symbol
_atom_type_description
_atom_site_fract_x
_atom_site_fract_y
_atom_site_fract_z
_atom_type_partial_charge
C1    C     C_R   0.306162 0.189915 0.117592 0.803342
C2    C     C_R   0.666799 0.920333 0.773924 0.009111
C3    C     C_R   0.245220 0.861459 0.163552 0.137315
C4    C     C_R   0.734627 0.607465 0.090745 0.179641
C5    C     C_R   0.265373 0.392535 0.909255 0.179641
C6    C     C_R   0.254780 0.638541 0.836447 0.137316
C7    C     C_R   0.745220 0.361459 0.163552 0.137317
C8    C     C_R   0.210826 0.064397 0.064634 -0.159535
C9    C     C_R   0.789174 0.935602 0.935365 -0.159536
C10   C     C_R   0.774659 0.134431 0.793730 -0.146619
C11   C     C_R   0.225341 0.865570 0.206269 -0.146618
C12   C     C_R   0.710826 0.564397 0.064634 -0.159535
C13   C     C_R   0.647701 0.118813 0.705775 0.023685
C14   C     C_R   0.289174 0.435603 0.935366 -0.159535
C15   C     C_R   0.274659 0.634431 0.793730 -0.146619
C16   C     C_R   0.725341 0.365569 0.206270 -0.146619
C17   C     C_R   0.243831 0.030035 0.121643 -0.205380
C18   C     C_R   0.756169 0.969964 0.878357 -0.205380
C19   C     C_R   0.731083 0.126949 0.706407 -0.208527
C20   C     C_R   0.268916 0.873052 0.293592 -0.208527
C21   C     C_R   0.743832 0.530035 0.121643 -0.205381
C22   C     C_R   0.256168 0.469965 0.878357 -0.205380
C23   C     C_R   0.231083 0.626948 0.706407 -0.208527
C24   C     C_R   0.352298 0.881187 0.294225 0.023685
C25   C     C_R   0.768917 0.373052 0.293593 -0.208527
C26   C     C_R   0.299822 0.038864 0.205467 -0.056740
C27   C     C_R   0.700178 0.961136 0.794533 -0.056740
C28   C     C_R   0.667906 0.118517 0.661818 0.016767
C29   C     C_R   0.332094 0.881483 0.338182 0.016767
C30   C     C_R   0.799822 0.538864 0.205467 -0.056740
C31   C     C_R   0.200178 0.461136 0.794533 -0.056740
C32   C     C_R   0.167906 0.618517 0.661817 0.016767
C33   C     C_R   0.832094 0.381483 0.338182 0.016766
C34   C     C_3   0.185751 0.142945 0.049059 -0.811556
C35   C     C_R   0.833201 0.579667 0.226076 0.009110
C36   C     C_3   0.814249 0.857055 0.950940 -0.811554
C37   C     C_3   0.804477 0.133939 0.931807 -0.843870
C38   C     C_3   0.195523 0.866061 0.068193 -0.843874
C39   C     C_3   0.685751 0.642944 0.049059 -0.811552
C40   C     C_3   0.314249 0.357055 0.950941 -0.811554
C41   C     C_3   0.304477 0.633939 0.931807 -0.843879
C42   C     C_3   0.695523 0.366061 0.068193 -0.843879
C43   C     C_1   0.306508 0.012378 0.266472 0.261546
C44   C     C_1   0.693492 0.987622 0.733528 0.261546
C45   C     C_1   0.624900 0.116530 0.570167 0.253274
C46   C     C_R   0.166799 0.420333 0.773924 0.009110
C47   C     C_1   0.375100 0.883470 0.429833 0.253274
C48   C     C_1   0.806508 0.512378 0.266472 0.261545
C49   C     C_1   0.193492 0.487622 0.733528 0.261546
C50   C     C_1   0.124899 0.616530 0.570166 0.253273
C51   C     C_1   0.875100 0.383470 0.429834 0.253274
C52   C     C_R   0.147701 0.618813 0.705775 0.023685
C53   C     C_R   0.852298 0.381187 0.294225 0.023685
C54   C     C_R   0.299977 0.114548 0.164912 0.091424
C55   C     C_R   0.700023 0.885452 0.835088 0.091424
C56   C     C_R   0.689179 0.137412 0.788836 0.066443
C57   C     C_R   0.693837 0.810084 0.882408 0.803342
C58   C     C_R   0.310821 0.862588 0.211164 0.066443
C59   C     C_R   0.799977 0.614548 0.164912 0.091424
C60   C     C_R   0.200023 0.385452 0.835088 0.091424
C61   C     C_R   0.189179 0.637412 0.788835 0.066444
C62   C     C_R   0.810821 0.362588 0.211165 0.066444
C63   C     C_R   0.332772 0.154915 0.181381 -0.104008
C64   C     C_R   0.667228 0.845085 0.818619 -0.104008
C65   C     C_R   0.662507 0.154758 0.818804 -0.081852
C66   C     C_R   0.337493 0.845242 0.181197 -0.081850
C67   C     C_R   0.832772 0.654915 0.181381 -0.104008
C68   C     C_R   0.693366 0.189927 0.882637 0.808380
C69   C     C_R   0.167228 0.345085 0.818619 -0.104008
C70   C     C_R   0.162507 0.654758 0.818803 -0.081851
C71   C     C_R   0.837493 0.345242 0.181197 -0.081851
C72   C     C_R   0.395109 0.161020 0.258485 -0.202884
C73   C     C_R   0.604891 0.838980 0.741515 -0.202885
C74   C     C_R   0.600509 0.144164 0.777091 -0.196988
C75   C     C_R   0.399491 0.855836 0.222909 -0.196989
C76   C     C_R   0.895109 0.661020 0.258485 -0.202884
C77   C     C_R   0.104891 0.338980 0.741515 -0.202885
C78   C     C_R   0.100509 0.644164 0.777091 -0.196988
C79   C     C_R   0.306634 0.810073 0.117363 0.808380
C80   C     C_R   0.899490 0.355836 0.222909 -0.196988
C81   C     C_R   0.426868 0.127786 0.318253 -0.181494
C82   C     C_R   0.573132 0.872214 0.681747 -0.181493
C83   C     C_R   0.565359 0.115589 0.707681 -0.186748
C84   C     C_R   0.434641 0.884411 0.292319 -0.186748
C85   C     C_R   0.926868 0.627786 0.318253 -0.181493
C86   C     C_R   0.073132 0.372214 0.681747 -0.181493
C87   C     C_R   0.065359 0.615589 0.707681 -0.186748
C88   C     C_R   0.934641 0.384411 0.292319 -0.186748
C89   C     C_R   0.397676 0.087214 0.303293 -0.097756
C90   C     C_R   0.806162 0.689915 0.117592 0.803342
C91   C     C_R   0.602324 0.912786 0.696706 -0.097756
C92   C     C_R   0.588769 0.101616 0.672318 -0.127587
C93   C     C_R   0.411231 0.898383 0.327682 -0.127587
C94   C     C_R   0.897676 0.587214 0.303293 -0.097756
C95   C     C_R   0.102324 0.412786 0.696706 -0.097755
C96   C     C_R   0.088769 0.601616 0.672318 -0.127587
C97   C     C_R   0.911231 0.398383 0.327682 -0.127587
C98   C     C_R   0.944093 0.435230 0.389472 0.818516
C99   C     C_R   0.055906 0.564770 0.610528 0.818515
C100  C     C_R   0.064820 0.445092 0.628005 0.820988
C101  C     C_R   0.193838 0.310084 0.882408 0.803342
C102  C     C_R   0.935179 0.554908 0.371995 0.820988
C103  C     C_R   0.444093 0.935230 0.389472 0.818516
C104  C     C_R   0.555906 0.064770 0.610528 0.818515
C105  C     C_R   0.564820 0.945092 0.628005 0.820987
C106  C     C_R   0.435179 0.054908 0.371995 0.820988
C107  C     C_R   0.335288 0.249651 0.001346 0.796900
C108  C     C_R   0.664712 0.750349 0.998653 0.796900
C109  C     C_R   0.665037 0.249629 0.999147 0.786234
C110  C     C_R   0.334963 0.750371 0.000853 0.786234
C111  C     C_R   0.835288 0.749651 0.001346 0.796899
C112  C     C_R   0.193366 0.689927 0.882637 0.808380
C113  C     C_R   0.164712 0.250349 0.998653 0.796899
C114  C     C_R   0.165037 0.749629 0.999147 0.786232
C115  C     C_R   0.834963 0.250371 0.000853 0.786234
C116  C     C_1   0.386870 0.250166 0.001935 -0.188035
C117  C     C_1   0.613130 0.749834 0.998065 -0.188034
C118  C     C_1   0.613749 0.249904 0.999145 -0.197165
C119  C     C_1   0.386250 0.750096 0.000855 -0.197166
C120  C     C_1   0.886870 0.750166 0.001935 -0.188035
C121  C     C_1   0.113130 0.249834 0.998065 -0.188034
C122  C     C_1   0.113750 0.749904 0.999145 -0.197164
C123  C     C_R   0.806634 0.310073 0.117363 0.808381
C124  C     C_1   0.886250 0.250096 0.000855 -0.197167
C125  C     C_1   0.429266 0.250363 0.001716 0.002270
C126  C     C_1   0.570733 0.749637 0.998284 0.002270
C127  C     C_1   0.571497 0.250132 0.999638 0.002073
C128  C     C_1   0.428503 0.749868 0.000362 0.002073
C129  C     C_1   0.929266 0.750363 0.001716 0.002270
C130  C     C_1   0.070733 0.249637 0.998284 0.002270
C131  C     C_1   0.071497 0.750132 0.999638 0.002074
C132  C     C_1   0.928503 0.249868 0.000362 0.002073
C133  C     C_1   0.479333 0.250401 0.001078 0.002362
C134  C     C_R   0.333201 0.079667 0.226076 0.009111
C135  C     C_1   0.520667 0.749599 0.998922 0.002362
C136  C     C_1   0.521508 0.250324 0.000421 0.001906
C137  C     C_1   0.478492 0.749676 0.999579 0.001906
C138  C     C_1   0.979333 0.750401 0.001078 0.002362
C139  C     C_1   0.020667 0.249599 0.998922 0.002362
C140  C     C_1   0.021508 0.750324 0.000421 0.001906
C141  C     C_1   0.978492 0.249676 0.999579 0.001906
C142  C     C_R   0.234627 0.107465 0.090745 0.179641
C143  C     C_R   0.765373 0.892535 0.909255 0.179641
C144  C     C_R   0.754780 0.138541 0.836448 0.137316
Cu1   Cu    Cu3+1 0.280720 0.280980 0.061500 0.947694
Cu2   Cu    Cu3+1 0.957580 0.500000 0.500070 0.999563
Cu3   Cu    Cu3+1 0.542420 1.000000 0.499930 0.999563
Cu4   Cu    Cu3+1 0.457580 0.000000 0.500070 0.999563
Cu5   Cu    Cu3+1 0.719280 0.719020 0.938500 0.947694
Cu6   Cu    Cu3+1 0.719280 0.280980 0.938500 0.958507
Cu7   Cu    Cu3+1 0.280720 0.719020 0.061500 0.958507
Cu8   Cu    Cu3+1 0.780720 0.780980 0.061500 0.947694
Cu9   Cu    Cu3+1 0.219280 0.219020 0.938500 0.947694
Cu10  Cu    Cu3+1 0.219280 0.780980 0.938500 0.958506
Cu11  Cu    Cu3+1 0.780720 0.219020 0.061500 0.958506
Cu12  Cu    Cu3+1 0.042420 0.500000 0.499930 0.999563
H1    H     H_    0.420387 0.191505 0.271873 0.164552
H2    H     H_    0.837418 0.941633 0.994904 0.146230
H3    H     H_    0.824306 0.136496 0.828487 0.151171
H4    H     H_    0.175694 0.863506 0.171513 0.151171
H5    H     H_    0.662582 0.558367 0.005096 0.146230
H6    H     H_    0.337418 0.441633 0.994904 0.146230
H7    H     H_    0.324306 0.636495 0.828486 0.151171
H8    H     H_    0.675694 0.363505 0.171514 0.151171
H9    H     H_    0.219999 0.998285 0.104414 0.151252
H10   H     H_    0.780001 0.001714 0.895586 0.151251
H11   H     H_    0.747124 0.126414 0.673851 0.149960
H12   H     H_    0.579613 0.808495 0.728127 0.164552
H13   H     H_    0.252875 0.873588 0.326148 0.149960
H14   H     H_    0.720000 0.498285 0.104414 0.151252
H15   H     H_    0.280000 0.501715 0.895586 0.151251
H16   H     H_    0.247124 0.626413 0.673851 0.149960
H17   H     H_    0.752876 0.373587 0.326149 0.149960
H18   H     H_    0.474886 0.134093 0.377413 0.174920
H19   H     H_    0.525114 0.865907 0.622587 0.174921
H20   H     H_    0.519555 0.104613 0.681300 0.165018
H21   H     H_    0.480445 0.895387 0.318700 0.165017
H22   H     H_    0.974886 0.634094 0.377413 0.174920
H23   H     H_    0.579927 0.157166 0.799872 0.138972
H24   H     H_    0.025114 0.365906 0.622587 0.174920
H25   H     H_    0.019555 0.604613 0.681300 0.165018
H26   H     H_    0.980445 0.395387 0.318700 0.165018
H27   H     H_    0.148483 0.132907 0.047677 0.214321
H28   H     H_    0.205569 0.174301 0.085754 0.207163
H29   H     H_    0.163049 0.146978 0.982173 0.257319
H30   H     H_    0.851516 0.867093 0.952323 0.214320
H31   H     H_    0.836951 0.853022 0.017827 0.257319
H32   H     H_    0.794431 0.825699 0.914245 0.207162
H33   H     H_    0.840149 0.109340 0.950459 0.219024
H34   H     H_    0.420073 0.842834 0.200128 0.138973
H35   H     H_    0.829000 0.165797 0.961585 0.239350
H36   H     H_    0.784551 0.120919 0.956923 0.251178
H37   H     H_    0.159849 0.890658 0.049539 0.219025
H38   H     H_    0.215449 0.879082 0.043078 0.251177
H39   H     H_    0.171003 0.834202 0.038415 0.239352
H40   H     H_    0.648483 0.632906 0.047676 0.214319
H41   H     H_    0.705569 0.674301 0.085754 0.207162
H42   H     H_    0.663049 0.646977 0.982172 0.257319
H43   H     H_    0.351517 0.367094 0.952324 0.214320
H44   H     H_    0.336951 0.353022 0.017828 0.257319
H45   H     H_    0.920386 0.691505 0.271873 0.164552
H46   H     H_    0.294431 0.325699 0.914246 0.207163
H47   H     H_    0.340149 0.609341 0.950459 0.219025
H48   H     H_    0.328999 0.665797 0.961584 0.239352
H49   H     H_    0.284552 0.620919 0.956923 0.251179
H50   H     H_    0.659851 0.390659 0.049540 0.219025
H51   H     H_    0.715448 0.379081 0.043077 0.251178
H52   H     H_    0.671000 0.334203 0.038415 0.239352
H53   H     H_    0.079614 0.308495 0.728127 0.164552
H54   H     H_    0.079927 0.657166 0.799872 0.138972
H55   H     H_    0.920073 0.342834 0.200128 0.138972
H56   H     H_    0.162582 0.058367 0.005096 0.146230
N1    N     N_1   0.307867 0.991561 0.312561 -0.249817
N2    N     N_1   0.692132 0.008438 0.687439 -0.249817
N3    N     N_1   0.591407 0.115095 0.496813 -0.297750
N4    N     N_1   0.408593 0.884905 0.503187 -0.297750
N5    N     N_1   0.807867 0.491561 0.312561 -0.249817
N6    N     N_1   0.192132 0.508438 0.687439 -0.249817
N7    N     N_1   0.091407 0.615095 0.496813 -0.297750
N8    N     N_1   0.908593 0.384905 0.503187 -0.297750
O1    O     O_R   0.321010 0.231060 0.142100 -0.580513
O2    O     O_R   0.730960 0.821350 0.961860 -0.569981
O3    O     O_R   0.730960 0.178650 0.961860 -0.585155
O4    O     O_R   0.269040 0.821350 0.038140 -0.585154
O5    O     O_R   0.769040 0.678650 0.038140 -0.569981
O6    O     O_R   0.230960 0.321350 0.961860 -0.569981
O7    O     O_R   0.230960 0.678650 0.961860 -0.585154
O8    O     O_R   0.769040 0.321350 0.038140 -0.585154
O9    O     O_R   0.337910 0.276140 0.051940 -0.575876
O10   O     O_R   0.662090 0.723860 0.948060 -0.575876
O11   O     O_R   0.662090 0.276140 0.948060 -0.569125
O12   O     O_R   0.678990 0.768940 0.857900 -0.580513
O13   O     O_R   0.337910 0.723860 0.051940 -0.569124
O14   O     O_R   0.837910 0.776140 0.051940 -0.575875
O15   O     O_R   0.162090 0.223860 0.948060 -0.575875
O16   O     O_R   0.162090 0.776140 0.948060 -0.569126
O17   O     O_R   0.837910 0.223860 0.051940 -0.569125
O18   O     O_R   0.285940 0.223740 0.947980 -0.557831
O19   O     O_R   0.714060 0.776260 0.052020 -0.557831
O20   O     O_R   0.714060 0.223740 0.052020 -0.555811
O21   O     O_R   0.285940 0.776260 0.947980 -0.555811
O22   O     O_R   0.785940 0.723740 0.947980 -0.557831
O23   O     O_R   0.678990 0.231060 0.857900 -0.568203
O24   O     O_R   0.214060 0.276260 0.052020 -0.557831
O25   O     O_R   0.214060 0.723740 0.052020 -0.555811
O26   O     O_R   0.785940 0.276260 0.947980 -0.555811
O27   O     O_R   0.990910 0.454660 0.410130 -0.593771
O28   O     O_R   0.009090 0.545340 0.589870 -0.593770
O29   O     O_R   0.009090 0.454660 0.589870 -0.566331
O30   O     O_R   0.990910 0.545340 0.410130 -0.566331
O31   O     O_R   0.490910 0.954660 0.410130 -0.593771
O32   O     O_R   0.509090 0.045340 0.589870 -0.593770
O33   O     O_R   0.509090 0.954660 0.589870 -0.566331
O34   O     O_R   0.321010 0.768940 0.142100 -0.568203
O35   O     O_R   0.490910 0.045340 0.410130 -0.566331
O36   O     O_R   0.919170 0.454670 0.410130 -0.568004
O37   O     O_R   0.080830 0.545330 0.589870 -0.568005
O38   O     O_R   0.080830 0.454670 0.589870 -0.583456
O39   O     O_R   0.919170 0.545330 0.410130 -0.583456
O40   O     O_R   0.419170 0.954670 0.410130 -0.568004
O41   O     O_R   0.580830 0.045330 0.589870 -0.568004
O42   O     O_R   0.580830 0.954670 0.589870 -0.583456
O43   O     O_R   0.419170 0.045330 0.410130 -0.583456
O44   O     O_R   0.821010 0.731060 0.142100 -0.580513
O45   O     O_R   0.178990 0.268940 0.857900 -0.580513
O46   O     O_R   0.178990 0.731060 0.857900 -0.568203
O47   O     O_R   0.821010 0.268940 0.142100 -0.568203
O48   O     O_R   0.269040 0.178650 0.038140 -0.569981

loop_
_geom_bond_atom_site_label_1
_geom_bond_atom_site_label_2
_ccdc_geom_bond_type
C61   C70   A    
C78   C87   A    
C37   H33   S    
C104  O32   A    
C37   C144  S    
Cu8   O2    S    
C70   C78   A    
Cu5   O5    S    
C103  O40   A    
C91   C105  S    
C90   O5    A    
Cu11  O3    S    
Cu3   Cu4   S    
Cu10  O4    S    
C105  O33   A    
C74   C83   A    
C47   N4    T    
C93   C103  S    
C98   O36   A    
C97   C98   S    
C9    C143  A    
C79   O4    A    
C109  C118  S    
C108  O10   A    
C16   H8    S    
Cu6   O23   S    
C66   C79   S    
C1    O48   A    
Cu9   O15   S    
C126  C135  S    
Cu9   O18   S    
C29   C47   S    
C44   N2    T    
Cu5   O10   S    
C9    H2    S    
C6    C61   A    
C30   C48   S    
C36   C143  S    
Cu4   O40   S    
C52   C61   A    
Cu12  O30   S    
C75   C84   A    
Cu7   Cu10  S    
C114  O25   A    
Cu1   O1    S    
C54   C63   A    
C99   O37   A    
C68   O23   A    
C21   H14   S    
Cu7   O13   S    
C96   C99   S    
Cu2   O28   S    
C50   N7    T    
C16   C25   A    
C111  O14   A    
C102  O39   A    
C124  C132  T    
C35   C59   A    
C85   C94   A    
C7    C42   S    
C8    H56   S    
C18   H10   S    
C24   C29   A    
C32   C52   A    
C1    O1    A    
Cu1   O9    S    
C131  C140  S    
C59   C67   A    
C12   H5    S    
C69   C77   A    
C27   C44   S    
C58   C66   A    
C1    C63   S    
C129  C138  S    
C3    C38   S    
C85   H22   S    
C31   C46   A    
C89   C106  S    
C11   H4    S    
C133  C136  T    
C64   C73   A    
C4    C39   S    
C13   C28   A    
C34   H28   S    
C2    C27   A    
C115  C124  S    
C46   C95   A    
Cu3   O41   S    
C90   O44   A    
C117  C126  T    
C121  C130  T    
C21   C30   A    
C72   C81   A    
C110  O13   A    
C77   H53   S    
C78   H54   S    
C20   C29   A    
C13   C56   A    
C81   C89   A    
C119  C128  T    
Cu8   O44   S    
C15   C23   A    
C20   H13   S    
C6    C15   A    
Cu10  O21   S    
Cu4   O33   S    
C112  O7    A    
C74   H23   S    
C83   H20   S    
C55   C64   A    
C41   H49   S    
Cu2   O39   S    
C62   C71   A    
C19   H11   S    
C31   C49   S    
C73   H12   S    
C130  C139  S    
C106  O35   A    
C87   H25   S    
C71   C80   A    
C63   C72   A    
C26   C43   S    
C71   C123  S    
Cu12  O38   S    
C57   O2    A    
C33   C53   A    
C11   C20   A    
C107  O18   A    
C100  O38   A    
C28   C45   S    
Cu4   O32   S    
Cu6   O8    S    
C22   C31   A    
C23   H16   S    
Cu2   O29   S    
C120  C129  T    
C34   H27   S    
C75   H34   S    
C55   C143  A    
C127  C136  S    
C95   C100  S    
C100  O29   A    
Cu5   Cu8   S    
C115  O17   A    
C57   O12   A    
C76   H45   S    
Cu5   O22   S    
C114  O16   A    
C123  O8    A    
C40   H44   S    
C53   C97   A    
C15   H7    S    
C12   C21   A    
C6    C41   S    
C67   C90   S    
C82   C91   A    
C38   H38   S    
Cu1   O24   S    
C101  O6    A    
C36   H32   S    
C56   C144  A    
C14   H6    S    
C34   H29   S    
Cu9   O45   S    
C128  C137  S    
C7    C62   A    
Cu7   O25   S    
C26   C134  A    
C123  O47   A    
C53   C62   A    
C88   H26   S    
C108  O19   A    
C10   C19   A    
C113  O24   A    
Cu3   O31   S    
C87   C96   A    
Cu9   O48   S    
C25   C33   A    
C86   H24   S    
C48   N5    T    
Cu2   Cu12  S    
C42   H51   S    
C10   C144  A    
C139  C141  T    
C41   H48   S    
C42   H52   S    
C19   C28   A    
C38   H39   S    
C32   C50   S    
C5    C14   A    
C138  C140  T    
C80   H55   S    
C30   C35   A    
C24   C58   A    
C7    C16   A    
C54   C142  A    
C39   H42   S    
C40   H46   S    
C77   C86   A    
C111  O22   A    
Cu6   Cu11  S    
C107  O9    A    
C13   C92   A    
C68   O3    A    
C41   H47   S    
C118  C127  T    
C17   C26   A    
C46   C60   A    
C2    C91   A    
C43   N1    T    
C112  O46   A    
C73   C82   A    
C57   C64   S    
Cu12  O37   S    
Cu6   O11   S    
C109  O20   A    
C125  C133  S    
C132  C141  S    
C135  C137  T    
C101  O45   A    
C34   C142  S    
C89   C134  A    
C65   C74   A    
C5    C60   A    
Cu2   O36   S    
C102  O30   A    
Cu5   O12   S    
C108  C117  S    
C18   C27   A    
C22   H15   S    
Cu10  O46   S    
Cu12  O27   S    
C110  C119  S    
Cu11  O20   S    
C40   H43   S    
C69   C101  S    
C51   N8    T    
C105  O42   A    
Cu1   O6    S    
C39   H40   S    
C8    C17   A    
C38   H37   S    
C42   H50   S    
C49   N6    T    
C116  C125  T    
C36   H31   S    
C103  O31   A    
C81   H18   S    
C115  O26   A    
C88   C97   A    
Cu1   Cu9   S    
C98   O27   A    
C80   C88   A    
C17   H9    S    
C24   C93   A    
C23   C32   A    
Cu3   O42   S    
C109  O11   A    
C110  O21   A    
C14   C22   A    
C122  C131  T    
C33   C51   S    
Cu8   O19   S    
C60   C69   A    
Cu6   O26   S    
C66   C75   A    
C10   H3    S    
C4    C59   A    
Cu3   O35   S    
C106  O43   A    
C45   N3    T    
C79   O34   A    
C2    C55   A    
C52   C96   A    
C72   H1    S    
C36   H30   S    
C84   C93   A    
Cu4   O43   S    
C39   H41   S    
C84   H21   S    
C70   C112  S    
Cu11  O47   S    
C107  C116  S    
C3    C11   A    
C86   C95   A    
C92   C104  S    
C114  C122  S    
C3    C58   A    
C25   H17   S    
C9    C18   A    
C37   H36   S    
C113  C121  S    
C82   H19   S    
C94   C102  S    
C83   C92   A    
Cu7   O7    S    
C104  O41   A    
C5    C40   S    
Cu10  O16   S    
Cu11  O17   S    
C111  C120  S    
C8    C142  A    
C67   C76   A    
Cu7   O34   S    
C65   C68   S    
Cu8   O14   S    
C99   O28   A    
C4    C12   A    
C35   C94   A    
C76   C85   A    
C37   H35   S    
C56   C65   A    
C113  O15   A    
C54   C134  A    
