data_mof_unit_47267.cif
_audit_creation_date              2012-12-11T15:39:12-0500
_audit_creation_method            fapswitch 2.2
_symmetry_space_group_name_H-M    P1
_symmetry_Int_Tables_number       1
_space_group_crystal_system       triclinic
_cell_length_a                    14.288638
_cell_length_b                    14.809129
_cell_length_c                    33.281172
_cell_angle_alpha                 97.953384
_cell_angle_beta                  90.474442
_cell_angle_gamma                 118.717753
_cell_volume                      6094.02926534

loop_
_atom_site_label
_atom_site_type_symbol
_atom_type_description
_atom_site_fract_x
_atom_site_fract_y
_atom_site_fract_z
_atom_type_partial_charge
C1    C     C_R   0.617142 0.909718 0.436893 0.569867
C2    C     C_R   0.736570 0.402919 0.184285 0.021701
C3    C     C_R   0.723696 0.891735 0.654096 0.073180
C4    C     C_R   0.639633 0.796266 0.661615 -0.025465
C5    C     C_R   0.634637 0.862660 0.586754 0.009271
C6    C     C_R   0.052485 0.781482 0.063844 0.566529
C7    C     C_R   0.744161 0.486444 0.066160 0.581264
C8    C     C_R   0.742646 0.789571 0.066291 0.568053
C9    C     C_R   0.022404 0.732430 0.947686 0.563941
C10   C     C_R   0.711870 0.436647 0.949301 0.585474
C11   C     C_R   0.710535 0.738885 0.950003 0.553102
C12   C     C_R   0.829547 0.434242 0.164029 -0.083464
C13   C     C_R   0.830641 0.455353 0.124579 0.316455
C14   C     C_R   0.735662 0.303238 0.238796 0.043667
C15   C     C_R   0.728036 0.290433 0.280053 0.101008
C16   C     C_R   0.726562 0.368415 0.309216 0.113304
C17   C     C_R   0.737753 0.460677 0.297753 0.117072
C18   C     C_R   0.744762 0.472597 0.256790 0.381335
C19   C     C_R   0.741000 0.393220 0.227381 0.054838
C20   C     C_R   0.596080 0.320047 0.361809 0.058943
C21   C     C_R   0.593795 0.205195 0.456450 0.600257
C22   C     C_R   0.564101 0.281447 0.398257 0.318250
C23   C     C_R   0.740723 0.301665 0.413085 0.349567
C24   C     C_R   0.772768 0.340945 0.376946 0.416946
C25   C     C_R   0.699712 0.346789 0.350610 0.020760
C26   C     C_R   0.634546 0.267255 0.423264 -0.048198
C27   C     C_R   0.240878 0.876379 0.393362 0.032142
C28   C     C_R   0.226576 0.956718 0.380312 0.035804
C29   C     C_R   0.205410 0.952871 0.338700 -0.142916
C30   C     C_R   0.195359 0.869753 0.310177 -0.010744
C31   C     C_R   0.197321 0.784179 0.322982 0.122919
C32   C     C_R   0.294416 0.892327 0.434420 0.576807
C33   C     C_R   0.219111 0.787397 0.364660 0.376200
C34   C     C_R   0.192301 0.802305 0.163099 -0.139556
C35   C     C_R   0.163902 0.781168 0.121438 -0.150543
C36   C     C_R   0.103022 0.909516 0.129087 0.385570
C37   C     C_R   0.132130 0.931395 0.171394 0.139112
C38   C     C_R   0.171967 0.873296 0.188314 0.003688
C39   C     C_1   0.181821 0.876989 0.231612 0.040349
C40   C     C_1   0.187499 0.874889 0.267527 0.038872
C41   C     C_R   0.113290 0.829838 0.104283 0.013325
C42   C     C_R   0.638467 0.877228 0.395025 0.062270
C43   C     C_R   0.614432 0.905033 0.551631 0.571551
C44   C     C_R   0.552765 0.801072 0.366713 0.040404
C45   C     C_R   0.566891 0.794406 0.325020 -0.128094
C46   C     C_R   0.664704 0.859643 0.311134 0.036136
C47   C     C_R   0.753576 0.926561 0.338728 0.107089
C48   C     C_R   0.741235 0.934613 0.380942 0.080494
C49   C     C_R   0.778074 0.928302 0.173764 0.046417
C50   C     C_R   0.791893 0.911453 0.132176 -0.163145
C51   C     C_R   0.617316 0.755903 0.121415 0.412944
C52   C     C_R   0.603383 0.772065 0.162672 0.409212
C53   C     C_R   0.685235 0.855139 0.189095 0.002185
C54   C     C_R   0.589873 0.199676 0.570978 0.572288
C55   C     C_1   0.677585 0.858772 0.232173 0.102487
C56   C     C_1   0.671933 0.859221 0.268164 0.074277
C57   C     C_R   0.714348 0.822406 0.106202 -0.061253
C58   C     C_R   0.622645 0.249082 0.614174 -0.044447
C59   C     C_R   0.563821 0.290153 0.636174 0.382682
C60   C     C_R   0.577841 0.312137 0.679054 0.075624
C61   C     C_R   0.651351 0.292882 0.699588 0.014072
C62   C     C_R   0.715754 0.260211 0.677634 0.353920
C63   C     C_R   0.702003 0.239232 0.635270 -0.160624
C64   C     C_R   0.759523 0.339214 0.845074 0.414148
C65   C     C_R   0.289419 0.887232 0.548685 0.561592
C66   C     C_R   0.771106 0.367331 0.887361 0.334171
C67   C     C_R   0.588324 0.337691 0.885896 0.361146
C68   C     C_R   0.577515 0.309702 0.843606 -0.150459
C69   C     C_R   0.664483 0.315074 0.823079 -0.091006
C70   C     C_1   0.659426 0.305289 0.779536 0.087663
C71   C     C_1   0.656321 0.300083 0.743140 0.116346
C72   C     C_R   0.687794 0.373520 0.908056 -0.030845
C73   C     C_R   0.071576 0.755549 0.909229 0.038837
C74   C     C_R   0.120755 0.857847 0.899966 0.093660
C75   C     C_R   0.146136 0.873752 0.859738 0.097193
C76   C     C_R   0.737717 0.445559 0.104731 0.007861
C77   C     C_R   0.122094 0.787406 0.829545 0.056257
C78   C     C_R   0.080568 0.687598 0.839820 -0.115525
C79   C     C_R   0.056076 0.671839 0.879364 -0.145261
C80   C     C_R   0.198222 0.770118 0.763306 0.103899
C81   C     C_R   0.201410 0.778050 0.721878 -0.151424
C82   C     C_R   0.140298 0.815002 0.703725 0.045391
C83   C     C_R   0.074497 0.843379 0.726945 0.448709
C84   C     C_R   0.070077 0.834806 0.768071 -0.073634
C85   C     C_R   0.131903 0.798868 0.786454 0.026031
C86   C     C_R   0.195535 0.929619 0.650794 0.421148
C87   C     C_R   0.641943 0.407143 0.124338 0.352486
C88   C     C_R   0.231697 0.946653 0.612393 -0.156044
C89   C     C_R   0.172803 0.761873 0.593181 0.389172
C90   C     C_R   0.136670 0.745048 0.631552 -0.141566
C91   C     C_R   0.152273 0.829286 0.661047 -0.000771
C92   C     C_R   0.226002 0.864004 0.584106 -0.043312
C93   C     C_R   0.662426 0.739661 0.910887 0.025073
C94   C     C_R   0.598582 0.645535 0.884156 0.383149
C95   C     C_R   0.578431 0.647384 0.843282 -0.043345
C96   C     C_R   0.619927 0.742677 0.828930 -0.010117
C97   C     C_R   0.674674 0.836446 0.856203 -0.130270
C98   C     C_R   0.641080 0.386009 0.164269 0.152044
C99   C     C_R   0.696342 0.834994 0.896907 -0.171950
C100  C     C_R   0.564887 0.793436 0.769132 -0.143664
C101  C     C_R   0.570710 0.806700 0.728553 -0.129347
C102  C     C_R   0.629510 0.772818 0.703369 0.046951
C103  C     C_R   0.681266 0.722655 0.718745 0.137488
C104  C     C_R   0.675001 0.708917 0.759841 0.159010
C105  C     C_R   0.617117 0.745317 0.785044 0.042983
C106  C     C_R   0.558662 0.729767 0.630692 0.085735
C107  C     C_R   0.557492 0.762191 0.593435 0.405121
C108  C     C_R   0.721910 0.925206 0.616462 0.033701
Cr1   Cr    Cr6+3 0.424820 0.846020 0.489780 1.182394
Cr2   Cr    Cr6+3 0.657880 0.078580 0.505700 1.121653
Cr3   Cr    Cr6+3 0.417280 0.075360 0.504550 1.122175
Cr4   Cr    Cr6+3 0.903360 0.812540 0.006510 1.103028
Cr5   Cr    Cr6+3 0.914630 0.587050 0.006280 1.152950
Cr6   Cr    Cr6+3 0.673560 0.582680 0.008540 1.214916
H1    H     H_    0.902630 0.446162 0.179470 0.167133
H2    H     H_    0.174257 0.720671 0.103136 0.193226
H3    H     H_    0.224253 0.758380 0.175993 0.172210
H4    H     H_    0.199870 0.016547 0.328335 0.137775
H5    H     H_    0.866337 0.963970 0.120803 0.210758
H6    H     H_    0.500151 0.740247 0.303109 0.149940
H7    H     H_    0.748948 0.208720 0.619165 0.177757
H8    H     H_    0.502948 0.289068 0.826705 0.185687
H9    H     H_    0.018187 0.592792 0.885877 0.211985
H10   H     H_    0.102292 0.667133 0.639136 0.166403
H11   H     H_    0.253588 0.757900 0.703882 0.119792
H12   H     H_    0.017794 0.855581 0.785676 0.145167
H13   H     H_    0.271890 0.025925 0.606115 0.191982
H14   H     H_    0.061918 0.620868 0.816663 0.187405
H15   H     H_    0.745182 0.908369 0.916889 0.157808
H16   H     H_    0.531179 0.845649 0.716865 0.127216
H17   H     H_    0.521357 0.822579 0.788440 0.123688
H18   H     H_    0.535307 0.574538 0.822372 0.156807
H19   H     H_    0.706847 0.910630 0.845409 0.155196
O1    O     O_R   0.318160 0.824460 0.443680 -0.414749
O2    O     O_R   0.645130 0.163230 0.552140 -0.513568
O3    O     O_R   0.498360 0.178430 0.555780 -0.429973
O4    O     O_R   0.328690 0.978040 0.538950 -0.527536
O5    O     O_3   0.499990 0.999990 0.500010 -0.318889
O6    O     O_R   0.828710 0.851830 0.052170 -0.489907
O7    O     O_R   0.005980 0.823990 0.047210 -0.429888
O8    O     O_R   0.031900 0.688850 0.050170 -0.488306
O9    O     O_R   0.830940 0.518420 0.048680 -0.446454
O10   O     O_R   0.668160 0.499860 0.053480 -0.425145
O11   O     O_R   0.689170 0.693840 0.050110 -0.435585
O12   O     O_R   0.525040 0.857250 0.449830 -0.478947
O13   O     O_R   0.803860 0.812940 0.962540 -0.527510
O14   O     O_R   0.982950 0.787950 0.964120 -0.473589
O15   O     O_R   0.007050 0.649970 0.960540 -0.487080
O16   O     O_R   0.807910 0.482370 0.965590 -0.456056
O17   O     O_R   0.643310 0.460980 0.963840 -0.405942
O18   O     O_R   0.666140 0.657800 0.967020 -0.430556
O19   O     O_3   0.830520 0.660760 0.007110 -0.322143
O20   O     O_R   0.684760 0.998800 0.456360 -0.460084
O21   O     O_R   0.647540 0.166310 0.470260 -0.447944
O22   O     O_R   0.500960 0.181750 0.467450 -0.420047
O23   O     O_R   0.331100 0.981120 0.457080 -0.480295
O24   O     O_R   0.315560 0.821140 0.532010 -0.403732
O25   O     O_R   0.522630 0.854180 0.531710 -0.441603
O26   O     O_R   0.682160 0.995480 0.544690 -0.479150
F1    F     F_    0.550319 0.392734 0.105159 -0.573701
F2    F     F_    0.461852 0.251397 0.407435 -0.594285
F3    F     F_    0.812489 0.293257 0.437133 -0.548057
N1    N     N_3   0.181368 0.696671 0.293188 -0.592562
H20   H     H_    0.193224 0.642727 0.306528 0.296352
H21   H     H_    0.101267 0.658443 0.281372 0.243758
F4    F     F_    0.222621 0.705201 0.376886 -0.597600
N2    N     N_3   0.236727 0.043578 0.409041 -0.513664
H22   H     H_    0.230230 0.098258 0.394123 0.262646
H23   H     H_    0.171873 0.014887 0.426898 0.226178
N3    N     N_3   0.115892 0.007411 0.197701 -0.578329
H24   H     H_    0.084099 0.042673 0.181057 0.288055
H25   H     H_    0.191192 0.066670 0.210620 0.224915
F5    F     F_    0.057491 0.959994 0.112903 -0.632142
F6    F     F_    0.924578 0.490616 0.106930 -0.594232
N4    N     N_3   0.860458 0.015408 0.200920 -0.571806
H26   H     H_    0.923002 0.062561 0.184648 0.245356
H27   H     H_    0.827569 0.061294 0.213630 0.221561
N5    N     N_3   0.855029 0.988277 0.323490 -0.603850
H28   H     H_    0.879493 0.067166 0.333148 0.251706
H29   H     H_    0.911306 0.971066 0.335532 0.237902
N6    N     N_3   0.832154 0.002178 0.409536 -0.575878
H30   H     H_    0.889961 0.978329 0.405817 0.227242
H31   H     H_    0.864277 0.078417 0.403487 0.275377
N7    N     N_3   0.450255 0.733559 0.380009 -0.523026
H32   H     H_    0.460145 0.682071 0.395855 0.250814
H33   H     H_    0.394787 0.687532 0.355103 0.267950
F7    F     F_    0.512431 0.702858 0.177315 -0.566040
F8    F     F_    0.538350 0.671560 0.096967 -0.537567
F9    F     F_    0.866759 0.395794 0.907400 -0.570136
F10   F     F_    0.873548 0.368322 0.366527 -0.552032
F11   F     F_    0.843530 0.342040 0.825372 -0.550955
F12   F     F_    0.788040 0.243136 0.697298 -0.599989
F13   F     F_    0.490141 0.304768 0.616147 -0.595525
F14   F     F_    0.503688 0.336583 0.904513 -0.538847
N8    N     N_3   0.514928 0.349332 0.702114 -0.578860
H34   H     H_    0.458691 0.352910 0.683094 0.308728
H35   H     H_    0.566890 0.425871 0.716103 0.214142
N9    N     N_3   0.143044 0.944247 0.931299 -0.591647
H36   H     H_    0.225230 0.996574 0.934041 0.247589
H37   H     H_    0.102033 0.981985 0.922767 0.246319
N10   N     N_3   0.716812 0.196883 0.292474 -0.606406
H38   H     H_    0.783007 0.188400 0.284365 0.256402
H39   H     H_    0.647624 0.133060 0.277111 0.224901
N11   N     N_3   0.262815 0.734672 0.782137 -0.604571
H40   H     H_    0.320893 0.797917 0.802496 0.238390
H41   H     H_    0.304023 0.713062 0.760464 0.231953
N12   N     N_3   0.194564 0.976373 0.849007 -0.608988
H42   H     H_    0.144027 0.008171 0.855586 0.249304
H43   H     H_    0.267446 0.023029 0.866625 0.254712
F15   F     F_    0.014270 0.878512 0.709769 -0.600054
F16   F     F_    0.212681 0.012575 0.679102 -0.560975
F17   F     F_    0.161700 0.679251 0.566038 -0.549943
F18   F     F_    0.564084 0.551743 0.896405 -0.569925
N13   N     N_3   0.734414 0.224352 0.208096 -0.633197
H44   H     H_    0.799458 0.213639 0.215067 0.236521
H45   H     H_    0.663641 0.154461 0.208465 0.235410
N14   N     N_3   0.807750 0.956164 0.685733 -0.567757
H46   H     H_    0.808401 0.027306 0.693483 0.277056
H47   H     H_    0.881022 0.970080 0.674753 0.283070
N15   N     N_3   0.742189 0.687660 0.693505 -0.617797
H48   H     H_    0.802391 0.751716 0.682477 0.298762
H49   H     H_    0.691531 0.634261 0.668665 0.231718
N16   N     N_3   0.731396 0.662785 0.776697 -0.619997
H50   H     H_    0.812775 0.707305 0.772799 0.260203
H51   H     H_    0.703775 0.587912 0.760274 0.240746
N17   N     N_3   0.473536 0.630629 0.637166 -0.506410
H52   H     H_    0.507006 0.586210 0.645631 0.240940
H53   H     H_    0.432096 0.642950 0.661158 0.229351
F19   F     F_    0.476669 0.696494 0.564548 -0.547638
N18   N     N_3   0.545182 0.350307 0.185341 -0.546179
H54   H     H_    0.521473 0.273790 0.189501 0.218229
H55   H     H_    0.482440 0.347270 0.167828 0.308606
N19   N     N_3   0.806201 0.023769 0.608997 -0.576842
H56   H     H_    0.878793 0.022935 0.611062 0.256416
H57   H     H_    0.810062 0.082781 0.631302 0.261609
N20   N     N_3   0.738869 0.540736 0.327717 -0.586886
H58   H     H_    0.810377 0.609728 0.326924 0.265929
H59   H     H_    0.675473 0.552883 0.319519 0.274417
F20   F     F_    0.752020 0.560285 0.245418 -0.612004
N21   N     N_3   0.521214 0.326075 0.334840 -0.591607
H60   H     H_    0.495014 0.374806 0.350559 0.279477
H61   H     H_    0.455069 0.251468 0.327176 0.263220

loop_
_geom_bond_atom_site_label_1
_geom_bond_atom_site_label_2
_ccdc_geom_bond_type
C65   C92   S    
C21   C26   S    
C101  C102  A    
C33   F4    S    
N10   H38   S    
Cr4   O7    S    
C1    O12   A    
C95   C96   A    
Cr5   O19   S    
C100  C101  A    
C97   H19   S    
C55   C56   T    
C43   O25   A    
C78   H14   S    
C64   F11   S    
C7    O10   A    
N5    H28   S    
Cr2   O2    S    
C100  H17   S    
Cr5   O9    S    
N4    H27   S    
C80   N11   S    
C77   C78   A    
C87   F1    S    
C100  C105  A    
C80   C85   A    
C42   C44   A    
C8    O6    A    
C106  C107  A    
Cr5   O15   S    
C28   C29   A    
N1    H21   S    
C37   C38   A    
C67   C72   A    
C47   N5    S    
C43   O26   A    
C86   C91   A    
C10   O16   A    
C54   C58   S    
C48   N6    S    
N13   H45   S    
Cr3   O3    S    
C20   C25   A    
C15   C16   A    
C66   F9    S    
N6    H30   S    
C58   C63   A    
N7    H32   S    
C14   N13   S    
C34   C35   A    
C73   C74   A    
C23   C26   A    
C49   C50   A    
N15   H48   S    
C60   N8    S    
C51   F8    S    
C103  C104  A    
C28   N2    S    
C15   N10   S    
C98   N18   S    
C75   N12   S    
C84   C85   A    
C66   C72   A    
N1    H20   S    
Cr4   O13   S    
C16   C17   A    
C63   H7    S    
C6    C41   S    
C4    C102  S    
C21   O21   A    
C106  N17   S    
N9    H36   S    
C51   C57   A    
C52   F7    S    
Cr6   O19   S    
C67   F14   S    
N19   H56   S    
C44   N7    S    
C104  N16   S    
C61   C62   A    
C3    N14   S    
C103  N15   S    
C23   F3    S    
C65   O4    A    
C101  H16   S    
C11   C93   S    
C34   H3    S    
C53   C55   S    
C5    C43   S    
Cr1   O24   S    
C36   F5    S    
C32   O23   A    
N11   H40   S    
N10   H39   S    
Cr4   O6    S    
C36   C41   A    
C69   C70   S    
C9    C73   S    
Cr6   O18   S    
Cr1   O25   S    
N15   H49   S    
C104  C105  A    
C97   C99   A    
C81   C82   A    
C89   F17   S    
N12   H42   S    
N6    H31   S    
C84   H12   S    
C13   F6    S    
C31   N1    S    
C74   C75   A    
C99   H15   S    
C51   C52   A    
C83   F15   S    
C88   C92   A    
Cr2   O5    S    
C24   C25   A    
N16   H50   S    
N2    H23   S    
N20   H58   S    
C68   H8    S    
N2    H22   S    
C22   F2    S    
N13   H44   S    
C18   C19   A    
C62   F12   S    
N8    H34   S    
N14   H46   S    
C45   C46   A    
C79   H9    S    
C9    O14   A    
C59   F13   S    
C82   C91   S    
C67   C68   A    
Cr1   O5    S    
C6    O8    A    
Cr6   O11   S    
C1    O20   A    
C29   C30   A    
Cr2   O21   S    
Cr5   O16   S    
C8    C57   S    
C75   C77   A    
C47   C48   A    
C13   C76   A    
C30   C31   A    
C23   C24   A    
C54   O3    A    
C96   C97   A    
C31   C33   A    
C62   C63   A    
N21   H61   S    
C17   C18   A    
C21   O22   A    
C30   C40   S    
C35   H2    S    
C8    O11   A    
C93   C94   A    
C42   C48   A    
C64   C69   A    
C86   F16   S    
C89   C92   A    
N18   H55   S    
N19   H57   S    
C76   C87   A    
C2    C98   A    
C74   N9    S    
C45   H6    S    
C11   O18   A    
N11   H41   S    
N17   H52   S    
C94   C95   A    
N17   H53   S    
C107  F19   S    
C22   C26   A    
C95   H18   S    
C83   C84   A    
N14   H47   S    
Cr6   O17   S    
C3    C4    A    
C89   C90   A    
C46   C47   A    
C37   N3    S    
C70   C71   T    
C52   C53   A    
Cr3   O4    S    
C96   C105  S    
C2    C12   A    
C5    C107  A    
C17   N20   S    
C18   F20   S    
C16   C25   S    
C93   C99   A    
C108  N19   S    
C36   C37   A    
C94   F18   S    
C81   H11   S    
Cr1   O1    S    
C78   C79   A    
C50   C57   A    
C90   H10   S    
C14   C19   A    
C68   C69   A    
C87   C98   A    
Cr1   O12   S    
C44   C45   A    
C20   C22   A    
C80   C81   A    
C73   C79   A    
Cr4   O19   S    
N5    H29   S    
N16   H51   S    
C11   O13   A    
C7    C76   S    
C3    C108  A    
C88   H13   S    
C65   O24   A    
C29   H4    S    
C9    O15   A    
N7    H33   S    
Cr4   O14   S    
Cr6   O10   S    
C12   H1    S    
C58   C59   A    
N18   H54   S    
C24   F10   S    
Cr2   O20   S    
C20   N21   S    
C10   O17   A    
C32   O1    A    
C61   C71   S    
C90   C91   A    
C38   C39   S    
C4    C106  A    
C49   C53   A    
C54   O2    A    
N21   H60   S    
N20   H59   S    
N4    H26   S    
C86   C88   A    
Cr5   O8    S    
C6    O7    A    
C102  C103  A    
C35   C41   A    
C27   C33   A    
C27   C32   S    
C77   C85   S    
C50   H5    S    
C39   C40   T    
C1    C42   S    
C59   C60   A    
Cr3   O23   S    
C12   C13   A    
Cr3   O5    S    
C82   C83   A    
N3    H24   S    
C46   C56   S    
C27   C28   A    
N12   H43   S    
C14   C15   A    
C60   C61   A    
N9    H37   S    
N3    H25   S    
C34   C38   A    
Cr3   O22   S    
C5    C108  A    
C7    O9    A    
Cr2   O26   S    
C2    C19   S    
C64   C66   A    
N8    H35   S    
C49   N4    S    
C10   C72   S    
