data_mof_unit_55607.cif
_audit_creation_date              2012-12-11T15:54:06-0500
_audit_creation_method            fapswitch 2.2
_symmetry_space_group_name_H-M    P1
_symmetry_Int_Tables_number       1
_space_group_crystal_system       triclinic
_cell_length_a                    10.642941
_cell_length_b                    10.715112
_cell_length_c                    16.992162
_cell_angle_alpha                 80.630561
_cell_angle_beta                  99.521933
_cell_angle_gamma                 119.021684
_cell_volume                      1663.456093

loop_
_atom_site_label
_atom_site_type_symbol
_atom_type_description
_atom_site_fract_x
_atom_site_fract_y
_atom_site_fract_z
_atom_type_partial_charge
C1    C     C_R   0.385056 0.284835 0.632054 0.559045
C2    C     C_1   0.334010 0.186928 0.781648 -0.055044
C3    C     C_1   0.317569 0.682488 0.280331 -0.055844
C4    C     C_R   0.369240 0.654911 0.585991 0.539294
C5    C     C_1   0.296571 0.706697 0.209687 -0.049775
C6    C     C_R   0.869117 0.685070 0.168016 0.015389
C7    C     C_R   0.899654 0.588992 0.222799 0.009498
C8    C     C_R   0.890262 0.581535 0.302747 0.013663
C9    C     C_R   0.848595 0.788017 0.278680 -0.151023
C10   C     C_R   0.857094 0.793955 0.197019 -0.147045
C11   C     C_3   0.839966 0.431006 0.222255 -0.248443
C12   C     C_R   0.393618 0.830654 0.674256 -0.136062
C13   C     C_3   0.825275 0.420425 0.310706 -0.116467
C14   C     C_R   0.850308 0.671937 0.330515 0.007186
C15   C     C_R   0.306756 0.132200 0.168875 0.016568
C16   C     C_R   0.781623 0.621269 0.626088 0.544474
C17   C     C_R   0.190584 0.125343 0.200067 0.036081
C18   C     C_R   0.194009 0.133180 0.279445 0.025032
C19   C     C_R   0.421996 0.128423 0.304025 -0.166476
C20   C     C_R   0.417525 0.120406 0.222305 -0.169730
C21   C     C_3   0.110849 0.209418 0.173486 -0.269345
C22   C     C_3   0.114421 0.220301 0.261299 -0.268829
C23   C     C_R   0.376648 0.852569 0.749987 -0.151014
C24   C     C_R   0.316680 0.149729 0.331212 0.017063
C25   C     C_R   0.948030 0.725188 0.851793 0.539456
C26   C     C_R   0.281516 0.750838 0.882599 0.553237
C27   C     C_R   0.286778 0.118672 0.858429 0.538101
C28   C     C_R   0.349219 0.222764 0.401390 0.558763
C29   C     C_R   0.893240 0.693783 0.086192 0.553911
C30   C     C_R   0.284388 0.738866 0.125543 0.569519
C31   C     C_R   0.284229 0.104392 0.086605 0.543114
C32   C     C_R   0.361820 0.657019 0.361763 0.550780
C33   C     C_R   0.775907 0.624332 0.401525 0.547462
C34   C     C_3   0.126180 0.458326 0.792283 -0.245718
C35   C     C_R   0.279550 0.737540 0.798165 -0.002278
C36   C     C_R   0.179758 0.612790 0.762073 0.009793
C37   C     C_R   0.197011 0.590621 0.687536 0.011365
C38   C     C_3   0.920286 0.365695 0.367428 -0.260418
C39   C     C_3   0.840593 0.202767 0.383828 -0.444721
C40   C     C_3   0.145484 0.434164 0.710494 -0.251981
C41   C     C_R   0.314256 0.693021 0.646636 0.013555
C42   C     C_1   0.851539 0.669744 0.702554 -0.033646
C43   C     C_1   0.898682 0.704172 0.769335 -0.037500
C44   C     C_1   0.365459 0.233900 0.714446 -0.054829
Cr1   Cr    Cr6+3 0.608440 0.389080 0.519680 1.005984
Cr2   Cr    Cr6+3 0.288640 0.400090 0.490760 0.991192
Cr3   Cr    Cr6+3 0.602940 0.710800 0.489510 1.013180
Cr4   Cr    Cr6+3 0.052530 0.947560 0.964210 1.016997
Cr5   Cr    Cr6+3 0.059970 0.626800 0.992920 1.005925
Cr6   Cr    Cr6+3 0.373320 0.938440 0.995370 1.008188
H1    H     H_    0.479504 0.916782 0.641837 0.146716
H2    H     H_    0.447686 0.955193 0.773291 0.142582
H3    H     H_    0.011224 0.405503 0.804655 0.152201
H4    H     H_    0.200749 0.440403 0.841290 0.161558
H5    H     H_    0.231537 0.403243 0.712517 0.149855
H6    H     H_    0.041803 0.366947 0.675813 0.148430
H7    H     H_    0.824635 0.864149 0.299073 0.135650
H8    H     H_    0.847460 0.878765 0.156603 0.136087
H9    H     H_    0.921470 0.402949 0.208722 0.146592
H10   H     H_    0.748909 0.169965 0.419361 0.147616
H11   H     H_    0.798379 0.151643 0.326718 0.141460
H12   H     H_    0.734202 0.381488 0.185349 0.130518
H13   H     H_    0.915399 0.164574 0.418677 0.150360
H14   H     H_    0.022569 0.398770 0.341827 0.164899
H15   H     H_    0.948874 0.412886 0.425493 0.172630
H16   H     H_    0.710360 0.365547 0.323134 0.176053
H17   H     H_    0.513601 0.131431 0.343957 0.126541
H18   H     H_    0.501987 0.109697 0.201016 0.135555
H19   H     H_    0.000310 0.143774 0.144858 0.139081
H20   H     H_    0.176175 0.314080 0.139625 0.155378
H21   H     H_    0.180018 0.332770 0.276896 0.167129
H22   H     H_    0.005718 0.161279 0.283000 0.129315
O1    O     O_R   0.754020 0.497590 0.609930 -0.515196
O2    O     O_R   0.406180 0.826930 0.920660 -0.495603
O3    O     O_R   0.358620 0.062870 0.901950 -0.516245
O4    O     O_R   0.481420 0.271390 0.600630 -0.489998
O5    O     O_R   0.163910 0.085460 0.050210 -0.513862
O6    O     O_R   0.935200 0.815170 0.045770 -0.496909
O7    O     O_R   0.916120 0.596690 0.069430 -0.520322
O8    O     O_R   0.192310 0.631200 0.086170 -0.496104
O9    O     O_R   0.406770 0.819480 0.096420 -0.499495
O10   O     O_R   0.359170 0.055960 0.064880 -0.520846
O11   O     O_3   0.161940 0.837600 0.984160 -0.312012
O12   O     O_R   0.295080 0.533620 0.397890 -0.517187
O13   O     O_R   0.263810 0.254550 0.589590 -0.510945
O14   O     O_R   0.300820 0.531200 0.560890 -0.516503
O15   O     O_R   0.491480 0.744020 0.564270 -0.518941
O16   O     O_R   0.726290 0.693800 0.583010 -0.494322
O17   O     O_R   0.747830 0.500190 0.434090 -0.529260
O18   O     O_R   0.475680 0.273800 0.437630 -0.504503
O19   O     O_R   0.257620 0.257160 0.413750 -0.521849
O20   O     O_R   0.485280 0.746620 0.388440 -0.508007
O21   O     O_R   0.720550 0.696220 0.420010 -0.501338
O22   O     O_3   0.500010 0.499990 0.499980 -0.255958
O23   O     O_R   0.163320 0.092900 0.874450 -0.510271
O24   O     O_R   0.934650 0.822080 0.882840 -0.476009
O25   O     O_R   0.915520 0.604140 0.893670 -0.508246
O26   O     O_R   0.191760 0.638110 0.923230 -0.503904

loop_
_geom_bond_atom_site_label_1
_geom_bond_atom_site_label_2
_ccdc_geom_bond_type
C8    C13   S    
Cr4   O23   S    
Cr3   O20   S    
C27   O23   A    
C19   C20   A    
C11   H12   S    
C25   C43   S    
C14   C33   S    
C7    C8    A    
C4    O15   A    
C7    C11   S    
C12   C23   A    
C31   O10   A    
Cr1   O4    S    
C34   C40   S    
C36   C37   A    
C10   H8    S    
C37   C40   S    
Cr6   O2    S    
C38   C39   S    
C11   H9    S    
C25   O24   A    
C4    O14   A    
C4    C41   S    
Cr1   O1    S    
Cr4   O6    S    
Cr5   O26   S    
C29   O6    A    
C35   C36   A    
C2    C44   T    
C40   H6    S    
Cr2   O22   S    
C19   H17   S    
C2    C27   S    
Cr1   O17   S    
C9    C10   A    
C9    H7    S    
Cr2   O13   S    
C30   O8    A    
C21   C22   S    
C27   O3    A    
Cr1   O22   S    
C22   H22   S    
Cr6   O11   S    
C31   O5    A    
C38   H14   S    
C13   H16   S    
C1    O13   A    
C15   C20   A    
C32   O12   A    
C16   O1    A    
Cr2   O19   S    
C17   C21   S    
Cr5   O7    S    
C21   H19   S    
Cr3   O15   S    
Cr4   O5    S    
C9    C14   A    
C12   C41   A    
C33   O17   A    
C1    C44   S    
C29   O7    A    
C38   H15   S    
C40   H5    S    
C17   C18   A    
Cr3   O21   S    
Cr1   O18   S    
C13   C38   S    
C26   O26   A    
Cr2   O12   S    
C25   O25   A    
C34   H4    S    
C23   C35   A    
C18   C24   A    
C42   C43   T    
C16   C42   S    
C22   H21   S    
C12   H1    S    
Cr6   O10   S    
C5    C30   S    
C15   C17   A    
C8    C14   A    
Cr4   O24   S    
C18   C22   S    
C1    O4    A    
C20   H18   S    
C24   C28   S    
C3    C5    T    
C33   O21   A    
C6    C10   A    
Cr5   O8    S    
C15   C31   S    
C6    C7    A    
C39   H11   S    
C39   H13   S    
Cr4   O11   S    
C21   H20   S    
Cr3   O16   S    
Cr5   O11   S    
C30   O9    A    
C19   C24   A    
Cr6   O3    S    
C11   C13   S    
C23   H2    S    
C32   O20   A    
C39   H10   S    
C26   O2    A    
Cr3   O22   S    
C28   O19   A    
C34   C36   S    
C37   C41   A    
C3    C32   S    
Cr5   O25   S    
C26   C35   S    
C6    C29   S    
C34   H3    S    
C16   O16   A    
C28   O18   A    
Cr6   O9    S    
Cr2   O14   S    
