data_mof_unit_10331.cif
_audit_creation_date              2012-10-26T21:24:45-0400
_audit_creation_method            fapswitch 2.2
_symmetry_space_group_name_H-M    P1
_symmetry_Int_Tables_number       1
_space_group_crystal_system       triclinic
_cell_length_a                    9.554425
_cell_length_b                    10.848224
_cell_length_c                    15.523748
_cell_angle_alpha                 89.710624
_cell_angle_beta                  73.634741
_cell_angle_gamma                 90.775665
_cell_volume                      1543.61728054

loop_
_atom_site_label
_atom_site_type_symbol
_atom_type_description
_atom_site_fract_x
_atom_site_fract_y
_atom_site_fract_z
_atom_type_partial_charge
C1    C     C_R   0.997899 0.262492 0.502549 0.552814
C2    C     C_R   0.221475 0.487113 0.041688 0.035279
C3    C     C_R   0.320878 0.455646 0.090746 0.036378
C4    C     C_R   0.917198 0.495310 0.672212 0.551462
C5    C     C_R   0.077815 0.519486 0.086443 -0.130902
C6    C     C_R   0.031454 0.522640 0.179700 -0.133100
C7    C     C_R   0.271192 0.459962 0.185046 -0.114680
C8    C     C_R   0.111150 0.066304 0.523347 0.027024
C9    C     C_R   0.991004 0.129723 0.513107 0.009902
C10   C     C_R   0.862845 0.062763 0.516031 -0.148818
C11   C     C_R   0.864493 0.934122 0.515319 -0.155087
C12   C     C_R   0.664825 0.434510 0.903428 0.065400
C13   C     C_R   0.994370 0.871317 0.511368 0.005881
C14   C     C_R   0.113176 0.939363 0.522548 0.027673
C15   C     C_3   0.270765 0.939448 0.470788 -0.278315
C16   C     C_R   0.999709 0.737918 0.501778 0.545820
C17   C     C_3   0.268021 0.078941 0.472266 -0.260063
C18   C     C_R   0.608377 0.540532 0.426531 0.154996
C19   C     C_R   0.542512 0.445895 0.567636 -0.020344
C20   C     C_R   0.393561 0.446352 0.567942 -0.019370
C21   C     C_R   0.461171 0.539036 0.425760 0.178988
C22   C     C_3   0.478265 0.664426 0.383729 -0.122106
C23   C     C_R   0.764439 0.394707 0.949631 0.043133
C24   C     C_3   0.636999 0.665583 0.385114 -0.237890
C25   C     C_R   0.082536 0.499082 0.327843 0.535473
C26   C     C_R   0.869498 0.470460 0.769508 0.000935
C27   C     C_R   0.128412 0.494142 0.229407 -0.014155
C28   C     C_R   0.913212 0.385763 0.904174 -0.138066
C29   C     C_R   0.965298 0.422033 0.814268 -0.136219
C30   C     C_R   0.721520 0.480722 0.815524 -0.077698
C31   C     C_2   0.455987 0.665642 0.291492 0.217105
C32   C     C_2   0.422628 0.397806 0.810394 0.186095
C33   C     C_R   0.512674 0.434951 0.948392 0.049757
C34   C     C_R   0.467217 0.425590 0.043716 0.024683
C35   C     C_R   0.569789 0.385838 0.088037 -0.092924
C36   C     C_R   0.714758 0.366808 0.040962 -0.122745
C37   C     C_R   0.404027 0.444874 0.902168 0.008579
C38   C     C_R   0.263792 0.480401 0.948504 -0.156743
Cu1   Cu    Cu3+1 0.140670 0.499980 0.500000 0.937140
Cu2   Cu    Cu3+1 0.859330 0.500020 0.500000 0.949061
H1    H     H_    0.789781 0.335659 0.077173 0.114784
H2    H     H_    0.311803 0.404255 0.623435 0.120335
H3    H     H_    0.341691 0.438319 0.225937 0.148737
H4    H     H_    0.411400 0.731686 0.429545 0.097024
H5    H     H_    0.719051 0.664308 0.318263 0.163300
H6    H     H_    0.659811 0.735226 0.431752 0.118467
H7    H     H_    0.920262 0.548299 0.212778 0.142444
H8    H     H_    0.184595 0.496413 0.911788 0.094428
H9    H     H_    0.988793 0.349844 0.938202 0.114929
H10   H     H_    0.079712 0.410755 0.779614 0.116891
H11   H     H_    0.651267 0.526185 0.782018 0.129760
H12   H     H_    0.001051 0.542192 0.049213 0.124973
H13   H     H_    0.541218 0.366020 0.158951 0.127057
H14   H     H_    0.359275 0.708027 0.281808 0.117336
H15   H     H_    0.357334 0.434620 0.769635 0.072911
H16   H     H_    0.764125 0.109031 0.513865 0.142632
H17   H     H_    0.766265 0.884845 0.513300 0.130805
H18   H     H_    0.339815 0.901681 0.511218 0.136447
H19   H     H_    0.288951 0.901835 0.402067 0.123327
H20   H     H_    0.334549 0.120189 0.513416 0.146382
H21   H     H_    0.284775 0.121468 0.404690 0.143397
H22   H     H_    0.572601 0.403041 0.622458 0.171647
N1    N     N_R   0.648210 0.500930 0.499430 -0.244910
N2    N     N_R   0.352300 0.500890 0.499430 -0.248275
O1    O     O_R   0.118810 0.319640 0.500000 -0.501718
O2    O     O_2   0.504166 0.312373 0.781817 -0.516373
O3    O     O_R   0.881230 0.319680 0.499990 -0.499840
O4    O     O_R   0.055580 0.499970 0.629840 -0.509035
O5    O     O_R   0.818000 0.500010 0.629830 -0.500986
O6    O     O_R   0.118770 0.680320 0.500010 -0.503212
O7    O     O_R   0.881190 0.680360 0.500000 -0.509847
O8    O     O_R   0.182000 0.499990 0.370170 -0.509822
O9    O     O_R   0.944420 0.500030 0.370160 -0.499426
O10   O     O_2   0.542697 0.617404 0.227849 -0.538923

loop_
_geom_bond_atom_site_label_1
_geom_bond_atom_site_label_2
_ccdc_geom_bond_type
C30   H11   S    
Cu2   O7    S    
C35   H13   S    
C18   C21   A    
Cu1   O4    S    
C35   C36   A    
Cu1   N2    S    
C12   C23   A    
Cu2   N1    S    
C18   C24   S    
C24   H5    S    
C21   C22   S    
C28   C29   A    
C3    C7    A    
C5    C6    A    
C18   N1    A    
C19   H22   S    
C7    C27   A    
Cu2   O9    S    
C34   C35   A    
C21   N2    A    
C17   H21   S    
C22   H4    S    
C19   C20   A    
C19   N1    A    
C8    C9    A    
Cu2   O3    S    
C1    O1    A    
Cu1   O8    S    
C5    H12   S    
C7    H3    S    
C10   H16   S    
C9    C10   A    
C32   H15   S    
C38   H8    S    
C13   C14   A    
Cu1   O1    S    
C36   H1    S    
C16   O7    A    
C4    O5    A    
C29   H10   S    
C22   C31   S    
C16   O6    A    
Cu2   O5    S    
Cu1   Cu2   S    
C4    O4    A    
C31   O10   D    
C3    C34   A    
C23   C28   A    
C33   C37   A    
C20   N2    A    
C37   C38   A    
C28   H9    S    
C2    C38   A    
C4    C26   S    
C6    C27   A    
C33   C34   A    
C1    C9    S    
C25   O8    A    
C32   C37   S    
C26   C30   A    
C15   H18   S    
C22   C24   S    
C2    C5    A    
C32   O2    D    
C15   C17   S    
C8    C14   A    
C12   C30   A    
C15   H19   S    
C20   H2    S    
C25   C27   S    
C8    C17   S    
C24   H6    S    
C2    C3    A    
C11   C13   A    
C6    H7    S    
C1    O3    A    
Cu1   O6    S    
C25   O9    A    
C31   H14   S    
C10   C11   A    
C17   H20   S    
C26   C29   A    
C23   C36   A    
C13   C16   S    
C14   C15   S    
C12   C33   A    
C11   H17   S    
