data_mof_unit_15274.cif
_audit_creation_date              2012-12-10T17:57:25-0500
_audit_creation_method            fapswitch 2.2
_symmetry_space_group_name_H-M    P1
_symmetry_Int_Tables_number       1
_space_group_crystal_system       triclinic
_cell_length_a                    9.560106
_cell_length_b                    10.823543
_cell_length_c                    13.402955
_cell_angle_alpha                 91.071723
_cell_angle_beta                  72.179041
_cell_angle_gamma                 89.885469
_cell_volume                      1320.04085098

loop_
_atom_site_label
_atom_site_type_symbol
_atom_type_description
_atom_site_fract_x
_atom_site_fract_y
_atom_site_fract_z
_atom_type_partial_charge
C1    C     C_R   0.499533 0.737833 0.500979 0.791942
C2    C     C_R   0.453490 0.512716 0.973901 0.078228
C3    C     C_R   0.465743 0.465368 0.872323 0.069300
C4    C     C_R   0.550736 0.467450 0.027057 0.085259
C5    C     C_R   0.642161 0.363343 0.984584 0.024149
C6    C     C_R   0.654845 0.318055 0.882848 -0.032401
C7    C     C_R   0.564668 0.367755 0.829437 -0.233390
C8    C     C_R   0.554399 0.517778 0.124338 -0.257902
C9    C     C_R   0.674972 0.332860 0.154584 0.270177
C10   C     C_R   0.377496 0.515477 0.815185 -0.096453
C11   C     C_R   0.622006 0.936162 0.510927 -0.149068
C12   C     C_R   0.421319 0.501077 0.700342 0.774701
C13   C     C_R   0.621373 0.064007 0.512374 -0.086598
C14   C     C_R   0.497289 0.128490 0.506037 -0.012978
C15   C     C_R   0.372928 0.064184 0.500081 -0.146872
C16   C     C_R   0.373481 0.936386 0.498799 -0.161111
C17   C     C_R   0.498380 0.871834 0.503472 -0.034200
C18   C     C_R   0.895889 0.574032 0.568594 -0.062557
C19   C     C_R   0.044557 0.573908 0.568627 -0.020651
C20   C     C_R   0.105459 0.426494 0.432022 -0.032180
C21   C     C_R   0.958361 0.426295 0.431610 0.366951
C22   C     C_R   0.498656 0.262362 0.503135 0.837138
C23   C     C_R   0.577676 0.488621 0.300378 0.862060
C24   C     C_R   0.702435 0.296726 0.050424 -0.133855
C25   C     C_R   0.616892 0.451337 0.189001 -0.101806
C26   C     C_R   0.262827 0.597388 0.864707 -0.224243
C27   C     C_R   0.239897 0.636485 0.968722 0.021077
C28   C     C_R   0.337361 0.596642 0.021627 -0.209013
Cu1   Cu    Cu3+1 0.359340 0.499980 0.500000 0.971689
Cu2   Cu    Cu3+1 0.640660 0.500020 0.500000 1.008299
H1    H     H_    0.718289 0.112051 0.517540 0.184459
H2    H     H_    0.275833 0.112301 0.495219 0.163692
H3    H     H_    0.276644 0.888433 0.493374 0.160887
H4    H     H_    0.816489 0.633484 0.623491 0.145969
H5    H     H_    0.076582 0.633240 0.623610 0.135464
H6    H     H_    0.186217 0.367471 0.377636 0.163126
H7    H     H_    0.750143 0.206015 0.026844 0.199837
H8    H     H_    0.500831 0.604592 0.154645 0.152800
H9    H     H_    0.194919 0.634558 0.820622 0.179480
H10   H     H_    0.316515 0.627880 0.101732 0.180867
H11   H     H_    0.569482 0.325969 0.754467 0.179461
H12   H     H_    0.719296 0.887996 0.515357 0.159338
N1    N     N_R   0.147940 0.499970 0.499970 -0.185058
N2    N     N_R   0.852060 0.500060 0.499990 -0.186032
O1    O     O_R   0.381250 0.680340 0.500010 -0.588209
O2    O     O_R   0.618820 0.680370 0.500010 -0.586018
O3    O     O_R   0.323240 0.499950 0.650980 -0.574357
O4    O     O_R   0.560810 0.499980 0.650980 -0.590169
O5    O     O_R   0.381180 0.319630 0.499990 -0.590440
O6    O     O_R   0.618750 0.319660 0.499990 -0.549475
O7    O     O_R   0.439190 0.500020 0.349020 -0.583592
O8    O     O_R   0.676760 0.500050 0.349020 -0.520366
Br1   Br    Br    0.664620 0.199443 0.247878 -0.476958
Br2   Br    Br    0.921335 0.318405 0.330537 -0.447243
C29   C     C_2   0.762682 0.220252 0.828899 0.837365
O9    O     O_2   0.731566 0.145351 0.769681 -0.603107
O10   O     O_R   0.902052 0.216819 0.842381 -0.752941
H13   H     H_    0.965897 0.147201 0.800503 0.343149
C30   C     C_2   0.116089 0.721467 0.021719 0.872268
O11   O     O_2   0.031725 0.756651 0.975317 -0.587011
O12   O     O_R   0.094926 0.761257 0.125251 -0.757044
H14   H     H_    0.006741 0.818409 0.152652 0.354168

loop_
_geom_bond_atom_site_label_1
_geom_bond_atom_site_label_2
_ccdc_geom_bond_type
C2    C4    A    
C29   O9    D    
C9    C24   A    
C6    C7    A    
C18   N2    A    
C16   H3    S    
C21   N2    A    
C11   C13   A    
Cu2   O2    S    
C1    C17   S    
C22   O6    A    
C6    C29   S    
C12   O4    A    
Cu2   N2    S    
C10   C26   A    
C7    H11   S    
C24   H7    S    
C23   O8    A    
C9    C25   A    
C30   O11   D    
C3    C10   A    
C27   C30   S    
C13   C14   A    
Cu1   N1    S    
C2    C28   A    
C8    C25   A    
C18   H4    S    
C1    O1    A    
O10   H13   S    
O12   H14   S    
C5    C24   A    
C8    H8    S    
Cu1   O3    S    
C12   O3    A    
C5    C6    A    
C10   C12   S    
Cu2   O4    S    
C19   N1    A    
C2    C3    A    
C3    C7    A    
C29   O10   S    
C26   C27   A    
C21   Br2   S    
C1    O2    A    
C26   H9    S    
C30   O12   S    
C9    Br1   S    
C28   H10   S    
Cu1   Cu2   S    
C15   C16   A    
C20   H6    S    
C15   H2    S    
C20   N1    A    
C20   C21   A    
C11   H12   S    
C14   C22   S    
C18   C19   A    
Cu1   O7    S    
C22   O5    A    
C4    C8    A    
C19   H5    S    
Cu2   O8    S    
C14   C15   A    
C11   C17   A    
Cu1   O5    S    
Cu2   O6    S    
C23   C25   S    
C4    C5    A    
C23   O7    A    
C13   H1    S    
Cu1   O1    S    
C16   C17   A    
C27   C28   A    
