data_mof_unit_25718.cif
_audit_creation_date              2012-12-11T14:52:35-0500
_audit_creation_method            fapswitch 2.2
_symmetry_space_group_name_H-M    P1
_symmetry_Int_Tables_number       1
_space_group_crystal_system       triclinic
_cell_length_a                    18.95798
_cell_length_b                    10.92216
_cell_length_c                    18.702499
_cell_angle_alpha                 89.532864
_cell_angle_beta                  90.851145
_cell_angle_gamma                 89.81985
_cell_volume                      3872.00191229

loop_
_atom_site_label
_atom_site_type_symbol
_atom_type_description
_atom_site_fract_x
_atom_site_fract_y
_atom_site_fract_z
_atom_type_partial_charge
C1    C     C_R   0.274759 0.036598 0.855663 0.579137
C2    C     C_R   0.694576 0.529272 0.037510 0.127802
C3    C     C_3   0.005085 0.327039 0.069911 -0.019209
C4    C     C_R   0.795300 0.004039 0.958766 0.117561
C5    C     C_R   0.194576 0.029271 0.037510 0.127803
C6    C     C_R   0.283060 0.477759 0.030643 -0.102962
C7    C     C_R   0.702388 0.515612 0.963979 -0.106468
C8    C     C_R   0.783060 0.977759 0.030643 -0.102962
C9    C     C_R   0.202389 0.015611 0.963979 -0.106468
C10   C     C_R   0.221489 0.520116 0.063551 0.023938
C11   C     C_R   0.762557 0.561333 0.930304 0.021940
C12   C     C_R   0.721489 0.020117 0.063551 0.023940
C13   C     C_R   0.709799 0.997672 0.139252 0.585448
C14   C     C_R   0.262557 0.061332 0.930304 0.021937
C15   C     C_R   0.169303 0.580963 0.022620 0.384262
C16   C     C_R   0.817376 0.613334 0.971313 0.369567
C17   C     C_R   0.669303 0.080963 0.022620 0.384263
C18   C     C_R   0.317376 0.113334 0.971313 0.369564
C19   C     C_R   0.180873 0.606430 0.951549 -0.084871
C20   C     C_R   0.810119 0.626685 0.043192 -0.116007
C21   C     C_R   0.680873 0.106431 0.951549 -0.084871
C22   C     C_R   0.310119 0.126684 0.043192 -0.116006
C23   C     C_R   0.244965 0.574151 0.919439 -0.021851
C24   C     C_R   0.774759 0.536598 0.855663 0.579131
C25   C     C_R   0.748598 0.589278 0.077128 -0.021567
C26   C     C_R   0.744965 0.074151 0.919439 -0.021854
C27   C     C_R   0.248598 0.089278 0.077129 -0.021562
C28   C     C_R   0.569388 0.808103 0.560962 -0.105363
C29   C     C_R   0.590280 0.803339 0.489746 -0.134160
C30   C     C_R   0.069398 0.309078 0.560963 -0.105353
C31   C     C_R   0.090300 0.304266 0.489756 -0.134071
C32   C     C_R   0.540843 0.825817 0.434569 0.049444
C33   C     C_R   0.498851 0.833221 0.576350 0.054175
C34   C     C_R   0.040774 0.325830 0.434558 0.049615
C35   C     C_R   0.209799 0.497672 0.139252 0.585447
C36   C     C_R   0.998756 0.333207 0.576321 0.054485
C37   C     C_R   0.470286 0.848633 0.450247 -0.068928
C38   C     C_R   0.449310 0.849573 0.520883 -0.092046
C39   C     C_R   0.970111 0.347671 0.450206 -0.069015
C40   C     C_R   0.949129 0.348624 0.520843 -0.092181
C41   C     C_R   0.434894 0.815994 0.861626 0.575832
C42   C     C_R   0.532559 0.821239 0.142899 0.590680
C43   C     C_R   0.934894 0.315994 0.861626 0.575840
C44   C     C_R   0.032559 0.321239 0.142900 0.590665
C45   C     C_R   0.174678 0.591246 0.549458 -0.095524
C46   C     C_3   0.500859 0.724589 0.972675 0.434052
C47   C     C_R   0.825145 0.593793 0.450940 -0.104914
C48   C     C_R   0.674640 0.091067 0.549494 -0.095438
C49   C     C_R   0.325087 0.094062 0.450986 -0.105158
C50   C     C_R   0.164208 0.572398 0.477654 0.034876
C51   C     C_R   0.834354 0.578982 0.523165 0.026621
C52   C     C_R   0.664137 0.072133 0.477696 0.034784
C53   C     C_R   0.334229 0.079430 0.523219 0.026571
C54   C     C_R   0.217249 0.511993 0.438616 -0.003011
C55   C     C_R   0.782424 0.514981 0.562005 -0.003466
C56   C     C_R   0.717195 0.011814 0.438635 -0.003019
C57   C     C_3   0.457919 0.726644 0.040198 0.423709
C58   C     C_R   0.282350 0.015234 0.562026 -0.003390
C59   C     C_R   0.278091 0.466591 0.474838 0.347882
C60   C     C_R   0.722952 0.465990 0.525702 0.345191
C61   C     C_R   0.778061 0.966481 0.474848 0.347879
C62   C     C_R   0.222936 0.966085 0.525702 0.345276
C63   C     C_R   0.290152 0.496461 0.545888 -0.094526
C64   C     C_R   0.711123 0.494621 0.454278 -0.097457
C65   C     C_R   0.790143 0.996408 0.545890 -0.094576
C66   C     C_R   0.211133 0.994637 0.454267 -0.097282
C67   C     C_R   0.240032 0.565345 0.581757 -0.066639
C68   C     C_3   0.000859 0.224589 0.972675 0.434054
C69   C     C_R   0.760622 0.564719 0.418229 -0.066446
C70   C     C_R   0.740023 0.065282 0.581766 -0.066571
C71   C     C_R   0.260616 0.064788 0.418234 -0.066420
C72   C     C_R   0.260017 0.633225 0.850873 0.547116
C73   C     C_R   0.739026 0.635763 0.148666 0.548563
C74   C     C_R   0.760017 0.133225 0.850873 0.547133
C75   C     C_R   0.239026 0.135763 0.148666 0.548550
C76   C     C_R   0.291199 0.997385 0.638517 0.574624
C77   C     C_R   0.708759 0.996288 0.361747 0.557649
C78   C     C_R   0.791226 0.497307 0.638527 0.574676
C79   C     C_3   0.957918 0.226644 0.040198 0.423707
C80   C     C_R   0.208777 0.496337 0.361752 0.557620
C81   C     C_R   0.472191 0.823955 0.648368 0.540354
C82   C     C_R   0.562144 0.818520 0.360666 0.520086
C83   C     C_R   0.972174 0.323956 0.648360 0.540397
C84   C     C_R   0.062121 0.318522 0.360671 0.520090
C85   C     C_R   0.258334 0.631836 0.646006 0.550502
C86   C     C_R   0.741908 0.631190 0.353711 0.541272
C87   C     C_R   0.758335 0.131836 0.646000 0.550423
C88   C     C_R   0.241912 0.131183 0.353699 0.541362
C89   C     C_3   0.455824 0.925117 0.038027 -0.136476
C90   C     C_R   0.295300 0.504039 0.958766 0.117561
C91   C     C_3   0.499882 0.923322 0.968321 -0.104796
C92   C     C_3   0.955824 0.425117 0.038027 -0.136476
C93   C     C_3   0.999882 0.423322 0.968321 -0.104796
C94   C     C_3   0.407828 0.822979 0.007251 -0.005496
C95   C     C_3   0.549379 0.824958 0.001224 0.024384
C96   C     C_3   0.907828 0.322979 0.007251 -0.005496
C97   C     C_3   0.049379 0.324958 0.001224 0.024386
C98   C     C_3   0.452326 0.820917 0.938556 -0.035972
C99   C     C_3   0.505085 0.827039 0.069911 -0.019211
C100  C     C_3   0.952326 0.320917 0.938556 -0.035974
Cr1   Cr    Cr6+3 0.229630 0.835900 0.747350 1.099993
Cr2   Cr    Cr6+3 0.614200 0.677120 0.250660 1.096901
Cr3   Cr    Cr6+3 0.885800 0.177120 0.749340 1.096683
Cr4   Cr    Cr6+3 0.114200 0.177120 0.250660 1.096901
Cr5   Cr    Cr6+3 0.770370 0.835900 0.252650 1.109215
Cr6   Cr    Cr6+3 0.729630 0.335900 0.747350 1.099957
Cr7   Cr    Cr6+3 0.270370 0.335900 0.252650 1.109225
Cr8   Cr    Cr6+3 0.387410 0.989850 0.750850 1.102365
Cr9   Cr    Cr6+3 0.612590 0.989850 0.249150 1.109540
Cr10  Cr    Cr6+3 0.887410 0.489850 0.750850 1.102366
Cr11  Cr    Cr6+3 0.112590 0.489850 0.249150 1.109572
Cr12  Cr    Cr6+3 0.385800 0.677120 0.749340 1.096719
F1    F     F_    0.328477 0.401514 0.440877 -0.592225
F2    F     F_    0.880144 0.647138 0.943368 -0.597889
F3    F     F_    0.606570 0.114986 0.050648 -0.597424
F4    F     F_    0.380144 0.147138 0.943368 -0.597889
F5    F     F_    0.673543 0.398405 0.559760 -0.594298
F6    F     F_    0.828463 0.901459 0.440877 -0.592227
F7    F     F_    0.173568 0.898381 0.559742 -0.594335
F8    F     F_    0.523968 0.617092 0.941947 -0.553628
F9    F     F_    0.437627 0.622248 0.076887 -0.559375
F10   F     F_    0.023969 0.117092 0.941947 -0.553624
F11   F     F_    0.937627 0.122248 0.076887 -0.559381
F12   F     F_    0.106570 0.614986 0.050648 -0.597425
H1    H     H_    0.133944 0.639572 0.577984 0.219014
H2    H     H_    0.517298 0.006565 0.939117 0.220642
H3    H     H_    0.939413 0.508668 0.066587 0.189271
H4    H     H_    0.017299 0.506565 0.939117 0.220641
H5    H     H_    0.322203 0.425746 0.060863 0.195560
H6    H     H_    0.661781 0.468827 0.933479 0.202661
H7    H     H_    0.822203 0.925746 0.060863 0.195559
H8    H     H_    0.161782 0.968826 0.933479 0.202662
H9    H     H_    0.139892 0.656354 0.922631 0.183766
H10   H     H_    0.853109 0.670472 0.071854 0.178830
H11   H     H_    0.639892 0.156354 0.922631 0.183766
H12   H     H_    0.865654 0.642845 0.422296 0.223107
H13   H     H_    0.353109 0.170471 0.071854 0.178830
H14   H     H_    0.607431 0.789961 0.603554 0.132770
H15   H     H_    0.644645 0.782021 0.477617 0.097273
H16   H     H_    0.107524 0.291719 0.603573 0.132399
H17   H     H_    0.144743 0.283607 0.477652 0.096912
H18   H     H_    0.431373 0.862059 0.407855 0.141311
H19   H     H_    0.393893 0.858484 0.532465 0.098870
H20   H     H_    0.931143 0.360355 0.407797 0.141350
H21   H     H_    0.893670 0.356947 0.532421 0.098819
H22   H     H_    0.633908 0.139380 0.578030 0.218894
H23   H     H_    0.365594 0.143146 0.422357 0.223233
H24   H     H_    0.340118 0.472365 0.571190 0.188430
H25   H     H_    0.661865 0.468369 0.428697 0.187892
H26   H     H_    0.840129 0.972379 0.571173 0.188355
H27   H     H_    0.161913 0.968254 0.428655 0.187885
H28   H     H_    0.439413 0.008667 0.066587 0.189271
I1    I     I_    0.303776 0.796057 0.039516 -0.347102
I2    I     I_    0.602856 0.447414 0.081501 -0.020399
I3    I     I_    0.890708 0.934206 0.916864 -0.027946
I4    I     I_    0.102856 0.947414 0.081501 -0.020403
I5    I     I_    0.650804 0.801928 0.959407 -0.382005
I6    I     I_    0.803775 0.296057 0.039516 -0.347113
I7    I     I_    0.150804 0.301927 0.959407 -0.381995
I8    I     I_    0.069711 0.656055 0.436230 -0.224267
I9    I     I_    0.925567 0.671884 0.564542 -0.222217
I10   I     I_    0.569604 0.155680 0.436298 -0.224681
I11   I     I_    0.425340 0.172671 0.564601 -0.222057
I12   I     I_    0.390708 0.434205 0.916864 -0.027942
O1    O     O_R   0.214270 0.709000 0.827470 -0.524940
O2    O     O_R   0.543270 0.717630 0.330160 -0.476867
O3    O     O_R   0.956730 0.217630 0.669840 -0.491702
O4    O     O_R   0.043270 0.217630 0.330160 -0.477029
O5    O     O_R   0.320620 0.625640 0.672920 -0.509724
O6    O     O_R   0.679380 0.625640 0.327080 -0.524202
O7    O     O_R   0.820620 0.125640 0.672920 -0.509788
O8    O     O_R   0.179380 0.125640 0.327080 -0.524123
O9    O     O_3   0.334280 0.834290 0.749180 -0.343723
O10   O     O_3   0.665720 0.834290 0.250820 -0.363777
O11   O     O_3   0.834280 0.334290 0.749180 -0.343784
O12   O     O_R   0.785730 0.709000 0.172530 -0.536811
O13   O     O_3   0.165720 0.334290 0.250820 -0.363731
O14   O     O_R   0.236160 0.958490 0.823130 -0.512997
O15   O     O_R   0.763840 0.958490 0.176870 -0.488435
O16   O     O_R   0.736160 0.458490 0.823130 -0.513001
O17   O     O_R   0.263840 0.458490 0.176870 -0.488427
O18   O     O_R   0.332080 0.075470 0.831280 -0.426682
O19   O     O_R   0.667920 0.075470 0.168720 -0.408041
O20   O     O_R   0.832080 0.575470 0.831280 -0.426689
O21   O     O_R   0.167920 0.575470 0.168720 -0.408039
O22   O     O_R   0.446300 0.918110 0.826620 -0.487258
O23   O     O_R   0.714270 0.209000 0.827470 -0.524929
O24   O     O_R   0.553700 0.918110 0.173380 -0.490892
O25   O     O_R   0.946300 0.418110 0.826620 -0.487254
O26   O     O_R   0.053700 0.418110 0.173380 -0.490898
O27   O     O_R   0.457110 0.716200 0.831760 -0.423625
O28   O     O_R   0.542890 0.716200 0.168240 -0.439778
O29   O     O_R   0.957110 0.216200 0.831760 -0.423605
O30   O     O_R   0.042890 0.216200 0.168240 -0.439787
O31   O     O_R   0.320980 0.624310 0.823030 -0.492056
O32   O     O_R   0.679020 0.624310 0.176970 -0.477155
O33   O     O_R   0.820980 0.124310 0.823030 -0.492044
O34   O     O_R   0.285730 0.209000 0.172530 -0.536818
O35   O     O_R   0.179020 0.124310 0.176970 -0.477165
O36   O     O_R   0.213890 0.710430 0.665540 -0.470856
O37   O     O_R   0.786110 0.710430 0.334460 -0.475351
O38   O     O_R   0.713890 0.210430 0.665540 -0.470822
O39   O     O_R   0.286110 0.210430 0.334460 -0.475451
O40   O     O_R   0.235810 0.959820 0.673020 -0.419872
O41   O     O_R   0.764190 0.959820 0.326980 -0.408282
O42   O     O_R   0.735810 0.459820 0.673020 -0.419921
O43   O     O_R   0.264190 0.459820 0.326980 -0.408255
O44   O     O_R   0.331700 0.076900 0.669350 -0.487190
O45   O     O_R   0.445950 0.919440 0.676520 -0.502900
O46   O     O_R   0.668300 0.076900 0.330650 -0.482178
O47   O     O_R   0.831700 0.576900 0.669350 -0.487133
O48   O     O_R   0.168300 0.576900 0.330650 -0.482221
O49   O     O_R   0.554050 0.919440 0.323480 -0.498199
O50   O     O_R   0.945950 0.419440 0.676520 -0.502868
O51   O     O_R   0.054050 0.419440 0.323480 -0.498111
O52   O     O_R   0.456730 0.717630 0.669840 -0.491693

loop_
_geom_bond_atom_site_label_1
_geom_bond_atom_site_label_2
_ccdc_geom_bond_type
C58   C62   A    
C81   O45   A    
C21   C26   A    
Cr2   O6    S    
C88   O8    A    
C91   H2    S    
C47   H12   S    
C24   O20   A    
C38   H19   S    
C14   C18   A    
C96   I6    S    
C2    C7    A    
C4    C8    A    
C3    C79   S    
C72   O31   A    
C68   C100  S    
Cr8   O45   S    
Cr1   O36   S    
C58   C76   S    
Cr10  O11   S    
Cr3   O3    S    
C22   H13   S    
C17   F3    S    
C50   C54   A    
C40   H21   S    
Cr7   O17   S    
C97   I7    S    
Cr8   O22   S    
C28   C29   A    
Cr10  O50   S    
C25   C73   S    
Cr11  O51   S    
Cr6   O23   S    
C29   C32   A    
Cr9   O49   S    
C10   C15   A    
C30   C31   A    
C95   C99   S    
C9    H8    S    
C81   O52   A    
Cr4   O4    S    
C20   C25   A    
C94   C98   S    
C36   C83   S    
C89   C94   S    
C65   C70   A    
C57   C99   S    
C11   C24   S    
C92   C96   S    
C76   O44   A    
C49   H23   S    
Cr3   O33   S    
C65   H26   S    
C91   C98   S    
C68   C97   S    
C47   C69   A    
C7    H6    S    
Cr1   O14   S    
C44   O26   A    
C15   C19   A    
Cr1   O9    S    
Cr8   O18   S    
C89   H28   S    
C46   C95   S    
Cr4   O13   S    
C45   H1    S    
C13   O19   A    
Cr5   O12   S    
C48   H22   S    
C12   C17   A    
C24   O16   A    
Cr2   O28   S    
Cr6   O11   S    
C10   C35   S    
C8    C12   A    
C89   C91   S    
C87   O38   A    
Cr7   O43   S    
C84   O51   A    
C16   C20   A    
C80   O48   A    
Cr9   O19   S    
C68   C79   S    
Cr12  O9    S    
C46   C98   S    
Cr10  O20   S    
C2    I2    S    
C86   O6    A    
C55   C60   A    
Cr7   O13   S    
Cr3   O7    S    
Cr7   O39   S    
C34   C84   S    
Cr5   O15   S    
C6    H5    S    
C27   C75   S    
C70   C87   S    
Cr6   O16   S    
C54   C80   S    
C54   C59   A    
Cr9   O24   S    
C29   H15   S    
C63   C67   A    
C3    C44   S    
C67   C85   S    
Cr11  O21   S    
C15   F12   S    
C62   C66   A    
Cr11  O48   S    
C46   F8    S    
C34   C39   A    
C36   C40   A    
C30   H16   S    
C43   C100  S    
C37   H18   S    
C68   F10   S    
C39   C40   A    
C55   C78   S    
C41   O27   A    
Cr9   O10   S    
C53   I11   S    
C47   C51   A    
C50   I8    S    
C6    C90   A    
C83   O3    A    
C85   O5    A    
C56   C77   S    
C16   F2    S    
C3    C92   S    
C31   H17   S    
C7    C11   A    
C9    C14   A    
C78   O42   A    
Cr12  O31   S    
C5    C9    A    
C37   C38   A    
C84   O4    A    
C77   O41   A    
Cr6   O38   S    
C82   O49   A    
C1    O14   A    
C3    C97   S    
C85   O36   A    
Cr5   O37   S    
Cr12  O5    S    
C93   C100  S    
C74   O33   A    
C48   C52   A    
C35   O21   A    
C87   O7    A    
Cr8   O9    S    
C80   O43   A    
C8    H7    S    
Cr3   O11   S    
C23   C90   A    
C28   H14   S    
C60   F5    S    
C56   C61   A    
C32   C37   A    
C39   H20   S    
Cr1   O1    S    
C86   O37   A    
C62   F7    S    
C66   C71   A    
Cr11  O26   S    
C61   C65   A    
C53   C58   A    
C19   H9    S    
C77   O46   A    
C89   C99   S    
C28   C33   A    
C57   C94   S    
C46   C57   S    
C22   C27   A    
Cr4   O35   S    
Cr2   O10   S    
C18   F4    S    
Cr9   O46   S    
C92   H3    S    
C93   C97   S    
C63   H24   S    
C83   O50   A    
C31   C34   A    
C19   C23   A    
C74   O23   A    
C82   O2    A    
C75   O34   A    
C42   O24   A    
Cr8   O44   S    
C61   F6    S    
C95   I5    S    
C44   O30   A    
C23   C72   S    
C48   C70   A    
C59   F1    S    
Cr1   O40   S    
Cr2   O32   S    
Cr5   O10   S    
Cr6   O42   S    
Cr7   O34   S    
C4    C26   A    
C1    O18   A    
C76   O40   A    
Cr5   O41   S    
C45   C67   A    
C75   O35   A    
C35   O17   A    
C5    I4    S    
C64   C69   A    
C43   O29   A    
Cr10  O25   S    
C59   C63   A    
C33   C38   A    
C72   O1    A    
Cr4   O8    S    
C64   H25   S    
C60   C64   A    
Cr10  O47   S    
C18   C22   A    
C93   H4    S    
C79   C96   S    
C30   C36   A    
C13   O15   A    
C42   C99   S    
C32   C82   S    
C5    C27   A    
C79   F11   S    
C45   C50   A    
C73   O12   A    
C94   I1    S    
C49   C53   A    
C96   C100  S    
C92   C93   S    
C26   C74   S    
C41   O22   A    
C51   I9    S    
C2    C25   A    
C51   C55   A    
Cr12  O52   S    
C88   O39   A    
C17   C21   A    
C11   C16   A    
C6    C10   A    
C57   F9    S    
C71   C88   S    
C42   O28   A    
C66   H27   S    
C4    I3    S    
C12   C13   S    
C43   O25   A    
C91   C95   S    
Cr2   O2    S    
C49   C71   A    
C73   O32   A    
C90   I12   S    
Cr11  O13   S    
Cr4   O30   S    
C41   C98   S    
C1    C14   S    
Cr3   O29   S    
C20   H10   S    
C33   C81   S    
C78   O47   A    
C21   H11   S    
C69   C86   S    
C52   C56   A    
C52   I10   S    
Cr12  O27   S    
