data_mof_unit_30189.cif
_audit_creation_date              2012-12-11T14:22:56-0500
_audit_creation_method            fapswitch 2.2
_symmetry_space_group_name_H-M    P1
_symmetry_Int_Tables_number       1
_space_group_crystal_system       triclinic
_cell_length_a                    16.929893
_cell_length_b                    6.94814
_cell_length_c                    15.286477
_cell_angle_alpha                 90.001592
_cell_angle_beta                  93.540306
_cell_angle_gamma                 90.001626
_cell_volume                      1794.73603885

loop_
_atom_site_label
_atom_site_type_symbol
_atom_type_description
_atom_site_fract_x
_atom_site_fract_y
_atom_site_fract_z
_atom_type_partial_charge
O1    O     O_R   0.414560 0.494300 0.417030 -0.539143
O2    O     O_R   0.585440 0.994300 0.582970 -0.539099
O3    O     O_R   0.577160 0.822630 0.413790 -0.535923
O4    O     O_R   0.422840 0.322630 0.586210 -0.536160
C1    C     C_R   0.604385 0.655233 0.393440 0.735324
C2    C     C_R   0.395616 0.155230 0.606562 0.735100
O5    O     O_R   0.414660 0.823920 0.406630 -0.544049
O6    O     O_R   0.585340 0.323920 0.593370 -0.544103
O7    O     O_R   0.421790 0.995650 0.575760 -0.542297
O8    O     O_R   0.578210 0.495650 0.424240 -0.542361
C3    C     C_R   0.386029 0.656932 0.386854 0.686391
C4    C     C_R   0.613947 0.156931 0.613184 0.686587
O9    O     O_3   0.502530 0.661260 0.555500 -0.369981
O10   O     O_3   0.497470 0.161260 0.444500 -0.369956
V1    V     V_3+5 0.499530 0.935570 0.489700 1.445228
V2    V     V_3+5 0.500470 0.435570 0.510300 1.444891
C5    C     C_2   0.771939 0.243639 0.802117 -0.290434
C6    C     C_2   0.228049 0.743635 0.197909 -0.290360
C7    C     C_2   0.825761 0.100751 0.809739 0.275477
C8    C     C_2   0.174209 0.600785 0.190269 0.275535
H1    H     H_    0.779989 0.369561 0.843797 0.096853
H2    H     H_    0.220026 0.869540 0.156219 0.096847
C9    C     C_2   0.693703 0.223170 0.750012 0.351075
C10   C     C_2   0.306273 0.723153 0.250038 0.351391
C11   C     C_2   0.690115 0.159926 0.665790 0.287554
C12   C     C_2   0.309846 0.659943 0.334264 0.287273
C13   C     C_1   0.166048 0.119044 0.830869 -0.196864
C14   C     C_1   0.833954 0.619049 0.169133 -0.196814
C15   C     C_1   0.218473 0.127210 0.779502 -0.001964
C16   C     C_1   0.781532 0.627225 0.220503 -0.001796
C17   C     C_1   0.280486 0.137171 0.719432 -0.015194
C18   C     C_1   0.719520 0.637192 0.280575 -0.015184
C19   C     C_1   0.333090 0.145690 0.668309 -0.208253
C20   C     C_1   0.666914 0.645704 0.331696 -0.208454
O11   O     O_R   0.921850 0.770730 0.075840 -0.531935
O12   O     O_R   0.078150 0.270730 0.924160 -0.531936
O13   O     O_R   0.085350 0.439650 0.093390 -0.536448
O14   O     O_R   0.914650 0.939650 0.906610 -0.536480
C21   C     C_R   0.110654 0.606694 0.118174 0.619751
C22   C     C_R   0.889351 0.106682 0.881811 0.619750
O15   O     O_R   0.922860 0.441090 0.086230 -0.535390
O16   O     O_R   0.077140 0.941090 0.913770 -0.535413
O17   O     O_R   0.914540 0.269530 0.917020 -0.548607
O18   O     O_R   0.085460 0.769530 0.082980 -0.548618
C23   C     C_R   0.896117 0.609799 0.106905 0.720715
C24   C     C_R   0.103881 0.109799 0.893093 0.720875
O19   O     O_3   0.997510 0.602520 0.944550 -0.370238
O20   O     O_3   0.002490 0.102520 0.055450 -0.370187
V3    V     V_3+5 0.000460 0.328160 0.010290 1.402247
V4    V     V_3+5 0.999540 0.828160 0.989710 1.402159
O21   O     O_3   0.809763 0.931585 0.762053 -0.553300
C25   C     C_3   0.877161 0.836065 0.731109 0.169053
H3    H     H_    0.854157 0.733057 0.680074 0.128124
H4    H     H_    0.906407 0.743830 0.782638 0.126397
C26   C     C_3   0.937603 0.967198 0.688330 -0.345007
H5    H     H_    0.907357 0.055944 0.636397 0.232054
H6    H     H_    0.967151 0.065015 0.737465 0.157639
C27   C     C_3   0.001629 0.848312 0.647438 -0.859120
H7    H     H_    0.033950 0.759113 0.698252 0.238467
H8    H     H_    0.044587 0.945851 0.617831 0.234942
H9    H     H_    0.974930 0.753110 0.595218 0.225873
O22   O     O_3   0.190144 0.431623 0.237961 -0.553247
C28   C     C_3   0.122704 0.336383 0.268972 0.169322
H10   H     H_    0.145667 0.233684 0.320155 0.128413
H11   H     H_    0.093483 0.243888 0.217518 0.126152
C29   C     C_3   0.062213 0.467836 0.311495 -0.345083
H12   H     H_    0.092457 0.557755 0.362996 0.232000
H13   H     H_    0.032409 0.564561 0.262080 0.157545
C30   C     C_3   0.998459 0.349237 0.353032 -0.859236
H14   H     H_    0.966166 0.258841 0.302651 0.238385
H15   H     H_    0.955426 0.447001 0.382373 0.235018
H16   H     H_    0.025406 0.255226 0.405565 0.225943
O23   O     O_3   0.623045 0.285375 0.783439 -0.593167
C31   C     C_3   0.624544 0.272087 0.875764 0.067170
H17   H     H_    0.659317 0.393691 0.905774 0.131182
H18   H     H_    0.650095 0.132103 0.899483 0.122445
C32   C     C_3   0.539936 0.285815 0.904556 -0.282053
H19   H     H_    0.512355 0.421354 0.879001 0.204679
H20   H     H_    0.504767 0.162708 0.876742 0.195153
C33   C     C_3   0.538294 0.283101 0.004274 -0.855134
H21   H     H_    0.566337 0.149512 0.031239 0.237143
H22   H     H_    0.476064 0.288443 0.023247 0.237133
H23   H     H_    0.570519 0.409613 0.033004 0.237504
O24   O     O_3   0.376939 0.785357 0.216627 -0.593144
C34   C     C_3   0.375453 0.772108 0.124300 0.067110
H24   H     H_    0.340720 0.893779 0.094302 0.131208
H25   H     H_    0.349868 0.632174 0.100555 0.122404
C35   C     C_3   0.460071 0.785720 0.095527 -0.282016
H26   H     H_    0.487692 0.921188 0.121117 0.204678
H27   H     H_    0.495196 0.662529 0.123317 0.195161
C36   C     C_3   0.461725 0.783093 0.995809 -0.855148
H28   H     H_    0.433623 0.649602 0.968804 0.237119
H29   H     H_    0.523961 0.788296 0.976848 0.237127
H30   H     H_    0.429563 0.909716 0.967105 0.237513
O25   O     O_3   0.759004 0.121023 0.624277 -0.558790
C37   C     C_3   0.771386 0.259128 0.558028 0.044659
H31   H     H_    0.833160 0.312619 0.567270 0.123190
H32   H     H_    0.733565 0.390314 0.560921 0.068295
C38   C     C_3   0.759760 0.167886 0.466908 -0.291005
H33   H     H_    0.698452 0.111849 0.456715 0.190315
H34   H     H_    0.768155 0.280297 0.416581 0.154608
C39   C     C_3   0.818472 0.004733 0.454298 -0.708337
H35   H     H_    0.880214 0.058370 0.463954 0.214155
H36   H     H_    0.809598 0.947059 0.386690 0.209417
H37   H     H_    0.809251 0.886102 0.501308 0.242513
O26   O     O_3   0.240940 0.620764 0.375708 -0.558730
C40   C     C_3   0.228775 0.757598 0.442559 0.044970
H38   H     H_    0.167129 0.812013 0.433459 0.123075
H39   H     H_    0.266885 0.888401 0.440342 0.068072
C41   C     C_3   0.240055 0.664247 0.533256 -0.290813
H40   H     H_    0.301234 0.607325 0.543291 0.190425
H41   H     H_    0.231820 0.775639 0.584090 0.154547
C42   C     C_3   0.180970 0.501463 0.544980 -0.708435
H42   H     H_    0.119350 0.555892 0.535303 0.214333
H43   H     H_    0.189511 0.442444 0.612371 0.209300
H44   H     H_    0.190118 0.383615 0.497543 0.242448

loop_
_geom_bond_atom_site_label_1
_geom_bond_atom_site_label_2
_ccdc_geom_bond_type
C29   H13   S    
C26   H5    S    
C28   H11   S    
C13   C15   T    
O23   C31   S    
O25   C37   S    
O1    C3    A    
O2    C4    A    
C12   O26   S    
C2    O7    A    
O19   V3    S    
C32   H19   S    
O5    C3    A    
C5    C9    S    
C31   H18   S    
C6    C10   S    
O14   C22   A    
C10   C12   D    
C32   C33   S    
C29   C30   S    
O26   C40   S    
C27   H8    S    
C37   C38   S    
C39   H37   S    
O16   C24   A    
C30   H15   S    
C41   H40   S    
C22   O17   A    
C31   C32   S    
C37   H32   S    
C40   H38   S    
C17   C19   T    
O12   C24   A    
C25   C26   S    
C42   H44   S    
C27   H9    S    
O20   V4    S    
C29   H12   S    
C28   C29   S    
O6    V2    S    
C37   H31   S    
C40   H39   S    
C39   H35   S    
C9    O23   S    
C33   H23   S    
O15   V3    S    
C25   H4    S    
O19   V4    S    
C32   H20   S    
C14   C23   S    
C31   H17   S    
C34   H25   S    
O21   C25   S    
O24   C34   S    
C33   H22   S    
C36   H28   S    
C8    C21   S    
O17   V3    S    
O5    V1    S    
C3    C12   S    
C27   H7    S    
C34   H24   S    
C5    H1    S    
C18   C20   T    
O4    V2    S    
C30   H16   S    
O22   C28   S    
C36   H29   S    
O13   V3    S    
C38   H33   S    
C35   C36   S    
O6    C4    A    
C1    C20   S    
O11   V4    S    
O1    V2    S    
C39   H36   S    
O2    V1    S    
C41   C42   S    
O16   V4    S    
C13   C24   S    
O4    C2    A    
O20   V3    S    
C38   H34   S    
C35   H27   S    
C11   O25   S    
C26   H6    S    
C40   C41   S    
O10   V2    S    
C26   C27   S    
O11   C23   A    
O3    V1    S    
C25   H3    S    
C42   H42   S    
C34   C35   S    
O18   V4    S    
C6    H2    S    
C33   H21   S    
O3    C1    A    
C21   O18   A    
O14   V4    S    
C2    C19   S    
C4    C11   S    
O9    V1    S    
C10   O24   S    
C1    O8    A    
C15   C17   S    
O8    V2    S    
C36   H30   S    
C16   C18   S    
C14   C16   T    
C5    C7    D    
C6    C8    D    
C9    C11   D    
C8    O22   S    
C30   H14   S    
C41   H41   S    
C7    C22   S    
C28   H10   S    
C7    O21   S    
C38   C39   S    
C35   H26   S    
O13   C21   A    
O9    V2    S    
O15   C23   A    
O10   V1    S    
O12   V3    S    
O7    V1    S    
C42   H43   S    
