data_mof_unit_22393.cif
_audit_creation_date              2013-03-05T15:55:01-0500
_audit_creation_method            fapswitch 2.2
_symmetry_space_group_name_H-M    P1
_symmetry_Int_Tables_number       1
_space_group_crystal_system       triclinic
_cell_length_a                    6.930421
_cell_length_b                    14.562974
_cell_length_c                    16.194042
_cell_angle_alpha                 90.481027
_cell_angle_beta                  90.06222
_cell_angle_gamma                 90.035295
_cell_volume                      1634.36595167

loop_
_atom_site_label
_atom_site_type_symbol
_atom_site_description
_atom_site_fract_x
_atom_site_fract_y
_atom_site_fract_z
_atom_type_partial_charge
O1    O     O_R   0.505810 0.583360 0.413880 -0.600432
O2    O     O_R   0.175870 0.595480 0.585520 -0.594014
O3    O     O_R   0.005540 0.416640 0.586120 -0.546614
C1    C     C_R   0.344964 0.617286 0.614800 0.987315
O4    O     O_R   0.176100 0.594390 0.414490 -0.604597
O5    O     O_R   0.005770 0.415540 0.413870 -0.601109
C2    C     C_R   0.345173 0.616490 0.385722 0.908775
O6    O     O_R   0.505580 0.584460 0.586130 -0.595807
O7    O     O_3   0.339190 0.441320 0.500000 -0.261770
V1    V     V_3+5 0.064350 0.510890 0.500000 1.192131
O8    O     O_R   0.676050 0.404520 0.414480 -0.602397
C3    C     C_R   0.845057 0.382071 0.385728 0.914631
O9    O     O_R   0.675830 0.405610 0.585510 -0.594260
C4    C     C_R   0.845005 0.386368 0.615783 0.882603
V2    V     V_3+5 0.564340 0.489110 0.500000 1.185373
O10   O     O_3   0.839370 0.558680 0.500000 -0.279961
C5    C     C_2   0.722805 0.210675 0.786950 -0.016502
C6    C     C_2   0.886527 0.173850 0.817071 -0.340156
H1    H     H_    0.584941 0.191594 0.813644 0.154758
C7    C     C_2   0.717841 0.271656 0.713460 -0.219279
C8    C     C_2   0.859574 0.330986 0.692089 0.076445
H2    H     H_    0.589360 0.266921 0.675172 0.164924
C9    C     C_R   0.047487 0.223020 0.219488 -0.134006
H3    H     H_    0.188352 0.204462 0.195826 0.121465
C10   C     C_R   0.036135 0.287006 0.284301 -0.130114
C11   C     C_R   0.856328 0.313306 0.317346 -0.122633
C12   C     C_R   0.688187 0.273879 0.283719 -0.138181
H4    H     H_    0.547324 0.292437 0.307381 0.121176
C13   C     C_R   0.699539 0.209892 0.218906 -0.128162
H5    H     H_    0.566805 0.180951 0.194790 0.123922
C14   C     C_R   0.879348 0.183588 0.185865 -0.116966
C15   C     C_R   0.208396 0.749885 0.696046 -0.243871
H6    H     H_    0.087030 0.751101 0.653838 0.167873
C16   C     C_R   0.220462 0.816822 0.759127 0.394922
C17   C     C_R   0.378884 0.816196 0.815127 -0.307408
C18   C     C_R   0.526170 0.751139 0.802441 -0.082077
H7    H     H_    0.649368 0.748936 0.843585 0.151404
C19   C     C_R   0.516140 0.687456 0.737196 -0.076193
H8    H     H_    0.632542 0.638545 0.729451 0.133378
C20   C     C_R   0.356173 0.685422 0.683774 -0.192474
C21   C     C_R   0.188438 0.723354 0.283782 -0.136660
C22   C     C_R   0.199741 0.786439 0.219060 -0.130908
H9    H     H_    0.066997 0.814965 0.195068 0.122969
C23   C     C_R   0.379436 0.812399 0.185934 -0.118961
C24   C     C_R   0.547501 0.773437 0.219505 -0.138491
H10   H     H_    0.688349 0.791676 0.195855 0.120495
C25   C     C_R   0.536197 0.710348 0.284230 -0.128814
H11   H     H_    0.668935 0.681819 0.308226 0.123484
C26   C     C_R   0.356497 0.684387 0.317352 -0.120575
O11   O     O_R   0.230120 0.912300 0.917180 -0.568650
O12   O     O_R   0.559740 0.902430 0.088770 -0.605853
O13   O     O_R   0.729930 0.081310 0.089370 -0.603132
C27   C     C_R   0.390702 0.880296 0.117560 0.903199
O14   O     O_R   0.559840 0.901330 0.917750 -0.583383
O15   O     O_R   0.730030 0.080210 0.917120 -0.601298
C28   C     C_R   0.390814 0.881337 0.886945 1.003714
O16   O     O_R   0.230020 0.913400 0.089430 -0.604290
O17   O     O_3   0.396460 0.055470 0.003290 -0.278037
V3    V     V_3+5 0.671360 0.985960 0.003250 1.192506
O18   O     O_R   0.059740 0.091300 0.917690 -0.573456
C29   C     C_R   0.891109 0.111538 0.888376 1.068307
O19   O     O_R   0.059640 0.092400 0.088720 -0.605540
C30   C     C_R   0.890631 0.114814 0.117491 0.909478
V4    V     V_3+5 0.171350 0.007820 0.003190 1.206582
O20   O     O_3   0.896380 0.938200 0.003220 -0.275269
N1    N     N_R   0.077994 0.888343 0.761458 0.229993
O21   O     O_R   0.898442 0.869444 0.745023 -0.423362
O22   O     O_R   0.132535 0.973840 0.763366 -0.423791
H12   H     H_    0.047585 0.705120 0.307430 0.120913
H13   H     H_    0.023515 0.187199 0.787194 0.196467
N2    N     N_R   0.019141 0.349429 0.746903 0.240519
O23   O     O_R   0.194886 0.351810 0.718703 -0.404238
O24   O     O_R   0.986921 0.373547 0.823235 -0.389839
H14   H     H_    0.168872 0.315947 0.308416 0.123809

loop_
_geom_bond_atom_site_label_1
_geom_bond_atom_site_label_2
_geom_bond_distance
_ccdc_geom_bond_type
C6    H13   1.084226 S    
N1    O22   1.301088 A    
O15   V3    2.006834 S    
C12   C13   1.400005 A    
O11   V4    2.002586 S    
C21   C22   1.401768 A    
C17   C18   1.407172 A    
C1    O6    1.296615 A    
C16   N1    1.435914 S    
C25   C26   1.409230 A    
C24   H10   1.082712 S    
C11   C12   1.405935 A    
C13   H5    1.082752 S    
C8    N2    1.441009 S    
C4    C8    1.484658 S    
C18   H7    1.083111 S    
C10   H14   1.082753 S    
O5    C3    1.296276 A    
C19   H8    1.083196 S    
V2    O10   2.158056 S    
C5    C7    1.491277 S    
C16   C17   1.423347 A    
O19   V4    2.002461 S    
O8    V2    2.002439 S    
C23   C27   1.492733 S    
C1    C20   1.489754 S    
C9    H3    1.082740 S    
O1    V2    2.006257 S    
O7    V1    2.157994 S    
C15   C20   1.402916 A    
N1    O21   1.301025 A    
O9    C4    1.301910 A    
C22   C23   1.409221 A    
C21   C26   1.406681 A    
C10   C11   1.408729 A    
O14   V3    2.000314 S    
C24   C25   1.401838 A    
O17   V4    1.707077 S    
O14   C28   1.304500 A    
C14   C30   1.488917 S    
C2    C26   1.492722 S    
O4    C2    1.302625 A    
C27   O16   1.297411 A    
O17   V3    2.157949 S    
O11   C28   1.296700 A    
C3    C11   1.488927 S    
O18   C29   1.295994 A    
O12   C27   1.302663 A    
C15   C16   1.408474 A    
O2    C1    1.301845 A    
O19   C30   1.301802 A    
O13   V3    2.000868 S    
C25   H11   1.082727 S    
C5    C6    1.347929 D    
O3    C4    1.291137 A    
C7    H2    1.086311 S    
O6    V2    2.002210 S    
O9    V2    2.005078 S    
O12   V3    2.006389 S    
C22   H9    1.082728 S    
O2    V1    2.000180 S    
C23   C24   1.406697 A    
O16   V4    2.009518 S    
C21   H12   1.082713 S    
C17   C28   1.496854 S    
O1    C2    1.297440 A    
O13   C30   1.296280 A    
O5    V1    2.000993 S    
O8    C3    1.301804 A    
C6    C29   1.474926 S    
O18   V4    2.005111 S    
C15   H6    1.083495 S    
C18   C19   1.401651 A    
O7    V2    1.708164 S    
N2    O23   1.301789 A    
C13   C14   1.408730 A    
O3    V1    2.006918 S    
V1    O10   1.707872 S    
V3    O20   1.707946 S    
C19   C20   1.405632 A    
O15   C29   1.294261 A    
V4    O20   2.158033 S    
C5    H1    1.086081 S    
C9    C10   1.399993 A    
O4    V1    2.006358 S    
C7    C8    1.354943 D    
N2    O24   1.301779 A    
C12   H4    1.082740 S    
C9    C14   1.405931 A    
