data_mof_unit_67108.cif
_audit_creation_date              2013-03-05T15:58:39-0500
_audit_creation_method            fapswitch 2.2
_symmetry_space_group_name_H-M    P1
_symmetry_Int_Tables_number       1
_space_group_crystal_system       triclinic
_cell_length_a                    8.204784
_cell_length_b                    13.014425
_cell_length_c                    15.039396
_cell_angle_alpha                 95.605148
_cell_angle_beta                  97.534941
_cell_angle_gamma                 98.999057
_cell_volume                      1560.9554262

loop_
_atom_site_label
_atom_site_type_symbol
_atom_site_description
_atom_site_fract_x
_atom_site_fract_y
_atom_site_fract_z
_atom_type_partial_charge
P1    P     P_3+3 0.998770 0.403620 0.291990 0.518659
O1    O     O_2   0.827930 0.435360 0.277760 -0.391928
O2    O     O_3   0.100310 0.439010 0.391180 -0.346853
O3    O     O_3   0.625610 0.634200 0.333270 -0.354062
O4    O     O_2   0.696915 0.596439 0.172823 -0.355063
O5    O     O_3   0.964327 0.267538 0.270120 -0.579365
O6    O     O_3   0.620731 0.780334 0.198794 -0.459435
H1    H     H_    0.631656 0.890248 0.306822 0.073724
C1    C     C_3   0.451728 0.921274 0.197337 0.052423
H2    H     H_    0.503753 0.002823 0.225862 0.081762
P2    P     P_3+3 0.687370 0.751000 0.571300 0.463769
P3    P     P_3+3 0.097039 0.821436 0.374778 0.459031
O7    O     O_2   0.857120 0.766320 0.543890 -0.403501
O8    O     O_3   0.056570 0.691100 0.379020 -0.403348
O9    O     O_2   0.968861 0.868870 0.425283 -0.409601
O10   O     O_3   0.732224 0.779894 0.688775 -0.575528
O11   O     O_3   0.040296 0.841484 0.262174 -0.448947
C2    C     C_3   0.055665 0.753533 0.203726 0.439830
H3    H     H_    0.981229 0.681036 0.219437 0.155037
H4    H     H_    0.187242 0.743530 0.208237 -0.011947
C3    C     C_3   0.993482 0.768799 0.106907 -0.675935
H5    H     H_    0.012766 0.702058 0.059833 0.196648
H6    H     H_    0.858565 0.772780 0.099110 0.308580
C4    C     C_3   0.254876 0.779363 0.654887 0.257686
H7    H     H_    0.367372 0.761274 0.628028 0.104262
H8    H     H_    0.143677 0.752486 0.602873 0.130241
C5    C     C_3   0.272334 0.897322 0.679200 -0.742518
H9    H     H_    0.261080 0.936061 0.616734 0.173064
H10   H     H_    0.397918 0.926923 0.718302 0.237183
Ba1   Ba    Ba6+2 0.843760 0.550230 0.455610 1.605957
C6    C     C_3   0.919563 0.221268 0.345366 0.330089
H11   H     H_    0.831735 0.263737 0.377711 0.076779
H12   H     H_    0.032397 0.224432 0.395434 0.130874
C7    C     C_3   0.835735 0.106149 0.316704 -0.848595
H13   H     H_    0.703632 0.098247 0.325284 0.161145
H14   H     H_    0.891251 0.054344 0.361875 0.212308
C8    C     C_3   0.776352 0.692396 0.727298 0.266035
H15   H     H_    0.870928 0.659708 0.692282 0.104784
H16   H     H_    0.664799 0.630831 0.722902 0.146422
C9    C     C_3   0.850235 0.724885 0.826714 -0.779945
H17   H     H_    0.976370 0.772440 0.832087 0.222043
H18   H     H_    0.863349 0.653959 0.860460 0.198646
P4    P     P_3+3 0.190950 0.596470 0.708020 0.460468
O12   O     O_2   0.361790 0.564680 0.722290 -0.373164
O13   O     O_3   0.089410 0.561080 0.608830 -0.413136
O14   O     O_3   0.564100 0.365890 0.666740 -0.368900
O15   O     O_3   0.241295 0.732081 0.733574 -0.555032
P5    P     P_3+3 0.084779 0.172401 0.620038 0.436733
O16   O     O_3   0.601940 0.368260 0.453780 -0.343197
O17   O     O_3   0.133140 0.308990 0.620990 -0.386819
O18   O     O_2   0.225773 0.126506 0.580168 -0.435958
O19   O     O_3   0.117483 0.145195 0.731970 -0.502106
Ba2   Ba    Ba6+2 0.346080 0.449860 0.544400 1.578400
P6    P     P_3+3 0.571261 0.649301 0.219227 0.486264
C10   C     C_3   0.537657 0.844251 0.251643 0.300906
H19   H     H_    0.442943 0.799374 0.285642 -0.029798
H20   H     H_    0.319147 0.910339 0.205332 0.137538
O20   O     O_3   0.587770 0.631830 0.546230 -0.382944
C11   C     C_3   0.435433 0.264044 0.240061 0.322748
C12   C     C_3   0.558406 0.249751 0.174536 -0.954451
H21   H     H_    0.535424 0.168072 0.141034 0.284818
H22   H     H_    0.545778 0.302821 0.121880 0.295410
H23   H     H_    0.685593 0.265748 0.210087 0.295552
P7    P     P_3+3 0.505829 0.235088 0.422295 0.478975
O21   O     O_2   0.332600 0.233710 0.456170 -0.368210
O22   O     O_3   0.454551 0.191974 0.304425 -0.545746
H24   H     H_    0.061516 0.842692 0.089066 0.254609
C13   C     C_3   0.101850 0.233032 0.790030 0.555654
H25   H     H_    0.201566 0.300077 0.786272 0.151764
H26   H     H_    0.977973 0.255904 0.772709 -0.025937
C14   C     C_3   0.120793 0.206024 0.886516 -0.902005
H27   H     H_    0.119599 0.276336 0.934146 0.190267
H28   H     H_    0.017477 0.142922 0.894231 0.253642
H29   H     H_    0.241149 0.178692 0.903573 0.305852
P8    P     P_3+3 0.599577 0.369530 0.781747 0.525344
C15   C     C_3   0.620905 0.178174 0.816517 0.402476
H30   H     H_    0.748063 0.220270 0.843308 0.026103
O23   O     O_2   0.485299 0.444112 0.814405 -0.335821
O24   O     O_3   0.504287 0.246361 0.805196 -0.499480
H31   H     H_    0.523581 0.145926 0.941089 0.296308
C16   C     C_3   0.567622 0.103400 0.883958 -0.597339
H32   H     H_    0.673594 0.065794 0.910497 0.214577
H33   H     H_    0.463752 0.041186 0.851984 0.251673
C17   C     C_R   0.355744 0.582927 0.172242 0.117098
H34   H     H_    0.291440 0.577175 0.306534 0.198673
H35   H     H_    0.504331 0.646743 0.032445 0.217517
C18   C     C_R   0.115562 0.470891 0.208444 0.313703
C19   C     C_R   0.921225 0.468992 0.769255 -0.551727
C20   C     C_R   0.820538 0.426006 0.829897 0.075252
C21   C     C_R   0.882582 0.432609 0.923444 0.291264
C22   C     C_R   0.055168 0.482567 0.955368 -0.114908
C23   C     C_R   0.149172 0.533139 0.891313 -0.088913
C24   C     C_R   0.136639 0.492395 0.049121 0.075088
C25   C     C_R   0.292810 0.559443 0.078005 -0.042416
C26   C     C_R   0.381393 0.600479 0.013036 0.027474
C27   C     C_R   0.310184 0.589915 0.922767 0.004850
C28   C     C_R   0.076215 0.434843 0.116516 -0.228635
C29   C     C_R   0.253145 0.550091 0.235394 -0.477101
C30   C     C_R   0.081413 0.526698 0.797297 0.243166
H36   H     H_    0.002375 0.359592 0.100473 0.203880
H37   H     H_    0.869243 0.462862 0.698655 0.188203
H38   H     H_    0.383118 0.630494 0.878367 0.193774
C31   C     C_R   0.766049 0.176515 0.528908 -0.489755
C32   C     C_R   0.417157 0.809648 0.465716 -0.482738
C33   C     C_R   0.374808 0.981839 0.431144 -0.279330
C34   C     C_R   0.315313 0.875386 0.428099 0.128953
C35   C     C_R   0.578715 0.848437 0.511062 0.285041
C36   C     C_R   0.644143 0.958677 0.514208 -0.017248
C37   C     C_R   0.539824 0.027274 0.474909 -0.090556
C38   C     C_R   0.606083 0.137540 0.482277 0.209992
C39   C     C_R   0.871449 0.110794 0.561580 0.204134
C40   C     C_R   0.810761 0.002486 0.554110 -0.091153
H39   H     H_    0.894366 0.953957 0.580947 0.145466
H40   H     H_    0.812993 0.259867 0.536191 0.157890
H41   H     H_    0.367159 0.727118 0.462334 0.171601
C41   C     C_2   0.139640 0.921744 0.734067 0.835103
H42   H     H_    0.010139 0.904318 0.704330 0.027220
O25   O     O_2   0.175337 0.957400 0.813591 -0.563509
C42   C     C_2   0.840418 0.067782 0.219628 0.959231
H43   H     H_    0.790117 0.108425 0.165755 0.039301
O26   O     O_2   0.899772 0.990180 0.199969 -0.485638
C43   C     C_2   0.742712 0.787478 0.874756 0.790512
H44   H     H_    0.726014 0.864160 0.856321 0.076364
O27   O     O_2   0.674270 0.752879 0.935275 -0.581118
C44   C     C_2   0.268288 0.235129 0.180968 0.698329
H45   H     H_    0.238385 0.281843 0.127513 -0.143300
O28   O     O_2   0.172500 0.155264 0.185501 -0.513675
C45   C     C_2   0.457514 0.376975 0.277373 0.417770
H46   H     H_    0.534985 0.435626 0.248658 0.099604
O29   O     O_2   0.378667 0.404844 0.335536 -0.532233
S1    S     S_3+6 0.455825 0.911329 0.078285 -0.002527
O30   O     O_2   0.631187 0.916886 0.058323 -0.219114
O31   O     O_2   0.350888 0.810934 0.032473 -0.303363
O32   O     O_3   0.375285 0.010959 0.037018 -0.524020
H47   H     H_    0.259671 0.002117 0.051058 0.370040
C46   C     C_2   0.627009 0.115531 0.728710 0.357541
H48   H     H_    0.553364 0.129078 0.667059 0.104867
O33   O     O_2   0.713949 0.047603 0.726823 -0.617691
S2    S     S_3+6 0.738782 0.381943 0.997207 -0.077615
O34   O     O_2   0.767914 0.452755 0.083256 -0.264878
O35   O     O_2   0.556781 0.374046 0.963581 -0.249127
O36   O     O_3   0.768541 0.261767 0.020799 -0.578264
H49   H     H_    0.860306 0.244659 0.988789 0.309810
C47   C     C_2   0.251365 0.038322 0.387987 0.786079
H50   H     H_    0.162284 0.067427 0.425897 0.011916
O37   O     O_2   0.228003 0.035966 0.306487 -0.532604

loop_
_geom_bond_atom_site_label_1
_geom_bond_atom_site_label_2
_geom_bond_distance
_ccdc_geom_bond_type
P1    C18   1.879282 S    
C10   H19   1.107709 S    
C24   C25   1.422032 A    
Ba2   O20   2.836448 S    
C27   H38   1.075967 S    
C5    H10   1.108426 S    
C2    C3    1.520986 S    
S2    O35   1.496658 D    
Ba1   O13   2.832228 S    
C39   C40   1.407921 A    
C15   O24   1.408690 S    
O6    C10   1.406628 S    
S1    O32   1.679510 S    
C45   H46   1.076007 S    
C33   C47   1.463272 S    
P6    C17   1.856749 S    
C16   H32   1.111355 S    
C15   C46   1.493610 S    
C41   H42   1.077300 S    
C31   C38   1.397342 A    
C31   C39   1.386700 A    
C4    H8    1.107341 S    
P1    O1    1.516886 D    
C8    C9    1.529827 S    
C11   O22   1.423001 S    
H31   C16   1.107344 S    
S2    O36   1.684286 S    
P2    O7    1.493062 D    
C23   C27   1.406208 A    
C36   C37   1.445113 A    
C2    H4    1.101582 S    
C12   H22   1.105724 S    
C7    H13   1.098373 S    
C40   H39   1.070074 S    
H34   C29   1.082214 S    
O12   Ba2   2.911268 S    
P4    Ba2   3.461202 S    
P5    O18   1.543603 D    
C26   C27   1.390578 A    
P2    Ba1   3.499617 S    
C13   H25   1.110108 S    
P3    O11   1.752226 S    
C35   C36   1.444974 A    
C6    H12   1.106775 S    
C1    C10   1.548848 S    
P2    O20   1.619821 S    
Ba2   O21   2.970073 S    
C1    H2    1.101783 S    
C1    H20   1.098735 S    
O19   C13   1.402127 S    
O10   C8    1.402248 S    
C18   C29   1.391174 A    
C5    C41   1.503287 S    
C9    H18   1.108814 S    
O5    C6    1.396811 S    
O13   Ba2   2.946825 S    
C11   C12   1.519011 S    
O16   P7    1.778783 S    
C3    H5    1.110389 S    
C3    H24   1.109122 S    
O8    Ba1   2.770420 S    
H1    C10   1.110174 S    
C32   C34   1.394444 A    
O14   P8    1.710633 S    
C16   H33   1.101684 S    
C21   S2    1.816654 S    
C1    S1    1.787615 S    
Ba1   Ba2   4.501711 S    
O17   Ba2   2.771039 S    
P1    O5    1.740646 S    
O7    Ba1   2.969799 S    
C31   H40   1.082637 S    
C15   H30   1.103993 S    
C47   O37   1.212128 D    
C22   C23   1.454649 A    
C14   H28   1.110444 S    
C2    H3    1.104607 S    
C11   C45   1.495574 S    
C36   C40   1.424161 A    
C12   H21   1.107773 S    
P1    O2    1.597297 S    
P7    O22   1.780599 S    
O2    Ba1   2.946007 S    
P4    O12   1.517195 D    
C8    H15   1.107756 S    
C22   C24   1.463592 A    
C32   H41   1.081916 S    
P2    O10   1.747757 S    
O4    P6    1.529709 D    
P7    C38   1.859544 S    
C6    H11   1.106982 S    
P3    O9    1.544366 D    
S2    O34   1.482634 D    
C4    C5    1.522747 S    
O11   C2    1.405856 S    
C6    C7    1.541819 S    
C17   C25   1.429248 A    
C4    H7    1.103499 S    
P4    O13   1.597298 S    
C42   O26   1.215670 D    
C46   O33   1.220182 D    
C9    H17   1.108387 S    
Ba1   O16   2.837055 S    
P3    O8    1.685843 S    
C3    H6    1.107646 S    
P2    C35   1.894670 S    
C44   H45   1.080055 S    
C12   H23   1.087273 S    
C43   O27   1.217168 D    
S1    O30   1.500169 D    
C24   C28   1.413522 A    
C28   H36   1.055578 S    
C7    C42   1.503536 S    
C33   C37   1.433801 A    
O3    P6    1.752664 S    
C4    O15   1.395332 S    
C19   H37   1.081522 S    
P4    C30   1.932442 S    
C46   H48   1.083619 S    
S1    O31   1.496597 D    
C45   O29   1.214521 D    
C15   C16   1.530642 S    
C14   H29   1.108499 S    
C42   H43   1.082077 S    
O32   H47   0.990341 S    
C11   C44   1.505236 S    
C9    C43   1.496977 S    
C33   C34   1.389222 A    
O1    Ba1   2.910868 S    
C47   H50   1.075384 S    
C17   C29   1.403484 A    
P7    O21   1.569619 D    
C20   C21   1.421526 A    
C14   H27   1.107773 S    
C8    H16   1.108350 S    
C37   C38   1.440925 A    
P3    C34   1.861007 S    
O2    Ba2   2.832817 S    
C21   C22   1.459826 A    
P4    O15   1.740974 S    
C13   C14   1.520174 S    
O16   Ba2   2.925272 S    
Ba1   O20   2.926163 S    
O14   Ba2   2.814348 S    
P5    O17   1.757974 S    
P1    Ba1   3.460666 S    
C41   O25   1.220133 D    
C7    H14   1.108126 S    
C25   C26   1.391011 A    
P8    O23   1.541062 D    
C19   C30   1.397590 A    
H35   C26   1.078716 S    
P8    C20   1.867142 S    
P5    O19   1.748963 S    
P5    C39   1.870602 S    
C19   C20   1.407087 A    
C13   H26   1.108982 S    
C5    H9    1.108882 S    
C44   O28   1.214493 D    
O36   H49   0.987302 S    
O6    P6    1.756666 S    
C43   H44   1.085555 S    
P8    O24   1.759498 S    
C32   C35   1.401195 A    
O3    Ba1   2.814998 S    
C23   C30   1.439265 A    
C18   C28   1.394493 A    
