data_mof_unit_36534.cif
_audit_creation_date              2012-12-11T14:27:09-0500
_audit_creation_method            fapswitch 2.2
_symmetry_space_group_name_H-M    P1
_symmetry_Int_Tables_number       1
_space_group_crystal_system       triclinic
_cell_length_a                    15.255647
_cell_length_b                    14.995393
_cell_length_c                    14.855072
_cell_angle_alpha                 109.727691
_cell_angle_beta                  109.802849
_cell_angle_gamma                 109.358902
_cell_volume                      2600.514265

loop_
_atom_site_label
_atom_site_type_symbol
_atom_type_description
_atom_site_fract_x
_atom_site_fract_y
_atom_site_fract_z
_atom_type_partial_charge
C1    C     C_R   0.987651 0.795296 0.083351 -0.178343
C2    C     C_R   0.200875 0.804497 0.294627 -0.115557
C3    C     C_R   0.970634 0.414190 0.228068 -0.135347
C4    C     C_R   0.777343 0.237271 0.683906 -0.068624
C5    C     C_R   0.314263 0.591820 0.046697 -0.132731
C6    C     C_R   0.052635 0.508169 0.329170 0.134500
C7    C     C_R   0.323349 0.498496 0.014378 -0.024755
C8    C     C_R   0.291790 0.871452 0.298820 0.032511
C9    C     C_R   0.032558 0.210963 0.041083 0.112470
C10   C     C_3   0.515568 0.381081 0.023416 -0.075309
C11   C     C_3   0.407256 0.377990 0.998792 -0.187751
C12   C     C_R   0.676184 0.204784 0.671867 0.092505
C13   C     C_3   0.624283 0.585297 0.164760 -0.456233
C14   C     C_3   0.550370 0.521575 0.960047 -0.432177
C15   C     C_3   0.598838 0.496699 0.052726 0.290717
C16   C     C_R   0.074211 0.587745 0.780586 -0.155205
C17   C     C_3   0.422950 0.496318 0.032753 0.195625
C18   C     C_3   0.519588 0.585070 0.154255 0.016391
C19   C     C_3   0.451010 0.528037 0.953026 -0.450475
C20   C     C_2   0.380293 0.050013 0.474890 0.172637
C21   C     C_2   0.358568 0.993486 0.368427 -0.139250
C22   C     C_2   0.488989 0.145785 0.558708 -0.024168
C23   C     C_R   0.035231 0.495142 0.682917 0.045402
C24   C     C_2   0.574868 0.135527 0.567588 -0.208778
C25   C     C_2   0.100045 0.444214 0.554809 -0.110042
C26   C     C_2   0.052892 0.496069 0.593728 -0.261707
C27   C     C_2   0.101391 0.435833 0.453794 0.040552
C28   C     C_R   0.700017 0.408329 0.998021 -0.160369
C29   C     C_2   0.109541 0.520013 0.437016 -0.346438
C30   C     C_2   0.153266 0.145001 0.107424 -0.109782
C31   C     C_2   0.072046 0.161866 0.101255 -0.218675
C32   C     C_2   0.152791 0.052548 0.120042 -0.073389
C33   C     C_2   0.057413 0.961342 0.069610 -0.215670
C34   C     C_R   0.695978 0.499263 0.054767 0.022774
C35   C     C_R   0.992390 0.406215 0.694542 -0.000614
C36   C     C_R   0.788153 0.591408 0.088526 -0.134651
C37   C     C_R   0.687487 0.240387 0.776121 -0.134982
C38   C     C_R   0.087139 0.801297 0.001605 0.169013
C39   C     C_R   0.046410 0.857651 0.053103 0.084283
C40   C     C_3   0.560072 0.348954 0.112072 -0.388046
C41   C     C_3   0.518672 0.225070 0.060475 -0.280253
C42   C     C_3   0.543242 0.193089 0.149470 -0.881060
C43   C     C_2   0.345959 0.314757 0.038285 0.437465
C44   C     C_3   0.500008 0.576438 0.247644 -0.437965
C45   C     C_R   0.066334 0.595945 0.314300 -0.131173
C46   C     C_3   0.575131 0.685262 0.358701 -0.257626
C47   C     C_3   0.555104 0.675627 0.449808 -0.889030
C48   C     C_3   0.307612 0.007026 0.517857 -0.442059
C49   C     C_3   0.344748 0.084161 0.639258 -0.287030
C50   C     C_3   0.265261 0.034381 0.672518 -0.896383
C51   C     C_2   0.411446 0.053315 0.322014 0.485295
C52   C     C_2   0.086979 0.334171 0.371871 0.489504
C53   C     C_2   0.974424 0.296256 0.629277 0.401694
C54   C     C_3   0.180410 0.850281 0.986064 -0.465805
C55   C     C_3   0.147455 0.874534 0.891303 -0.221989
C56   C     C_R   0.221431 0.407852 0.944264 -0.124063
C57   C     C_3   0.239797 0.915179 0.869897 -0.907601
C58   C     C_R   0.294403 0.805002 0.208574 -0.150040
C59   C     C_R   0.955776 0.234283 0.048236 -0.156264
C60   C     C_R   0.059242 0.243359 0.971803 -0.098815
H1    H     H_    0.955623 0.820678 0.135732 0.118273
H2    H     H_    0.355115 0.328626 0.906371 0.137261
H3    H     H_    0.793675 0.219146 0.617006 0.116161
H4    H     H_    0.663033 0.571386 0.232839 0.162130
H5    H     H_    0.610291 0.600733 0.976261 0.175891
H6    H     H_    0.527892 0.456219 0.878408 0.165937
H7    H     H_    0.382639 0.472362 0.865692 0.178749
H8    H     H_    0.466890 0.612707 0.974716 0.170036
H9    H     H_    0.683337 0.668017 0.187360 0.145290
H10   H     H_    0.531831 0.666461 0.165687 0.120028
H11   H     H_    0.127462 0.669025 0.802619 0.128852
H12   H     H_    0.197502 0.324672 0.889639 0.142540
H13   H     H_    0.498798 0.214829 0.625320 0.105046
H14   H     H_    0.567988 0.067540 0.502448 0.125719
H15   H     H_    0.128661 0.400445 0.590968 0.148799
H16   H     H_    0.022962 0.539401 0.557961 0.159612
H17   H     H_    0.142899 0.600223 0.507462 0.157643
H18   H     H_    0.209275 0.186464 0.087299 0.184320
H19   H     H_    0.024612 0.128564 0.134512 0.161896
H20   H     H_    0.228510 0.055218 0.158453 0.144916
H21   H     H_    0.647483 0.323471 0.967865 0.091793
H22   H     H_    0.981354 0.958134 0.029560 0.144889
H23   H     H_    0.345228 0.832098 0.176524 0.077372
H24   H     H_    0.814112 0.676445 0.139761 0.091027
H25   H     H_    0.624135 0.225118 0.795923 0.087139
H26   H     H_    0.121440 0.681632 0.376496 0.100476
H27   H     H_    0.631388 0.239416 0.209138 0.260817
H28   H     H_    0.500662 0.210380 0.194864 0.282761
H29   H     H_    0.515273 0.104042 0.109990 0.239787
H30   H     H_    0.430670 0.177053 0.001754 0.245943
H31   H     H_    0.557698 0.201811 0.012876 0.182837
H32   H     H_    0.649486 0.391088 0.155829 0.185382
H33   H     H_    0.540507 0.376868 0.177883 0.188524
H34   H     H_    0.907919 0.206353 0.082405 0.098474
H35   H     H_    0.357987 0.353666 0.120743 0.021325
H36   H     H_    0.470660 0.653697 0.427528 0.261126
H37   H     H_    0.570328 0.612047 0.462248 0.262330
H38   H     H_    0.610342 0.755366 0.528892 0.249085
H39   H     H_    0.660654 0.709645 0.384180 0.203263
H40   H     H_    0.561163 0.750739 0.349603 0.193621
H41   H     H_    0.415521 0.554244 0.225321 0.197894
H42   H     H_    0.513106 0.511945 0.259382 0.189928
H43   H     H_    0.184956 0.021160 0.620224 0.271479
H44   H     H_    0.257139 0.954806 0.662796 0.253472
H45   H     H_    0.111051 0.227937 0.942778 0.147901
H46   H     H_    0.295099 0.091047 0.760749 0.263440
H47   H     H_    0.424647 0.099365 0.695711 0.192971
H48   H     H_    0.351078 0.163560 0.650158 0.203351
H49   H     H_    0.227199 0.993960 0.466200 0.200537
H50   H     H_    0.301919 0.929036 0.511210 0.193230
H51   H     H_    0.416799 0.010343 0.250994 -0.012580
H52   H     H_    0.098696 0.331334 0.303107 0.023402
H53   H     H_    0.956099 0.265244 0.543994 0.063548
H54   H     H_    0.311597 0.989975 0.946399 0.274193
H55   H     H_    0.261268 0.850983 0.842731 0.247063
H56   H     H_    0.159373 0.830054 0.334159 0.090943
H57   H     H_    0.214755 0.935415 0.803701 0.261938
H58   H     H_    0.076223 0.799785 0.813983 0.187743
H59   H     H_    0.124669 0.938492 0.912534 0.224994
H60   H     H_    0.248005 0.926132 0.063931 0.176127
H61   H     H_    0.213779 0.795036 0.972094 0.180992
H62   H     H_    0.929833 0.333788 0.215790 0.090273
H63   H     H_    0.377148 0.676835 0.093477 0.090741
H64   H     H_    0.498169 0.318694 0.942949 0.112134
N1    N     N_R   0.993980 0.704500 0.053430 -0.052983
N2    N     N_R   0.053690 0.556380 0.849240 -0.055464
N3    N     N_R   0.790390 0.443640 0.997160 -0.034509
N4    N     N_R   0.998260 0.443670 0.792970 -0.045174
N5    N     N_R   0.845830 0.556350 0.053430 -0.034440
N6    N     N_R   0.792820 0.295510 0.849240 -0.049299
N7    N     N_R   0.051260 0.704510 0.997160 -0.064275
N8    N     N_R   0.001740 0.556330 0.207030 -0.044221
N9    N     N_R   0.154170 0.443650 0.946570 -0.028384
N10   N     N_R   0.207180 0.704490 0.150760 -0.037806
N11   N     N_R   0.948740 0.295490 0.002840 -0.044294
N12   N     N_R   0.006020 0.295500 0.946570 -0.035946
N13   N     N_R   0.149890 0.704480 0.207030 -0.040555
N14   N     N_R   0.946310 0.443620 0.150760 -0.042458
N15   N     N_R   0.209610 0.556360 0.002840 -0.040312
N16   N     N_R   0.850110 0.295520 0.792970 -0.035013
Ni1   Ni    Ni4+2 0.997880 0.629240 0.129060 0.200461
Ni2   Ni    Ni4+2 0.002120 0.370760 0.870940 0.288508
Ni3   Ni    Ni4+2 0.129260 0.629260 0.000000 0.195695
Ni4   Ni    Ni4+2 0.870740 0.370740 0.000000 0.209478
O1    O     O_2   0.281378 0.216834 0.975455 -0.639628
O2    O     O_2   0.446243 0.151742 0.360447 -0.581527
O3    O     O_2   0.063520 0.253075 0.381503 -0.598188
O4    O     O_2   0.981113 0.239452 0.670960 -0.589568

loop_
_geom_bond_atom_site_label_1
_geom_bond_atom_site_label_2
_ccdc_geom_bond_type
C18   H10   S    
C48   H50   S    
C46   H39   S    
C50   H44   S    
C6    C45   A    
C54   H60   S    
C35   C53   S    
C41   C42   S    
C40   H33   S    
C3    C6    A    
N6    N16   A    
N10   N13   A    
C56   N9    A    
N11   N12   A    
C49   H47   S    
C55   H59   S    
C58   N10   A    
C4    H3    S    
N9    Ni2   S    
C33   C39   S    
C47   H38   S    
C13   C18   S    
C37   H25   S    
C1    N1    A    
C10   H64   S    
C10   C15   S    
C30   C31   D    
C32   H20   S    
C52   H52   S    
N8    N14   A    
C46   H40   S    
N2    Ni3   S    
C37   N6    A    
C10   C40   S    
C23   C26   S    
C12   C37   A    
N12   Ni2   S    
C53   H53   S    
C8    C58   A    
N10   Ni3   S    
C46   C47   S    
N15   Ni3   S    
N1    Ni1   S    
C9    C31   S    
C56   H12   S    
C5    H63   S    
C43   H35   S    
C47   H36   S    
C19   H7    S    
C59   H34   S    
C51   H51   S    
C4    C12   A    
N6    Ni4   S    
C33   H22   S    
C60   N12   A    
C15   C34   S    
C28   N3    A    
C11   H2    S    
C48   H49   S    
C28   C34   A    
C50   H43   S    
C16   N2    A    
C16   H11   S    
C2    H56   S    
C7    C56   A    
C44   C46   S    
C5    N15   A    
C49   H48   S    
C57   H55   S    
C5    C7    A    
C44   H42   S    
C51   O2    D    
C7    C17   S    
C25   C26   D    
C53   O4    D    
C1    H1    S    
C25   H15   S    
N3    N5    A    
C43   O1    D    
C18   C44   S    
C4    N16   A    
N1    N7    A    
C26   H16   S    
C38   C54   S    
C17   C18   S    
C14   H6    S    
C29   H17   S    
C19   H8    S    
C3    N14   A    
C40   H32   S    
C11   C43   S    
C20   C48   S    
N11   Ni4   S    
C41   H31   S    
C54   H61   S    
C20   C22   S    
N9    N15   A    
C16   C23   A    
C23   C35   A    
C55   C57   S    
C22   C24   D    
C42   H28   S    
C21   C51   S    
N7    Ni3   S    
C27   C52   S    
C57   H57   S    
N8    Ni1   S    
N13   Ni1   S    
C54   C55   S    
C11   C17   S    
N2    N4    A    
C28   H21   S    
C2    N13   A    
C14   C19   S    
C2    C8    A    
N16   Ni2   S    
C8    C21   S    
C44   H41   S    
C3    H62   S    
C31   H19   S    
C57   H54   S    
C25   C27   S    
C27   C29   D    
C12   C24   S    
C47   H37   S    
C9    C60   A    
C32   C33   D    
C42   H29   S    
C13   C15   S    
C45   H26   S    
N14   Ni4   S    
C58   H23   S    
C38   N7    A    
C30   C32   S    
C24   H14   S    
C38   C39   A    
C13   H4    S    
C13   H9    S    
C36   H24   S    
C48   C49   S    
C59   N11   A    
C17   C19   S    
C14   H5    S    
C41   H30   S    
C34   C36   A    
N3    Ni4   S    
C35   N4    A    
C10   C11   S    
C1    C39   A    
C30   H18   S    
C6    C29   S    
N5    Ni1   S    
C20   C21   D    
C45   N8    A    
C49   C50   S    
C50   H46   S    
C14   C15   S    
C40   C41   S    
C42   H27   S    
C22   H13   S    
C9    C59   A    
C36   N5    A    
N4    Ni2   S    
C60   H45   S    
C52   O3    D    
C55   H58   S    
