data_mof_unit_58442.cif
_audit_creation_date              2012-12-11T16:44:09-0500
_audit_creation_method            fapswitch 2.2
_symmetry_space_group_name_H-M    P1
_symmetry_Int_Tables_number       1
_space_group_crystal_system       triclinic
_cell_length_a                    27.143848
_cell_length_b                    7.207413
_cell_length_c                    22.77863
_cell_angle_alpha                 89.998946
_cell_angle_beta                  101.263448
_cell_angle_gamma                 89.999632
_cell_volume                      4370.5095605

loop_
_atom_site_label
_atom_site_type_symbol
_atom_type_description
_atom_site_fract_x
_atom_site_fract_y
_atom_site_fract_z
_atom_type_partial_charge
O1    O     O_R   0.707300 0.594030 0.176840 -0.531905
O2    O     O_R   0.292700 0.405970 0.823160 -0.531905
O3    O     O_R   0.792700 0.094030 0.323160 -0.531903
O4    O     O_R   0.207300 0.905970 0.676840 -0.531903
O5    O     O_R   0.697330 0.262360 0.295660 -0.539747
O6    O     O_R   0.302670 0.737640 0.704340 -0.539747
O7    O     O_R   0.802670 0.762360 0.204340 -0.539746
O8    O     O_R   0.197330 0.237640 0.795660 -0.539746
C1    C     C_R   0.684774 0.432230 0.311762 0.699655
C2    C     C_R   0.315226 0.567770 0.688238 0.699654
C3    C     C_R   0.815226 0.932231 0.188238 0.699656
C4    C     C_R   0.184774 0.067769 0.811762 0.699656
O9    O     O_R   0.701410 0.264250 0.175600 -0.533762
O10   O     O_R   0.298590 0.735750 0.824400 -0.533762
O11   O     O_R   0.798590 0.764250 0.324400 -0.533766
O12   O     O_R   0.201410 0.235750 0.675600 -0.533766
O13   O     O_R   0.796800 0.094950 0.202240 -0.537819
O14   O     O_R   0.203200 0.905050 0.797760 -0.537818
O15   O     O_R   0.703200 0.594950 0.297760 -0.537818
O16   O     O_R   0.296800 0.405050 0.702240 -0.537818
C5    C     C_R   0.689782 0.432511 0.153485 0.705015
C6    C     C_R   0.310218 0.567488 0.846515 0.705016
C7    C     C_R   0.810218 0.932508 0.346515 0.705014
C8    C     C_R   0.189782 0.067492 0.653485 0.705014
O17   O     O_3   0.781290 0.427390 0.258880 -0.374683
O18   O     O_3   0.218710 0.572610 0.741120 -0.374683
O19   O     O_3   0.718710 0.927390 0.241120 -0.374682
O20   O     O_3   0.281290 0.072610 0.758880 -0.374682
V1    V     V_3+5 0.744190 0.152150 0.248350 1.440883
V2    V     V_3+5 0.255810 0.847850 0.751650 1.440883
V3    V     V_3+5 0.755810 0.652150 0.251650 1.440882
V4    V     V_3+5 0.244190 0.347850 0.748350 1.440883
C9    C     C_R   0.154967 0.062541 0.595019 -0.094156
C10   C     C_R   0.845033 0.937459 0.404981 -0.094156
C11   C     C_R   0.345032 0.562522 0.904981 -0.094152
C12   C     C_R   0.654968 0.437478 0.095019 -0.094153
C13   C     C_R   0.140107 0.124185 0.488524 0.284358
C14   C     C_R   0.859893 0.875815 0.511476 0.284359
C15   C     C_R   0.359886 0.624057 0.011481 0.284361
C16   C     C_R   0.640114 0.375943 0.988518 0.284362
C17   C     C_R   0.172525 0.115088 0.543989 -0.173780
C18   C     C_R   0.827475 0.884912 0.456011 -0.173779
C19   C     C_R   0.327469 0.614993 0.956015 -0.173791
C20   C     C_R   0.672530 0.385007 0.043985 -0.173790
C21   C     C_R   0.103960 0.019102 0.590660 -0.205501
C22   C     C_R   0.896040 0.980898 0.409340 -0.205501
C23   C     C_R   0.396042 0.519128 0.909338 -0.205501
C24   C     C_R   0.603958 0.480872 0.090662 -0.205502
C25   C     C_R   0.069306 0.029974 0.534939 0.054923
C26   C     C_R   0.930694 0.970026 0.465061 0.054923
C27   C     C_R   0.430694 0.529962 0.965061 0.054923
C28   C     C_R   0.569306 0.470038 0.034939 0.054923
C29   C     C_R   0.088438 0.083115 0.483486 0.050555
C30   C     C_R   0.911562 0.916884 0.516514 0.050555
C31   C     C_R   0.411557 0.583027 0.016518 0.050548
C32   C     C_R   0.588442 0.416973 0.983482 0.050548
C33   C     C_R   0.016415 0.992221 0.528695 0.075233
C34   C     C_R   0.983585 0.007778 0.471305 0.075233
C35   C     C_R   0.483586 0.492243 0.971304 0.075231
C36   C     C_R   0.516414 0.507757 0.028696 0.075230
C37   C     C_R   0.004772 0.059973 0.421990 -0.184121
C38   C     C_R   0.995228 0.940027 0.578010 -0.184121
C39   C     C_R   0.495222 0.559877 0.078015 -0.184121
C40   C     C_R   0.504778 0.440123 0.921985 -0.184121
C41   C     C_R   0.055701 0.096185 0.428012 -0.123841
C42   C     C_R   0.944299 0.903814 0.571988 -0.123841
C43   C     C_R   0.444292 0.596057 0.071994 -0.123841
C44   C     C_R   0.555708 0.403943 0.928006 -0.123841
H1    H     H_    0.069030 0.135892 0.388072 0.192067
H2    H     H_    0.930970 0.864107 0.611928 0.192067
H3    H     H_    0.430959 0.635706 0.111936 0.192070
H4    H     H_    0.569041 0.364294 0.888063 0.192070
H5    H     H_    0.982961 0.074958 0.377441 0.135160
H6    H     H_    0.017039 0.925041 0.622559 0.135160
H7    H     H_    0.517031 0.574826 0.122566 0.135164
H8    H     H_    0.482969 0.425174 0.877434 0.135164
C45   C     C_R   0.863414 0.788198 0.115770 -0.177544
C46   C     C_R   0.136584 0.211801 0.884228 -0.177543
C47   C     C_R   0.636580 0.288190 0.384224 -0.177544
C48   C     C_R   0.363419 0.711811 0.615775 -0.177544
H9    H     H_    0.842236 0.661112 0.116444 0.151122
H10   H     H_    0.157762 0.338887 0.883555 0.151122
H11   H     H_    0.657755 0.161098 0.383547 0.151121
H12   H     H_    0.342244 0.838904 0.616451 0.151121
C49   C     C_R   0.898930 0.798789 0.078573 0.336873
C50   C     C_R   0.101068 0.201209 0.921425 0.336874
C51   C     C_R   0.601064 0.298783 0.421421 0.336868
C52   C     C_R   0.398935 0.701220 0.578578 0.336867
C53   C     C_R   0.926786 0.963059 0.076499 0.065641
C54   C     C_R   0.073212 0.036938 0.923499 0.065642
C55   C     C_R   0.573212 0.463061 0.423499 0.065644
C56   C     C_R   0.426787 0.536941 0.576500 0.065643
C57   C     C_R   0.917648 0.115697 0.111057 -0.113864
C58   C     C_R   0.082351 0.884302 0.888941 -0.113867
C59   C     C_R   0.582354 0.615704 0.388944 -0.113863
C60   C     C_R   0.417646 0.384296 0.611055 -0.113860
H13   H     H_    0.938618 0.243086 0.110027 0.188132
H14   H     H_    0.061381 0.756914 0.889970 0.188131
H15   H     H_    0.561386 0.743096 0.389975 0.188135
H16   H     H_    0.438613 0.256902 0.610023 0.188136
C61   C     C_R   0.881592 0.105676 0.147268 -0.152256
C62   C     C_R   0.118408 0.894323 0.852731 -0.152257
C63   C     C_R   0.618411 0.605682 0.352734 -0.152259
C64   C     C_R   0.381589 0.394318 0.647266 -0.152257
C65   C     C_R   0.854111 0.941580 0.150321 -0.100081
C66   C     C_R   0.145888 0.058420 0.849678 -0.100082
C67   C     C_R   0.645888 0.441578 0.349678 -0.100082
C68   C     C_R   0.354112 0.558422 0.650322 -0.100082
C69   C     C_R   0.011566 0.890262 0.051823 0.346381
C70   C     C_R   0.988432 0.109734 0.948175 0.346382
C71   C     C_R   0.488427 0.390306 0.448168 0.346373
C72   C     C_R   0.511572 0.609697 0.551830 0.346373
C73   C     C_R   0.046385 0.910050 0.014164 -0.136014
C74   C     C_R   0.953613 0.089946 0.985833 -0.136014
C75   C     C_R   0.453609 0.410093 0.485827 -0.136001
C76   C     C_R   0.546390 0.589910 0.514172 -0.136001
C77   C     C_R   0.035421 0.020076 0.962393 -0.029489
C78   C     C_R   0.964577 0.979920 0.037604 -0.029490
C79   C     C_R   0.464577 0.520079 0.537605 -0.029486
C80   C     C_R   0.535421 0.479924 0.462393 -0.029486
Br1   Br    Br    0.030356 0.744151 0.123085 -0.405945
Br2   Br    Br    0.969643 0.255845 0.876913 -0.405946
Br3   Br    Br    0.469633 0.244249 0.376898 -0.405941
Br4   Br    Br    0.530366 0.755755 0.623100 -0.405940
H17   H     H_    0.082399 0.840723 0.025599 0.200887
H18   H     H_    0.917599 0.159273 0.974398 0.200888
H19   H     H_    0.417591 0.340797 0.474387 0.200878
H20   H     H_    0.582408 0.659207 0.525612 0.200878
H21   H     H_    0.907346 0.018226 0.368160 0.108396
H22   H     H_    0.092654 0.981774 0.631840 0.108396
H23   H     H_    0.592650 0.518145 0.131845 0.108392
H24   H     H_    0.407350 0.481855 0.868155 0.108393
H25   H     H_    0.788197 0.849608 0.452582 0.151730
H26   H     H_    0.211802 0.150392 0.547417 0.151730
H27   H     H_    0.711810 0.349739 0.047412 0.151729
H28   H     H_    0.288190 0.650261 0.952588 0.151729
Br5   Br    Br    0.169186 0.197945 0.421579 -0.425968
Br6   Br    Br    0.830814 0.802055 0.578420 -0.425968
Br7   Br    Br    0.330801 0.697712 0.078431 -0.425946
Br8   Br    Br    0.669199 0.302288 0.921569 -0.425945
Br9   Br    Br    0.906465 0.589058 0.029180 -0.489933
Br10  Br    Br    0.093532 0.410937 0.970818 -0.489933
Br11  Br    Br    0.593522 0.089043 0.470809 -0.489949
Br12  Br    Br    0.406477 0.910963 0.529191 -0.489950
H29   H     H_    0.875539 0.226397 0.173271 0.143398
H30   H     H_    0.124462 0.773603 0.826728 0.143398
H31   H     H_    0.624467 0.726408 0.326735 0.143400
H32   H     H_    0.375533 0.273591 0.673265 0.143400

loop_
_geom_bond_atom_site_label_1
_geom_bond_atom_site_label_2
_ccdc_geom_bond_type
O17   V3    S    
C4    C66   S    
C25   C29   A    
O1    C5    A    
C51   C55   A    
O19   V1    S    
C9    C21   A    
C64   H32   S    
C2    C68   S    
C10   C18   A    
O1    V3    S    
C48   H12   S    
O15   V3    S    
C22   H21   S    
C47   C51   A    
C63   H31   S    
C33   C38   A    
C5    C12   S    
C42   H2    S    
O7    C3    A    
C6    C11   S    
C61   H29   S    
C35   C40   A    
C26   C30   A    
C18   H25   S    
C40   C44   A    
O9    V1    S    
C56   C79   S    
C14   C18   A    
C74   H18   S    
C59   H15   S    
C72   C76   A    
C73   H17   S    
C58   H14   S    
C60   H16   S    
C56   C60   A    
C75   H19   S    
O2    V4    S    
O3    V1    S    
C28   C36   A    
O3    C7    A    
C1    O15   A    
C15   C31   A    
C52   C56   A    
C2    O16   A    
C16   C32   A    
C3    C65   S    
C24   H23   S    
C12   C24   A    
C10   C22   A    
C21   C25   A    
C11   C19   A    
C70   C74   A    
C43   H3    S    
C44   H4    S    
C13   C29   A    
C46   C50   A    
C34   C37   A    
O11   C7    A    
C11   C23   A    
C21   H22   S    
O12   C8    A    
C13   Br5   S    
C53   C57   A    
O10   V2    S    
C70   C77   A    
C17   H26   S    
C59   C63   A    
C69   C78   A    
C54   C58   A    
O5    V1    S    
C61   C65   A    
C47   C67   A    
C15   Br7   S    
O7    V3    S    
C38   C42   A    
C71   Br3   S    
C26   C34   A    
C54   C77   S    
C50   C54   A    
C57   C61   A    
C49   C53   A    
O18   V4    S    
C15   C19   A    
C37   H5    S    
C32   C44   A    
C55   C59   A    
C76   C80   A    
C71   C80   A    
O8    V4    S    
C39   C43   A    
O5    C1    A    
C71   C75   A    
C46   H10   S    
C31   C43   A    
C14   C30   A    
C24   C28   A    
O8    C4    A    
C7    C10   S    
C40   H8    S    
O9    C5    A    
C35   C36   A    
O11   V3    S    
C74   C78   A    
C73   C77   A    
O6    V2    S    
C75   C79   A    
C60   C64   A    
O14   V2    S    
C36   C39   A    
C12   C20   A    
C27   C35   A    
C49   Br9   S    
C57   H13   S    
C64   C68   A    
C29   C41   A    
C50   Br10  S    
O16   V4    S    
C48   C68   A    
C3    O13   A    
C55   C80   S    
O6    C2    A    
C72   C79   A    
C23   C27   A    
C72   Br4   S    
C30   C42   A    
C69   C73   A    
O12   V4    S    
C22   C26   A    
C8    C9    S    
C23   H24   S    
C46   C66   A    
C9    C17   A    
O10   C6    A    
O20   V2    S    
C48   C52   A    
O13   V1    S    
C70   Br2   S    
C47   H11   S    
C69   Br1   S    
C33   C34   A    
C25   C33   A    
C39   H7    S    
C20   H27   S    
O4    C8    A    
C41   H1    S    
C16   Br8   S    
C45   C65   A    
O2    C6    A    
C62   C66   A    
C27   C31   A    
C13   C17   A    
C19   H28   S    
O4    V2    S    
C45   C49   A    
C37   C41   A    
C16   C20   A    
C53   C78   S    
C58   C62   A    
C45   H9    S    
C76   H20   S    
C4    O14   A    
C1    C67   S    
C38   H6    S    
C63   C67   A    
C14   Br6   S    
C51   Br11  S    
C52   Br12  S    
C62   H30   S    
C28   C32   A    
