data_mof_unit_48344.cif
_audit_creation_date              2012-12-11T16:51:19-0500
_audit_creation_method            fapswitch 2.2
_symmetry_space_group_name_H-M    P1
_symmetry_Int_Tables_number       1
_space_group_crystal_system       triclinic
_cell_length_a                    24.77089
_cell_length_b                    17.40241
_cell_length_c                    15.605963
_cell_angle_alpha                 89.999979
_cell_angle_beta                  129.735906
_cell_angle_gamma                 90.00003
_cell_volume                      5173.29700994

loop_
_atom_site_label
_atom_site_type_symbol
_atom_type_description
_atom_site_fract_x
_atom_site_fract_y
_atom_site_fract_z
_atom_type_partial_charge
C1    C     C_R   0.832583 0.891081 0.199858 -0.122211
C2    C     C_R   0.184119 0.109530 0.501653 0.061078
C3    C     C_3   0.423379 0.440544 0.747651 -0.984846
C4    C     C_2   0.745762 0.069278 0.295964 0.464048
C5    C     C_2   0.254238 0.069278 0.704036 0.464050
C6    C     C_2   0.245761 0.569279 0.295964 0.464049
C7    C     C_2   0.754238 0.569279 0.704036 0.464048
C8    C     C_R   0.315881 0.609530 0.498347 0.061073
C9    C     C_R   0.684119 0.609530 0.501653 0.061076
C10   C     C_R   0.885698 0.184045 0.215496 0.156582
C11   C     C_R   0.114302 0.184045 0.784504 0.156583
C12   C     C_R   0.385698 0.684045 0.215495 0.156582
C13   C     C_R   0.614302 0.684045 0.784504 0.156583
C14   C     C_R   0.800402 0.770869 0.583730 0.153961
C15   C     C_R   0.199598 0.770869 0.416269 0.153958
C16   C     C_R   0.300403 0.270868 0.583731 0.153959
C17   C     C_R   0.167417 0.891081 0.800141 -0.122211
C18   C     C_R   0.699597 0.270868 0.416268 0.153957
C19   C     C_R   0.805058 0.771839 0.499874 0.026952
C20   C     C_R   0.194943 0.771841 0.500126 0.026952
C21   C     C_R   0.305057 0.271840 0.499874 0.026953
C22   C     C_R   0.694943 0.271840 0.500126 0.026953
C23   C     C_R   0.779922 0.709853 0.425474 -0.190588
C24   C     C_R   0.220079 0.709855 0.574527 -0.190588
C25   C     C_R   0.279921 0.209854 0.425473 -0.190588
C26   C     C_R   0.720080 0.209856 0.574528 -0.190588
C27   C     C_R   0.243415 0.150946 0.429195 -0.215930
C28   C     C_R   0.332583 0.391081 0.199859 -0.122210
C29   C     C_R   0.756586 0.150947 0.570805 -0.215933
C30   C     C_R   0.743416 0.650945 0.429196 -0.215930
C31   C     C_R   0.256585 0.650947 0.570805 -0.215933
C32   C     C_R   0.234158 0.154974 0.508567 0.084498
C33   C     C_R   0.765842 0.154974 0.491433 0.084495
C34   C     C_R   0.734158 0.654975 0.508567 0.084497
C35   C     C_R   0.265842 0.654975 0.491433 0.084495
C36   C     C_R   0.265397 0.213184 0.587851 0.241446
C37   C     C_R   0.734602 0.213184 0.412149 0.241458
C38   C     C_R   0.765396 0.713186 0.587849 0.241448
C39   C     C_R   0.667417 0.391081 0.800141 -0.122210
C40   C     C_R   0.234603 0.713185 0.412150 0.241459
C41   C     C_3   0.732114 0.766048 0.617906 -0.553267
C42   C     C_3   0.267883 0.766046 0.382089 -0.553269
C43   C     C_3   0.232118 0.266045 0.617912 -0.553273
C44   C     C_3   0.767881 0.266045 0.382086 -0.553272
C45   C     C_R   0.100198 0.869801 0.407905 0.209388
C46   C     C_R   0.899802 0.869800 0.592095 0.209388
C47   C     C_R   0.600199 0.369801 0.407905 0.209388
C48   C     C_R   0.399802 0.369800 0.592095 0.209388
C49   C     C_3   0.770506 0.830485 0.612393 -0.473096
C50   C     C_R   0.884976 0.100891 0.591292 -0.183817
C51   C     C_3   0.229492 0.830485 0.387602 -0.473097
C52   C     C_3   0.270509 0.330483 0.612398 -0.473094
C53   C     C_3   0.729491 0.330483 0.387599 -0.473098
C54   C     C_2   0.196247 0.846904 0.980384 -0.220632
C55   C     C_2   0.803753 0.846904 0.019616 -0.220633
C56   C     C_2   0.696247 0.346904 0.980384 -0.220633
C57   C     C_2   0.303753 0.346904 0.019616 -0.220633
C58   C     C_2   0.265840 0.845679 0.039545 -0.106055
C59   C     C_2   0.734160 0.845679 0.960455 -0.106055
C60   C     C_2   0.765840 0.345679 0.039545 -0.106055
C61   C     C_R   0.115024 0.100891 0.408708 -0.183818
C62   C     C_2   0.234160 0.345679 0.960455 -0.106055
C63   C     C_2   0.861361 0.256629 0.154042 -0.215520
C64   C     C_2   0.138638 0.256629 0.845957 -0.215521
C65   C     C_2   0.361361 0.756629 0.154042 -0.215521
C66   C     C_2   0.638638 0.756629 0.845957 -0.215521
C67   C     C_2   0.808465 0.295485 0.136350 -0.099385
C68   C     C_2   0.191535 0.295485 0.863650 -0.099384
C69   C     C_2   0.308465 0.795485 0.136350 -0.099385
C70   C     C_2   0.691535 0.795485 0.863650 -0.099385
C71   C     C_R   0.173325 0.867351 0.594110 -0.176081
C72   C     C_R   0.384976 0.600891 0.591292 -0.183816
C73   C     C_R   0.826676 0.867350 0.405890 -0.176083
C74   C     C_R   0.673325 0.367351 0.594110 -0.176084
C75   C     C_R   0.326676 0.367351 0.405890 -0.176085
C76   C     C_R   0.079239 0.893166 0.804593 -0.170038
C77   C     C_R   0.920761 0.893166 0.195407 -0.170038
C78   C     C_R   0.579239 0.393166 0.804593 -0.170039
C79   C     C_R   0.420761 0.393166 0.195407 -0.170038
C80   C     C_R   0.851097 0.872868 0.135669 0.151890
C81   C     C_R   0.148903 0.872868 0.864331 0.151890
C82   C     C_R   0.351097 0.372868 0.135669 0.151890
C83   C     C_R   0.615024 0.600891 0.408708 -0.183819
C84   C     C_R   0.648903 0.372868 0.864331 0.151890
C85   C     C_R   0.157527 0.833017 0.501021 -0.002580
C86   C     C_R   0.842475 0.833016 0.498979 -0.002581
C87   C     C_R   0.657527 0.333018 0.501021 -0.002579
C88   C     C_R   0.342474 0.333017 0.498979 -0.002579
C89   C     C_R   0.810183 0.092595 0.407300 -0.054140
C90   C     C_R   0.189817 0.092594 0.592700 -0.054141
C91   C     C_R   0.310183 0.592595 0.407300 -0.054140
C92   C     C_R   0.689817 0.592595 0.592700 -0.054140
C93   C     C_R   0.942438 0.141015 0.244422 -0.144442
C94   C     C_R   0.815881 0.109530 0.498347 0.061075
C95   C     C_R   0.057562 0.141015 0.755578 -0.144442
C96   C     C_R   0.442438 0.641015 0.244422 -0.144441
C97   C     C_R   0.557562 0.641015 0.755578 -0.144441
C98   C     C_R   0.147138 0.142525 0.753166 -0.133394
C99   C     C_R   0.852862 0.142525 0.246834 -0.133394
C100  C     C_R   0.647138 0.642525 0.753166 -0.133394
C101  C     C_R   0.352862 0.642525 0.246834 -0.133394
C102  C     C_3   0.076621 0.940544 0.252349 -0.984845
C103  C     C_3   0.923379 0.940544 0.747650 -0.984843
C104  C     C_3   0.576621 0.440545 0.252349 -0.984847
H1    H     H_    0.780351 0.892756 0.173596 0.083114
H2    H     H_    0.325924 0.769674 0.447776 0.208470
H3    H     H_    0.174077 0.269673 0.552225 0.208471
H4    H     H_    0.825922 0.269673 0.447773 0.208470
H5    H     H_    0.751234 0.755180 0.703510 0.194012
H6    H     H_    0.248762 0.755177 0.296484 0.194014
H7    H     H_    0.251239 0.255176 0.703517 0.194013
H8    H     H_    0.748759 0.255175 0.296481 0.194014
H9    H     H_    0.735149 0.871677 0.543223 0.205915
H10   H     H_    0.264850 0.871677 0.456771 0.205916
H11   H     H_    0.235151 0.371676 0.543230 0.205915
H12   H     H_    0.219648 0.892756 0.826404 0.083114
H13   H     H_    0.764848 0.371676 0.456767 0.205916
H14   H     H_    0.810489 0.857078 0.695287 0.218858
H15   H     H_    0.189508 0.857076 0.304708 0.218859
H16   H     H_    0.310492 0.357075 0.695293 0.218858
H17   H     H_    0.689506 0.357074 0.304705 0.218859
H18   H     H_    0.788415 0.279780 0.178684 0.126319
H19   H     H_    0.211585 0.279780 0.821316 0.126318
H20   H     H_    0.288415 0.779780 0.178684 0.126319
H21   H     H_    0.711585 0.779780 0.821316 0.126318
H22   H     H_    0.289777 0.870365 0.007094 0.129939
H23   H     H_    0.280351 0.392756 0.173596 0.083114
H24   H     H_    0.710223 0.870365 0.992905 0.129939
H25   H     H_    0.789777 0.370365 0.007094 0.129938
H26   H     H_    0.210223 0.370365 0.992905 0.129939
H27   H     H_    0.880689 0.272643 0.110568 0.133759
H28   H     H_    0.119310 0.272643 0.889432 0.133759
H29   H     H_    0.380689 0.772643 0.110567 0.133760
H30   H     H_    0.619311 0.772643 0.889432 0.133760
H31   H     H_    0.173100 0.821524 0.013967 0.135570
H32   H     H_    0.826900 0.821524 0.986033 0.135570
H33   H     H_    0.673100 0.321524 0.013967 0.135569
H34   H     H_    0.719648 0.392756 0.826404 0.083114
H35   H     H_    0.326900 0.321524 0.986033 0.135569
H36   H     H_    0.217469 0.855836 0.680404 0.118998
H37   H     H_    0.782531 0.855835 0.319596 0.118998
H38   H     H_    0.717469 0.355836 0.680404 0.118998
H39   H     H_    0.282531 0.355836 0.319596 0.118998
H40   H     H_    0.054883 0.898382 0.841664 0.125079
H41   H     H_    0.945117 0.898382 0.158336 0.125079
H42   H     H_    0.554883 0.398382 0.841664 0.125080
H43   H     H_    0.445117 0.398382 0.158336 0.125079
H44   H     H_    0.978894 0.156404 0.231260 0.101617
H45   H     H_    0.219487 0.105452 0.367614 0.135001
H46   H     H_    0.021106 0.156404 0.768740 0.101617
H47   H     H_    0.478894 0.656404 0.231260 0.101617
H48   H     H_    0.521106 0.656404 0.768740 0.101617
H49   H     H_    0.193103 0.158585 0.763762 0.078738
H50   H     H_    0.806896 0.158585 0.236237 0.078739
H51   H     H_    0.693103 0.658585 0.763763 0.078739
H52   H     H_    0.306896 0.658585 0.236237 0.078739
H53   H     H_    0.906882 0.105593 0.677201 0.112984
H54   H     H_    0.093118 0.105593 0.322799 0.112984
H55   H     H_    0.406882 0.605593 0.677201 0.112984
H56   H     H_    0.780514 0.105453 0.632386 0.135002
H57   H     H_    0.593118 0.605593 0.322799 0.112985
H58   H     H_    0.786393 0.708537 0.363097 0.140420
H59   H     H_    0.213610 0.708539 0.636906 0.140420
H60   H     H_    0.286390 0.208539 0.363094 0.140420
H61   H     H_    0.713611 0.208540 0.636907 0.140420
H62   H     H_    0.042268 0.826997 0.246555 0.162037
H63   H     H_    0.062419 0.930857 0.169805 0.249192
H64   H     H_    0.128849 0.968851 0.307573 0.260261
H65   H     H_    0.037207 0.979235 0.241841 0.254822
H66   H     H_    0.957732 0.826996 0.753445 0.162037
H67   H     H_    0.719489 0.605450 0.367617 0.135001
H68   H     H_    0.937580 0.930856 0.830194 0.249192
H69   H     H_    0.871151 0.968850 0.692426 0.260260
H70   H     H_    0.962793 0.979234 0.758159 0.254822
H71   H     H_    0.542268 0.326997 0.246555 0.162037
H72   H     H_    0.562419 0.430857 0.169805 0.249192
H73   H     H_    0.628849 0.468851 0.307572 0.260261
H74   H     H_    0.537207 0.479235 0.241841 0.254822
H75   H     H_    0.457732 0.326997 0.753445 0.162037
H76   H     H_    0.437581 0.430857 0.830195 0.249192
H77   H     H_    0.371151 0.468851 0.692427 0.260261
H78   H     H_    0.280512 0.605452 0.632385 0.135002
H79   H     H_    0.462793 0.479235 0.758159 0.254822
H80   H     H_    0.749477 0.047146 0.234928 0.008018
H81   H     H_    0.250524 0.047148 0.765073 0.008016
H82   H     H_    0.249477 0.547145 0.234929 0.008018
H83   H     H_    0.750524 0.547147 0.765072 0.008017
H84   H     H_    0.674073 0.769675 0.552216 0.208470
N1    N     N_R   0.888400 0.921830 0.294620 -0.045915
N2    N     N_R   0.874350 0.922400 0.443380 -0.057388
N3    N     N_R   0.625650 0.422400 0.556620 -0.057388
N4    N     N_R   0.374350 0.422400 0.443380 -0.057388
N5    N     N_R   0.054230 0.922730 0.705400 -0.041859
N6    N     N_R   0.945770 0.922730 0.294600 -0.041858
N7    N     N_R   0.554230 0.422730 0.705400 -0.041858
N8    N     N_R   0.445770 0.422730 0.294600 -0.041859
N9    N     N_R   0.873790 0.077030 0.443380 -0.072839
N10   N     N_R   0.126210 0.077030 0.556620 -0.072839
N11   N     N_R   0.373790 0.577030 0.443380 -0.072839
N12   N     N_R   0.111600 0.921830 0.705380 -0.045915
N13   N     N_R   0.626210 0.577030 0.556620 -0.072839
N14   N     N_R   0.945200 0.076700 0.294600 -0.040594
N15   N     N_R   0.054800 0.076700 0.705400 -0.040594
N16   N     N_R   0.445200 0.576700 0.294600 -0.040594
N17   N     N_R   0.554800 0.576700 0.705400 -0.040594
N18   N     N_R   0.111030 0.077600 0.705380 -0.051934
N19   N     N_R   0.888970 0.077600 0.294620 -0.051934
N20   N     N_R   0.611030 0.577600 0.705380 -0.051934
N21   N     N_R   0.388970 0.577600 0.294620 -0.051934
N22   N     N_R   0.919490 0.077280 0.556590 -0.037439
N23   N     N_R   0.388400 0.421830 0.294620 -0.045915
N24   N     N_R   0.080510 0.077280 0.443410 -0.037439
N25   N     N_R   0.419490 0.577280 0.556590 -0.037439
N26   N     N_R   0.580510 0.577280 0.443410 -0.037439
N27   N     N_2   0.079505 0.867602 0.299697 -0.115375
N28   N     N_2   0.920495 0.867601 0.700303 -0.115375
N29   N     N_2   0.579505 0.367602 0.299697 -0.115375
N30   N     N_2   0.420495 0.367602 0.700303 -0.115375
N31   N     N_R   0.611600 0.421830 0.705380 -0.045915
N32   N     N_R   0.079940 0.922160 0.443410 -0.053154
N33   N     N_R   0.920060 0.922160 0.556590 -0.053154
N34   N     N_R   0.579940 0.422160 0.443410 -0.053154
N35   N     N_R   0.420060 0.422160 0.556590 -0.053154
N36   N     N_R   0.125650 0.922400 0.556620 -0.057388
Ni1   Ni    Ni4+2 0.882160 0.999430 0.370180 0.204865
Ni2   Ni    Ni4+2 0.117840 0.999430 0.629820 0.204866
Ni3   Ni    Ni4+2 0.382160 0.499430 0.370180 0.204865
Ni4   Ni    Ni4+2 0.617840 0.499430 0.629820 0.204865
Ni5   Ni    Ni4+2 0.012460 0.999430 0.370180 0.207243
Ni6   Ni    Ni4+2 0.987540 0.999430 0.629820 0.207242
Ni7   Ni    Ni4+2 0.512460 0.499430 0.370180 0.207243
Ni8   Ni    Ni4+2 0.487540 0.499430 0.629820 0.207243
O1    O     O_2   0.688318 0.072345 0.272158 -0.582553
O2    O     O_2   0.311682 0.072340 0.727839 -0.582551
O3    O     O_2   0.188318 0.572347 0.272157 -0.582554
O4    O     O_2   0.811682 0.572345 0.727841 -0.582552

loop_
_geom_bond_atom_site_label_1
_geom_bond_atom_site_label_2
_ccdc_geom_bond_type
C43   H3    S    
N13   Ni4   S    
C49   H9    S    
C6    O3    D    
C26   H61   S    
N3    Ni4   S    
C56   H33   S    
C55   C59   D    
N2    Ni1   S    
C4    O1    D    
C62   H26   S    
C45   C85   A    
C10   C63   S    
C5    H81   S    
C77   N6    A    
C19   C86   S    
C33   C94   S    
C79   C82   A    
N7    N31   A    
C100  N20   A    
C57   C62   D    
C104  H72   S    
C73   H37   S    
C28   N23   A    
C47   N29   S    
N17   Ni8   S    
C16   C21   A    
C46   N33   A    
N32   Ni5   S    
C93   H44   S    
C11   C98   A    
C32   C36   A    
C39   N31   A    
C18   C37   A    
C39   C84   A    
C53   H13   S    
C43   C52   S    
N17   N20   A    
C14   C49   S    
H66   N28   S    
C6    H82   S    
C7    C92   S    
C25   H60   S    
C95   N15   A    
C6    C91   S    
C99   H50   S    
C29   C33   A    
C103  H69   S    
C57   H35   S    
C17   N12   A    
C2    C32   S    
C89   C94   A    
C2    C90   A    
N9    N22   A    
C18   C53   S    
C71   C85   A    
N8    N23   A    
N1    N6    A    
N19   Ni1   S    
N4    Ni3   S    
C104  H74   S    
C20   C24   A    
C60   C67   S    
N16   N21   A    
N18   Ni2   S    
C51   H15   S    
C48   C88   A    
C96   N16   A    
C15   C51   S    
N31   Ni4   S    
C18   C22   A    
N10   N24   A    
C101  H52   S    
C73   N2    A    
C28   H23   S    
C42   C51   S    
C23   H58   S    
C91   N11   A    
C102  H65   S    
C40   C42   S    
C72   N25   A    
C74   H38   S    
C21   C88   S    
C27   H45   S    
C102  H63   S    
N23   Ni3   S    
H71   N29   S    
N6    Ni5   S    
C43   H7    S    
N5    Ni6   S    
C1    N1    A    
N26   Ni7   S    
C44   C53   S    
C9    C92   A    
C41   C49   S    
N13   N26   A    
C44   H8    S    
C56   C84   S    
C29   H56   S    
C12   C96   A    
C13   C66   S    
C44   H4    S    
C50   H53   S    
C15   C20   A    
C30   H67   S    
N15   N18   A    
C63   C67   D    
C8    C72   A    
C51   H10   S    
C30   C34   A    
C28   C82   A    
C23   C30   A    
C64   H28   S    
C38   C41   S    
C11   C64   S    
N2    N33   A    
C8    C91   A    
C50   C94   A    
C48   N30   S    
C41   H5    S    
C10   C93   A    
C101  N21   A    
C59   H24   S    
C96   H47   S    
C103  H70   S    
C33   C37   A    
C79   N8    A    
C56   C60   D    
C41   H84   S    
C99   N19   A    
C8    C35   S    
C47   C87   A    
N33   Ni6   S    
C19   C23   A    
C3    H76   S    
N24   Ni5   S    
C14   C38   A    
C42   H2    S    
C75   C88   A    
C104  H73   S    
N8    Ni7   S    
C20   C85   S    
N22   Ni6   S    
C95   H46   S    
N12   Ni2   S    
C22   C87   S    
C4    H80   S    
C93   N14   A    
C72   H55   S    
N3    N34   A    
N25   Ni8   S    
C75   H39   S    
C3    H77   S    
N14   Ni5   S    
C52   H16   S    
C100  H51   S    
C47   N34   A    
C9    C83   A    
N34   Ni7   S    
C58   H22   S    
C63   H27   S    
C5    O2    D    
H75   N30   S    
C9    C34   S    
C74   C87   A    
C31   C35   A    
C24   H59   S    
C5    C90   S    
C67   H18   S    
C64   C68   D    
N32   N36   A    
C83   N26   A    
N35   Ni8   S    
C70   H21   S    
C4    C89   S    
C54   C58   D    
C52   H11   S    
C7    H83   S    
C1    C80   A    
C21   C25   A    
C7    O4    D    
C102  H64   S    
C71   N36   A    
C27   C32   A    
C34   C38   A    
C14   C19   A    
N16   Ni7   S    
N1    Ni1   S    
C16   C52   S    
N4    N35   A    
C104  N29   S    
C76   H40   S    
N36   Ni2   S    
C76   C81   A    
N15   Ni6   S    
C79   H43   S    
C2    C61   A    
C58   C69   S    
C71   H36   S    
C90   N10   A    
C48   N35   A    
C25   C27   A    
N5    N12   A    
C89   N9    A    
C12   C65   S    
H62   N27   S    
N10   Ni2   S    
C46   N28   S    
C69   H20   S    
C62   C68   S    
C39   H34   S    
N14   N19   A    
C13   C100  A    
N11   N25   A    
C75   N4    A    
C42   H6    S    
C24   C31   A    
C12   C101  A    
C31   H78   S    
C68   H19   S    
C61   H54   S    
N20   Ni4   S    
C55   C80   S    
C77   C80   A    
C103  H68   S    
C77   H41   S    
N11   Ni3   S    
C37   C44   S    
C3    N30   S    
C65   C69   D    
C54   H31   S    
C103  N28   S    
C45   N27   S    
C97   H48   S    
N7    Ni8   S    
C35   C40   A    
C17   C81   A    
C78   N7    A    
C13   C97   A    
C10   C99   A    
C65   H29   S    
C15   C40   A    
C98   H49   S    
C76   N5    A    
C78   H42   S    
C59   C70   S    
C74   N3    A    
C49   H14   S    
C78   C84   A    
C102  N27   S    
C11   C95   A    
C66   C70   D    
C50   N22   A    
C26   C29   A    
C83   H57   S    
C22   C26   A    
C45   N32   A    
C57   C82   S    
C98   N18   A    
C36   C43   S    
C53   H17   S    
C73   C86   A    
N21   Ni3   S    
C97   N17   A    
C66   H30   S    
C3    H79   S    
C60   H25   S    
C61   N24   A    
C54   C81   S    
C16   C36   A    
C92   N13   A    
C55   H32   S    
C17   H12   S    
C1    H1    S    
C46   C86   A    
N9    Ni1   S    
