data_mof_unit_14866.cif
_audit_creation_date              2012-12-10T18:57:50-0500
_audit_creation_method            fapswitch 2.2
_symmetry_space_group_name_H-M    P1
_symmetry_Int_Tables_number       1
_space_group_crystal_system       triclinic
_cell_length_a                    10.833845
_cell_length_b                    10.055724
_cell_length_c                    8.883722
_cell_angle_alpha                 90.737756
_cell_angle_beta                  99.19087
_cell_angle_gamma                 89.611542
_cell_volume                      955.296654169

loop_
_atom_site_label
_atom_site_type_symbol
_atom_type_description
_atom_site_fract_x
_atom_site_fract_y
_atom_site_fract_z
_atom_type_partial_charge
C1    C     C_R   0.261141 0.500678 0.504888 1.012821
C2    C     C_R   0.062505 0.623237 0.495218 0.286819
C3    C     C_R   0.873803 0.500671 0.506468 -0.253548
C4    C     C_R   0.129670 0.502544 0.514201 -0.260933
C5    C     C_R   0.580267 0.073649 0.609912 0.289423
C6    C     C_R   0.418383 0.926621 0.390285 0.292659
C7    C     C_R   0.416529 0.072269 0.392952 0.286912
C8    C     C_R   0.575516 0.928973 0.615594 0.298985
C9    C     C_R   0.739859 0.499875 0.500405 0.997830
C10   C     C_R   0.501369 0.499446 0.219527 0.922744
C11   C     C_R   0.499700 0.500505 0.780660 0.901596
C12   C     C_1   0.500954 0.499145 0.065721 -0.098921
C13   C     C_1   0.500261 0.500626 0.934492 -0.092691
C14   C     C_R   0.070435 0.382982 0.540257 0.291072
C15   C     C_R   0.936321 0.623521 0.507150 0.288640
C16   C     C_R   0.940474 0.379418 0.516001 0.296040
H1    H     H_    0.090647 0.213549 0.645998 0.374101
H2    H     H_    0.931085 0.808907 0.572069 0.375439
H3    H     H_    0.931659 0.190604 0.462795 0.375100
H4    H     H_    0.059444 0.799849 0.406532 0.383348
H5    H     H_    0.783349 0.337324 0.849828 0.357805
H6    H     H_    0.243606 0.653650 0.134470 0.355677
H7    H     H_    0.207378 0.337569 0.165999 0.359228
H8    H     H_    0.740750 0.659133 0.861570 0.349711
N1    N     N_R   0.500000 0.857200 0.500000 -0.217782
N2    N     N_R   0.500000 0.142800 0.500000 -0.223812
O1    O     O_R   0.316770 0.614620 0.499990 -0.518749
O2    O     O_3   0.873182 0.742795 0.515607 -0.677365
O3    O     O_3   0.878167 0.259200 0.501630 -0.669344
O4    O     O_3   0.121025 0.740016 0.466788 -0.666981
O5    O     O_2   0.646915 0.135228 0.905500 -0.228796
O6    O     O_2   0.815953 0.096223 0.752335 -0.230435
O7    O     O_3   0.719345 0.321875 0.758474 -0.526727
O8    O     O_2   0.191627 0.899590 0.196469 -0.197516
O9    O     O_2   0.383585 0.855069 0.094836 -0.219783
O10   O     O_3   0.284729 0.678317 0.238784 -0.516849
O11   O     O_2   0.296841 0.103696 0.102393 -0.199300
O12   O     O_R   0.683230 0.385380 0.500010 -0.520679
O13   O     O_2   0.172566 0.123512 0.310498 -0.241681
O14   O     O_3   0.287144 0.321275 0.235162 -0.535732
O15   O     O_2   0.747132 0.913386 0.897166 -0.175345
O16   O     O_2   0.543026 0.819629 0.879772 -0.241957
O17   O     O_3   0.717175 0.699197 0.759583 -0.515690
O18   O     O_R   0.683230 0.614620 0.500010 -0.524320
O19   O     O_R   0.316770 0.385380 0.499990 -0.517219
O20   O     O_R   0.500010 0.614640 0.285340 -0.559766
O21   O     O_R   0.499990 0.385360 0.714660 -0.557495
O22   O     O_R   0.499990 0.614640 0.714660 -0.554855
O23   O     O_R   0.500010 0.385360 0.285340 -0.560225
O24   O     O_3   0.140462 0.271627 0.589483 -0.682076
S1    S     S_3+6 0.689944 0.159085 0.755299 0.150139
S2    S     S_3+6 0.319662 0.839314 0.231567 0.156153
S3    S     S_3+6 0.294835 0.157096 0.260717 0.151406
S4    S     S_3+6 0.647008 0.843383 0.790206 0.148271
Zn1   Zn    Zn3+2 0.500000 0.653120 0.500000 1.143579
Zn2   Zn    Zn3+2 0.500000 0.346880 0.500000 1.141077

loop_
_geom_bond_atom_site_label_1
_geom_bond_atom_site_label_2
_ccdc_geom_bond_type
H1    O24   S    
C10   O20   A    
O22   Zn1   S    
C2    C4    A    
O6    S1    D    
C6    C7    A    
C8    N1    A    
O20   Zn1   S    
O7    S1    S    
O23   Zn2   S    
H6    O10   S    
O17   S4    S    
O8    S2    D    
O10   S2    S    
C2    O4    S    
C1    C4    S    
O11   S3    D    
C15   O2    S    
O12   Zn2   S    
O13   S3    D    
O16   S4    D    
C2    C15   A    
C11   C13   S    
O18   Zn1   S    
C1    O19   A    
C11   O22   A    
C14   O24   S    
C7    N2    A    
C10   C12   S    
C3    C9    S    
C9    O12   A    
O1    Zn1   S    
C4    C14   A    
C14   C16   A    
O15   S4    D    
C5    C8    A    
H5    O7    S    
C7    S3    S    
C5    N2    A    
H3    O3    S    
N1    Zn1   S    
H2    O2    S    
C12   C13   T    
O14   S3    S    
C6    N1    A    
C8    S4    S    
O9    S2    D    
C1    O1    A    
H8    O17   S    
C5    S1    S    
C3    C15   A    
H4    O4    S    
C6    S2    S    
C16   O3    S    
C10   O23   A    
C11   O21   A    
C3    C16   A    
H7    O14   S    
O19   Zn2   S    
O5    S1    D    
O21   Zn2   S    
C9    O18   A    
N2    Zn2   S    
