data_mof_unit_61285.cif
_audit_creation_date              2012-12-10T20:23:04-0500
_audit_creation_method            fapswitch 2.2
_symmetry_space_group_name_H-M    P1
_symmetry_Int_Tables_number       1
_space_group_crystal_system       triclinic
_cell_length_a                    19.273544
_cell_length_b                    18.686121
_cell_length_c                    17.534692
_cell_angle_alpha                 89.950585
_cell_angle_beta                  91.258899
_cell_angle_gamma                 90.000516
_cell_volume                      6313.55367453

loop_
_atom_site_label
_atom_site_type_symbol
_atom_type_description
_atom_site_fract_x
_atom_site_fract_y
_atom_site_fract_z
_atom_type_partial_charge
C1    C     C_R   0.365840 0.499966 0.500027 0.934696
C2    C     C_R   0.634162 0.499966 0.499968 0.938359
C3    C     C_R   0.853512 0.499230 0.499621 -0.136385
C4    C     C_R   0.146499 0.499235 0.500346 -0.136281
C5    C     C_R   0.709492 0.499750 0.499727 -0.186218
C6    C     C_R   0.290515 0.499751 0.500258 -0.185175
C7    C     C_R   0.962824 0.499139 0.430437 -0.076784
C8    C     C_R   0.037190 0.498810 0.569528 -0.076965
C9    C     C_R   0.034705 0.499178 0.430623 -0.063068
C10   C     C_R   0.965309 0.498843 0.569343 -0.062806
C11   C     C_R   0.071558 0.499031 0.500167 0.168529
C12   C     C_R   0.928455 0.499025 0.499799 0.168227
C13   C     C_R   0.556091 0.727087 0.528221 0.436675
C14   C     C_R   0.474154 0.272973 0.438422 0.439455
C15   C     C_R   0.443907 0.727117 0.471761 0.436075
C16   C     C_R   0.525751 0.272862 0.561625 0.438019
C17   C     C_R   0.559255 0.801800 0.521185 -0.200130
C18   C     C_R   0.480535 0.198270 0.434900 -0.203268
C19   C     C_R   0.440732 0.801821 0.478780 -0.199958
C20   C     C_R   0.519422 0.198144 0.565086 -0.203496
C21   C     C_R   0.499991 0.841473 0.499982 0.087231
C22   C     C_R   0.500002 0.158548 0.499977 0.096094
C23   C     C_R   0.458955 0.962739 0.446721 0.306693
C24   C     C_R   0.548575 0.037294 0.544910 0.306051
C25   C     C_R   0.541027 0.962655 0.553235 0.306323
C26   C     C_R   0.451415 0.037366 0.455037 0.305971
C27   C     C_R   0.499999 0.077192 0.499970 -0.161150
C28   C     C_R   0.499989 0.922833 0.499979 -0.155189
C29   C     C_R   0.499391 0.500073 0.353576 0.881302
C30   C     C_R   0.499258 0.499994 0.646412 0.886633
C31   C     C_R   0.495974 0.564574 0.848098 -0.131563
C32   C     C_R   0.500293 0.437319 0.151195 -0.126696
C33   C     C_R   0.467035 0.562732 0.153450 -0.131011
C34   C     C_R   0.469361 0.437475 0.845675 -0.133494
C35   C     C_R   0.503353 0.564097 0.769651 -0.153293
C36   C     C_R   0.507696 0.437502 0.229991 -0.128305
C37   C     C_R   0.474384 0.563099 0.232247 -0.149303
C38   C     C_R   0.476699 0.436798 0.767241 -0.134617
C39   C     C_R   0.493939 0.500101 0.728885 -0.053064
C40   C     C_R   0.494570 0.500370 0.270867 -0.054869
C41   C     C_R   0.479031 0.501307 0.885515 0.133684
C42   C     C_R   0.479865 0.499841 0.113530 0.132451
C43   C     C_1   0.475922 0.500975 0.965622 -0.021943
C44   C     C_1   0.476190 0.500479 0.033289 -0.021996
C45   C     C_R   0.745767 0.436304 0.515600 -0.192524
C46   C     C_R   0.254494 0.562788 0.516638 -0.175095
C47   C     C_R   0.254238 0.436360 0.484254 -0.193362
C48   C     C_R   0.745520 0.562840 0.483463 -0.174255
C49   C     C_R   0.817683 0.435766 0.515657 0.377984
C50   C     C_R   0.182581 0.562852 0.516655 0.379049
C51   C     C_R   0.182322 0.435826 0.484185 0.377566
C52   C     C_R   0.817433 0.562903 0.483443 0.379454
H1    H     H_    0.607847 0.828147 0.534706 0.238044
H2    H     H_    0.468068 0.171969 0.381525 0.231265
H3    H     H_    0.392137 0.828179 0.465247 0.238056
H4    H     H_    0.531822 0.171732 0.618466 0.231339
N1    N     N_R   0.500000 0.689440 0.500000 -0.170882
N2    N     N_R   0.500000 0.310560 0.500000 -0.168406
O1    O     O_R   0.398180 0.560840 0.499980 -0.578408
O2    O     O_R   0.601820 0.439160 0.500020 -0.600524
O3    O     O_R   0.601820 0.560840 0.500020 -0.577235
O4    O     O_R   0.398180 0.439160 0.499980 -0.601359
O5    O     O_R   0.500000 0.560840 0.389110 -0.603846
O6    O     O_R   0.500000 0.439160 0.610890 -0.579388
O7    O     O_R   0.500000 0.560840 0.610890 -0.603086
O8    O     O_R   0.500000 0.439160 0.389110 -0.578058
Zn1   Zn    Zn3+2 0.500000 0.581210 0.500000 1.051690
Zn2   Zn    Zn3+2 0.500000 0.418790 0.500000 1.053962
H5    H     H_    0.504101 0.613864 0.879594 0.161832
H6    H     H_    0.511068 0.388859 0.119652 0.160083
H7    H     H_    0.451827 0.611321 0.123701 0.163211
H8    H     H_    0.456688 0.388379 0.875246 0.160578
H9    H     H_    0.516631 0.613512 0.741106 0.195732
H10   H     H_    0.524033 0.388828 0.258712 0.195500
H11   H     H_    0.463626 0.612067 0.262827 0.200303
H12   H     H_    0.468240 0.387083 0.736769 0.197809
H13   H     H_    0.718419 0.387203 0.528308 0.228082
H14   H     H_    0.282023 0.611902 0.529887 0.227172
H15   H     H_    0.281586 0.387304 0.471449 0.228326
H16   H     H_    0.717998 0.611999 0.470312 0.227140
Cl1   Cl    Cl    0.861342 0.354645 0.534975 -0.484449
Cl2   Cl    Cl    0.139210 0.643610 0.536206 -0.490107
Cl3   Cl    Cl    0.138655 0.354776 0.464685 -0.485027
Cl4   Cl    Cl    0.860808 0.643732 0.464067 -0.489254
H17   H     H_    0.933949 0.499237 0.376719 0.162116
H18   H     H_    0.066065 0.498652 0.623246 0.161863
H19   H     H_    0.061662 0.499400 0.377048 0.166416
H20   H     H_    0.938353 0.498806 0.622919 0.166763
Cl5   Cl    Cl    0.624008 0.685910 0.579860 -0.529585
Cl6   Cl    Cl    0.426882 0.314242 0.364037 -0.544183
Cl7   Cl    Cl    0.376011 0.686004 0.420098 -0.536937
Cl8   Cl    Cl    0.572523 0.314047 0.636376 -0.541203
Cl9   Cl    Cl    0.421430 0.923300 0.363768 -0.454390
Cl10  Cl    Cl    0.624149 0.076781 0.585905 -0.435397
Cl11  Cl    Cl    0.578538 0.923088 0.636198 -0.453561
Cl12  Cl    Cl    0.375828 0.076911 0.414067 -0.436257

loop_
_geom_bond_atom_site_label_1
_geom_bond_atom_site_label_2
_ccdc_geom_bond_type
O8    Zn2   S    
C29   O5    A    
C30   O6    A    
C41   C43   S    
C14   C18   A    
C24   C27   A    
C47   H15   S    
C20   H4    S    
C1    O4    A    
C3    C49   A    
C38   H12   S    
C25   C28   A    
C15   C19   A    
C10   H20   S    
C26   C27   A    
C33   C42   A    
C32   C36   A    
C19   C21   A    
C37   C40   A    
O6    Zn2   S    
C38   C39   A    
C2    O2    A    
C13   N1    A    
C23   C26   A    
C49   Cl1   S    
C52   Cl4   S    
C14   Cl6   S    
C3    C12   S    
O1    Zn1   S    
C35   H9    S    
O7    Zn1   S    
C31   C41   A    
C2    O3    A    
C37   H11   S    
C17   H1    S    
C34   C38   A    
C15   N1    A    
C34   C41   A    
C42   C44   S    
N1    Zn1   S    
C26   Cl12  S    
C7    C12   A    
C14   N2    A    
C5    C48   A    
O5    Zn1   S    
C6    C47   A    
C4    C51   A    
C1    C6    S    
C36   C40   A    
C24   C25   A    
C46   H14   S    
C18   H2    S    
C47   C51   A    
C5    C45   A    
C17   C21   A    
C23   Cl9   S    
C4    C50   A    
C35   C39   A    
C43   C44   T    
C24   Cl10  S    
O3    Zn1   S    
C45   C49   A    
C16   C20   A    
C16   N2    A    
C23   C28   A    
C4    C11   S    
C9    C11   A    
C10   C12   A    
N2    Zn2   S    
C21   C28   S    
C20   C22   A    
C16   Cl8   S    
C22   C27   S    
C31   C35   A    
C2    C5    S    
C51   Cl3   S    
C50   Cl2   S    
C19   H3    S    
C7    C9    A    
C36   H10   S    
C6    C46   A    
C13   Cl5   S    
C18   C22   A    
C32   H6    S    
C3    C52   A    
C25   Cl11  S    
O4    Zn2   S    
C46   C50   A    
C13   C17   A    
C48   H16   S    
C1    O1    A    
C9    H19   S    
C7    H17   S    
C8    C11   A    
C29   C40   S    
C30   C39   S    
C8    H18   S    
C33   C37   A    
C30   O7    A    
C33   H7    S    
C34   H8    S    
C15   Cl7   S    
C29   O8    A    
C31   H5    S    
O2    Zn2   S    
C8    C10   A    
C32   C42   A    
C45   H13   S    
C48   C52   A    
