data_mof_unit_57290.cif
_audit_creation_date              2012-12-10T18:05:41-0500
_audit_creation_method            fapswitch 2.2
_symmetry_space_group_name_H-M    P1
_symmetry_Int_Tables_number       1
_space_group_crystal_system       triclinic
_cell_length_a                    10.789707
_cell_length_b                    10.80844
_cell_length_c                    9.514095
_cell_angle_alpha                 89.959373
_cell_angle_beta                  90.054273
_cell_angle_gamma                 89.990916
_cell_volume                      1109.53202364

loop_
_atom_site_label
_atom_site_type_symbol
_atom_type_description
_atom_site_fract_x
_atom_site_fract_y
_atom_site_fract_z
_atom_type_partial_charge
C1    C     C_R   0.503651 0.262240 0.499898 0.883688
C2    C     C_R   0.496347 0.737760 0.500102 0.883690
C3    C     C_R   0.871598 0.503892 0.500014 -0.047340
C4    C     C_R   0.128402 0.496117 0.499985 -0.047342
C5    C     C_R   0.938202 0.574608 0.599069 0.084163
C6    C     C_R   0.061798 0.425405 0.400928 0.084161
C7    C     C_R   0.567435 0.061474 0.394734 0.410288
C8    C     C_R   0.432559 0.938525 0.605262 0.410290
C9    C     C_R   0.560232 0.933573 0.394485 -0.151779
C10   C     C_R   0.439761 0.066427 0.605512 -0.151790
C11   C     C_R   0.494760 0.871613 0.499994 -0.249239
C12   C     C_R   0.505236 0.128386 0.500004 -0.249224
C13   C     C_R   0.582119 0.428701 0.074477 0.088176
C14   C     C_R   0.417870 0.571292 0.925523 0.088242
C15   C     C_R   0.582180 0.428710 0.925675 0.029064
C16   C     C_R   0.417806 0.571282 0.074325 0.029078
C17   C     C_R   0.262308 0.497923 0.499946 0.833503
C18   C     C_R   0.737692 0.502081 0.500054 0.833502
C19   C     C_R   0.200868 0.291384 0.069725 0.359106
C20   C     C_R   0.799134 0.708647 0.930268 0.359121
C21   C     C_R   0.135359 0.368900 0.161106 -0.302558
C22   C     C_R   0.864661 0.631135 0.838895 -0.302549
C23   C     C_R   0.124066 0.338451 0.303905 -0.026714
C24   C     C_R   0.875934 0.661567 0.696088 -0.026710
C25   C     C_R   0.175394 0.227055 0.354054 0.346472
C26   C     C_R   0.824577 0.772949 0.645924 0.346469
C27   C     C_R   0.242294 0.150715 0.262972 -0.259359
C28   C     C_R   0.757658 0.849282 0.736997 -0.259357
C29   C     C_R   0.256676 0.183136 0.121602 0.384234
C30   C     C_R   0.743288 0.816873 0.878374 0.384219
C31   C     C_R   0.933374 0.431009 0.401013 -0.134472
C32   C     C_R   0.066627 0.569002 0.598985 -0.134481
Cu1   Cu    Cu3+1 0.500000 0.500020 0.640660 1.027652
Cu2   Cu    Cu3+1 0.500000 0.499980 0.359340 1.027651
H1    H     H_    0.648156 0.371742 0.869703 0.147844
H2    H     H_    0.351810 0.628237 0.130298 0.147827
H3    H     H_    0.648668 0.372532 0.130539 0.176132
H4    H     H_    0.351305 0.627450 0.869461 0.176122
N1    N     N_R   0.500030 0.500030 0.852070 -0.180516
N2    N     N_R   0.499970 0.499970 0.147930 -0.180513
O1    O     O_R   0.499990 0.319660 0.618740 -0.562057
O2    O     O_R   0.500010 0.680340 0.381260 -0.562051
O3    O     O_R   0.499990 0.319630 0.381170 -0.562234
O4    O     O_R   0.500010 0.680370 0.618830 -0.562233
O5    O     O_R   0.319650 0.500020 0.618780 -0.542969
O6    O     O_R   0.680350 0.499980 0.381220 -0.542975
O7    O     O_R   0.319640 0.500000 0.381210 -0.607985
O8    O     O_R   0.680360 0.500000 0.618790 -0.607981
Cl1   Cl    Cl    0.345083 0.086599 0.012167 -0.433791
Cl2   Cl    Cl    0.654835 0.913387 0.987797 -0.433804
Cl3   Cl    Cl    0.210991 0.331455 0.890944 -0.533703
Cl4   Cl    Cl    0.789030 0.668600 0.109059 -0.533637
H5    H     H_    0.094712 0.453722 0.121429 0.202500
H6    H     H_    0.905333 0.546328 0.878583 0.202505
Cl5   Cl    Cl    0.154684 0.179870 0.529583 -0.514960
Cl6   Cl    Cl    0.845273 0.820122 0.470387 -0.514965
H7    H     H_    0.283209 0.065927 0.302174 0.205481
H8    H     H_    0.716713 0.934053 0.697783 0.205461
H9    H     H_    0.881354 0.375201 0.326779 0.181357
H10   H     H_    0.118648 0.624810 0.673219 0.181360
Cl7   Cl    Cl    0.662467 0.132459 0.267600 -0.518476
Cl8   Cl    Cl    0.337525 0.867537 0.732391 -0.518460
H11   H     H_    0.609267 0.882168 0.314108 0.268437
H12   H     H_    0.390725 0.117831 0.685888 0.268428

loop_
_geom_bond_atom_site_label_1
_geom_bond_atom_site_label_2
_ccdc_geom_bond_type
C2    O4    A    
C21   H5    S    
C17   O7    A    
Cu2   O6    S    
C28   H8    S    
C14   H4    S    
Cu1   O5    S    
C13   H3    S    
Cu2   O2    S    
C2    O2    A    
C5    C32   A    
Cu1   O1    S    
C10   H12   S    
C28   C30   A    
Cu1   Cu2   S    
C30   Cl2   S    
C22   H6    S    
C20   C30   A    
C16   H2    S    
C3    C31   A    
C9    C11   A    
C24   C26   A    
C15   N1    A    
Cu1   N1    S    
C1    C12   S    
C10   C12   A    
C16   N2    A    
C8    C11   A    
Cu2   N2    S    
C2    C11   S    
C18   O6    A    
C1    O1    A    
C19   C21   A    
C20   C22   A    
C6    C31   A    
C14   C16   A    
C13   C15   A    
C21   C23   A    
C7    C12   A    
C22   C24   A    
C25   C27   A    
C4    C17   S    
C26   Cl6   S    
C31   H9    S    
C4    C32   A    
C19   C29   A    
C19   Cl3   S    
C23   C25   A    
C27   C29   A    
C3    C18   S    
C4    C6    A    
C27   H7    S    
C15   H1    S    
C7    C9    A    
Cu1   O8    S    
C32   H10   S    
C20   Cl4   S    
C5    C24   S    
C13   N2    A    
C29   Cl1   S    
Cu2   O7    S    
C3    C5    A    
C14   N1    A    
C6    C23   S    
C9    H11   S    
C26   C28   A    
C1    O3    A    
C8    C10   A    
C7    Cl7   S    
Cu2   O3    S    
C25   Cl5   S    
C8    Cl8   S    
C17   O5    A    
Cu1   O4    S    
C18   O8    A    
