data_mof_unit_68221.cif
_audit_creation_date              2012-12-11T17:15:54-0500
_audit_creation_method            fapswitch 2.2
_symmetry_space_group_name_H-M    P1
_symmetry_Int_Tables_number       1
_space_group_crystal_system       triclinic
_cell_length_a                    15.132566
_cell_length_b                    7.40138
_cell_length_c                    13.520317
_cell_angle_alpha                 90.57933
_cell_angle_beta                  98.511409
_cell_angle_gamma                 91.28499
_cell_volume                      1497.10816605

loop_
_atom_site_label
_atom_site_type_symbol
_atom_type_description
_atom_site_fract_x
_atom_site_fract_y
_atom_site_fract_z
_atom_type_partial_charge
O1    O     O_R   0.398210 0.494340 0.401550 -0.538342
O2    O     O_R   0.601790 0.994340 0.598450 -0.547118
O3    O     O_R   0.586310 0.821730 0.403360 -0.493573
O4    O     O_R   0.413690 0.321730 0.596640 -0.514814
C1    C     C_R   0.615374 0.654657 0.382296 0.900565
C2    C     C_R   0.385598 0.153933 0.619317 0.856336
O5    O     O_R   0.397970 0.823900 0.389580 -0.531377
O6    O     O_R   0.602030 0.323900 0.610420 -0.545899
O7    O     O_R   0.412100 0.996500 0.584560 -0.514907
O8    O     O_R   0.587900 0.496500 0.415440 -0.509367
C3    C     C_R   0.365079 0.654066 0.363264 0.744088
C4    C     C_R   0.633713 0.156778 0.638654 0.708798
O9    O     O_3   0.504860 0.661550 0.563990 -0.394091
O10   O     O_3   0.495140 0.161550 0.436010 -0.368325
V1    V     V_3+5 0.499100 0.935510 0.488130 1.610500
V2    V     V_3+5 0.500900 0.435510 0.511870 1.583930
C5    C     C_1   0.713333 0.148207 0.721277 -0.208251
C6    C     C_1   0.283547 0.643621 0.283307 -0.162433
C7    C     C_1   0.780898 0.134836 0.786810 -0.172685
C8    C     C_1   0.216063 0.636555 0.217192 -0.149036
C9    C     C_3   0.273173 0.236904 0.868337 0.106301
C10   C     C_3   0.719368 0.684825 0.127996 0.043702
H1    H     H_    0.248660 0.372476 0.886829 0.172112
H2    H     H_    0.730801 0.815400 0.091926 0.153897
C11   C     C_3   0.340237 0.261068 0.789592 0.560563
C12   C     C_3   0.650721 0.722090 0.205491 0.583349
H3    H     H_    0.152387 0.371787 0.734174 0.164743
H4    H     H_    0.833252 0.888311 0.246282 0.210741
C13   C     C_3   0.153811 0.226521 0.714816 0.067899
C14   C     C_3   0.841261 0.748864 0.275795 0.080334
C15   C     C_3   0.220891 0.929857 0.791464 0.723718
C16   C     C_3   0.791274 0.421901 0.226493 0.710872
C17   C     C_3   0.188993 0.126272 0.816451 -0.342376
C18   C     C_3   0.811236 0.617338 0.184842 -0.338419
C19   C     C_3   0.311816 0.140245 0.689556 -0.332271
C20   C     C_3   0.687273 0.639267 0.310496 -0.312723
C21   C     C_3   0.216945 0.196828 0.631008 0.704721
C22   C     C_3   0.778937 0.731196 0.359667 0.629578
C23   C     C_3   0.300193 0.944587 0.728383 0.163455
C24   C     C_3   0.707189 0.433663 0.282323 0.188522
H5    H     H_    0.363070 0.914318 0.777895 0.149074
H6    H     H_    0.648488 0.382276 0.229631 0.199539
O11   O     O_R   0.912140 0.786650 0.084610 -0.535135
O12   O     O_R   0.087860 0.286650 0.915390 -0.552966
O13   O     O_R   0.102040 0.454810 0.110430 -0.552509
O14   O     O_R   0.897960 0.954810 0.889570 -0.555806
C25   C     C_R   0.134804 0.624978 0.136885 0.770108
C26   C     C_R   0.863915 0.122570 0.864586 0.742017
O15   O     O_R   0.913690 0.457060 0.096650 -0.503604
O16   O     O_R   0.086310 0.957060 0.903350 -0.489354
O17   O     O_R   0.898200 0.284560 0.901540 -0.539977
O18   O     O_R   0.101800 0.784560 0.098460 -0.524582
C27   C     C_R   0.884935 0.622290 0.116730 0.825276
C28   C     C_R   0.115264 0.124177 0.883858 0.826706
O19   O     O_3   0.995160 0.617270 0.936040 -0.383319
O20   O     O_3   0.004840 0.117270 0.063960 -0.366909
V3    V     V_3+5 0.000900 0.343280 0.011870 1.563027
V4    V     V_3+5 0.999100 0.843280 0.988130 1.570442
Cl1   Cl    Cl    0.038458 0.168601 0.673437 -0.682563
Cl2   Cl    Cl    0.960182 0.742695 0.317890 -0.623401
Cl3   Cl    Cl    0.167822 0.028918 0.539324 -0.532443
Cl4   Cl    Cl    0.816233 0.588913 0.462330 -0.691770
O21   O     O_3   0.317177 0.164432 0.960107 -0.540457
C29   C     C_3   0.268296 0.189442 0.041728 0.135302
H7    H     H_    0.229302 0.063120 0.050175 0.160551
H8    H     H_    0.221949 0.303316 0.031685 0.107697
C30   C     C_3   0.328753 0.233003 0.140788 -0.377494
H9    H     H_    0.391024 0.159400 0.147696 0.219518
H10   H     H_    0.346777 0.379486 0.144924 0.185417
C31   C     C_3   0.282680 0.181211 0.230110 -0.715708
H11   H     H_    0.268440 0.033363 0.229157 0.230379
H12   H     H_    0.218954 0.252937 0.228454 0.240311
H13   H     H_    0.327056 0.216065 0.300781 0.250157
O22   O     O_3   0.680207 0.555261 0.055305 -0.562773
C32   C     C_3   0.723050 0.534815 0.969497 0.123635
H14   H     H_    0.685843 0.427532 0.924840 0.145772
H15   H     H_    0.786881 0.468989 0.983671 0.159912
C33   C     C_3   0.731721 0.705754 0.908881 -0.412175
H16   H     H_    0.669648 0.781970 0.899819 0.200129
H17   H     H_    0.782055 0.797331 0.950788 0.207653
C34   C     C_3   0.761893 0.661059 0.808412 -0.741557
H18   H     H_    0.722230 0.548961 0.767992 0.226557
H19   H     H_    0.832954 0.621816 0.820267 0.247067
H20   H     H_    0.754287 0.780016 0.759554 0.230900
O23   O     O_3   0.430218 0.220494 0.832122 -0.590588
C35   C     C_3   0.483071 0.371095 0.875729 0.122757
H21   H     H_    0.535932 0.320526 0.933473 0.125423
H22   H     H_    0.443773 0.463939 0.916001 0.171610
C36   C     C_3   0.530413 0.467495 0.796937 -0.268556
H23   H     H_    0.598533 0.422572 0.798587 0.121371
H24   H     H_    0.502671 0.419036 0.724544 0.254240
C37   C     C_3   0.523266 0.672921 0.792615 -0.656424
H25   H     H_    0.523182 0.734266 0.866792 0.183508
H26   H     H_    0.461881 0.711885 0.744413 0.287927
H27   H     H_    0.578312 0.731429 0.756588 0.209220
O24   O     O_3   0.563783 0.637548 0.179688 -0.585717
C38   C     C_3   0.511107 0.681510 0.088311 0.138388
H28   H     H_    0.458837 0.573200 0.073939 0.102515
H29   H     H_    0.546858 0.675948 0.023861 0.166408
C39   C     C_3   0.463011 0.859425 0.092480 -0.326721
H30   H     H_    0.390278 0.837291 0.068132 0.215825
H31   H     H_    0.469396 0.910135 0.170634 0.232657
C40   C     C_3   0.498507 0.996903 0.023229 -0.593051
H32   H     H_    0.571666 0.987953 0.023447 0.233308
H33   H     H_    0.485616 0.136259 0.045862 0.242586
H34   H     H_    0.465048 0.970014 0.945987 0.256094
Cl5   Cl    Cl    0.328270 0.487387 0.756972 -0.649570
Cl6   Cl    Cl    0.640811 0.960809 0.220508 -0.594916
O25   O     O_3   0.234593 0.344458 0.568956 -0.552781
C41   C     C_3   0.168636 0.473777 0.544013 0.205373
H35   H     H_    0.197483 0.573871 0.496513 0.198383
H36   H     H_    0.159158 0.547581 0.611444 0.231252
C42   C     C_3   0.080450 0.411941 0.481821 -0.339179
H37   H     H_    0.076676 0.464528 0.404589 0.236863
H38   H     H_    0.069859 0.266310 0.471225 0.289115
C43   C     C_3   0.003888 0.484983 0.529271 -0.497252
H39   H     H_    0.017361 0.498780 0.611783 0.237773
H40   H     H_    0.946718 0.388604 0.512037 0.300109
H41   H     H_    0.990423 0.622483 0.501813 0.286408
O26   O     O_3   0.766782 0.904833 0.400957 -0.521846
C44   C     C_3   0.844243 0.972870 0.465637 0.301780
H42   H     H_    0.857554 0.113994 0.446589 0.206273
H43   H     H_    0.907027 0.908144 0.456728 0.176762
C45   C     C_3   0.830507 0.968655 0.575562 -0.331513
H44   H     H_    0.840490 0.108866 0.605789 0.209877
H45   H     H_    0.761435 0.921869 0.580932 0.227328
C46   C     C_3   0.895454 0.846216 0.640370 -0.605342
H46   H     H_    0.960214 0.837972 0.612364 0.294410
H47   H     H_    0.866846 0.708380 0.645649 0.244761
H48   H     H_    0.909691 0.901096 0.716998 0.249195
Cl7   Cl    Cl    0.127866 0.795164 0.730850 -0.558752
Cl8   Cl    Cl    0.889177 0.338454 0.301926 -0.542490
Cl9   Cl    Cl    0.258892 0.802871 0.901878 -0.662050
Cl10  Cl    Cl    0.768040 0.244434 0.133220 -0.609972
Cl11  Cl    Cl    0.293324 0.779051 0.629870 -0.527945
Cl12  Cl    Cl    0.708262 0.266761 0.377704 -0.470197

loop_
_geom_bond_atom_site_label_1
_geom_bond_atom_site_label_2
_ccdc_geom_bond_type
C3    C6    S    
H3    C13   S    
O1    C3    A    
C15   Cl9   S    
O2    C4    A    
C38   C39   S    
C2    O7    A    
C38   H28   S    
C23   H5    S    
C23   Cl11  S    
O23   C35   S    
O20   V3    S    
O5    C3    A    
C24   Cl12  S    
O13   V3    S    
O16   C28   A    
C19   C21   S    
C33   H17   S    
C9    C17   S    
C1    C20   S    
C13   C17   S    
O15   V3    S    
C2    C19   S    
C14   C22   S    
C6    C8    T    
C41   H35   S    
C37   H25   S    
C44   C45   S    
C15   Cl7   S    
C7    C26   S    
O11   V4    S    
C34   H19   S    
O11   C27   A    
C26   O17   A    
C13   Cl1   S    
C43   H40   S    
C14   Cl2   S    
C4    C5    S    
C15   C17   S    
C31   H11   S    
O17   V3    S    
C36   H24   S    
C21   O25   S    
C37   H27   S    
C42   C43   S    
C22   O26   S    
C24   H6    S    
O6    V2    S    
O14   V4    S    
C39   H31   S    
C38   H29   S    
C11   O23   S    
C34   H18   S    
O13   C25   A    
C12   O24   S    
C10   C18   S    
O14   C26   A    
C9    O21   S    
O22   C32   S    
C14   C18   S    
C30   H9    S    
O16   V4    S    
C29   C30   S    
C20   C24   S    
O4    C2    A    
C12   Cl6   S    
C33   H16   S    
O5    V1    S    
C39   C40   S    
C30   H10   S    
C29   H8    S    
O4    V2    S    
C19   C23   S    
C32   H14   S    
C46   H47   S    
O12   V3    S    
O6    C4    A    
O24   C38   S    
C31   H13   S    
C37   H26   S    
C40   H33   S    
O1    V2    S    
C36   C37   S    
O2    V1    S    
C32   H15   S    
C41   C42   S    
C44   H42   S    
O18   V4    S    
C11   C19   S    
C45   C46   S    
C12   C20   S    
C9    H1    S    
C10   H2    S    
O19   V4    S    
C10   O22   S    
C46   H46   S    
C16   Cl8   S    
C34   H20   S    
O3    V1    S    
O26   C44   S    
C11   Cl5   S    
C45   H45   S    
C42   H37   S    
C17   C28   S    
C9    C11   S    
C35   H21   S    
O3    C1    A    
C35   C36   S    
C21   Cl3   S    
C25   O18   A    
C43   H41   S    
C30   C31   S    
C29   H7    S    
H4    C14   S    
O7    V1    S    
C46   H48   S    
C1    O8    A    
O8    V2    S    
O25   C41   S    
C16   Cl10  S    
C33   C34   S    
O15   C27   A    
C20   C22   S    
C39   H30   S    
C5    C7    T    
C15   C23   S    
C43   H39   S    
C40   H34   S    
C35   H22   S    
C16   C24   S    
C32   C33   S    
C41   H36   S    
C44   H43   S    
C8    C25   S    
O21   C29   S    
O12   C28   A    
C18   C27   S    
C10   C12   S    
O9    V2    S    
C13   C21   S    
C40   H32   S    
O10   V1    S    
C31   H12   S    
C42   H38   S    
C36   H23   S    
C16   C18   S    
C45   H44   S    
C22   Cl4   S    
