data_mof_unit_19484.cif
_audit_creation_date              2013-03-05T15:53:06-0500
_audit_creation_method            fapswitch 2.2
_symmetry_space_group_name_H-M    P1
_symmetry_Int_Tables_number       1
_space_group_crystal_system       triclinic
_cell_length_a                    6.948846
_cell_length_b                    20.438368
_cell_length_c                    24.388951
_cell_angle_alpha                 89.655246
_cell_angle_beta                  90.425968
_cell_angle_gamma                 89.388973
_cell_volume                      3463.43667726

loop_
_atom_site_label
_atom_site_type_symbol
_atom_site_description
_atom_site_fract_x
_atom_site_fract_y
_atom_site_fract_z
_atom_type_partial_charge
O1    O     O_R   0.507320 0.423560 0.460500 -0.592878
O2    O     O_R   0.170760 0.556250 0.437010 -0.584221
O3    O     O_R   0.004030 0.576440 0.539500 -0.593784
C1    C     C_R   0.338791 0.576419 0.421030 0.991717
O4    O     O_R   0.177370 0.422820 0.454110 -0.579366
O5    O     O_R   0.010680 0.442050 0.556720 -0.593506
C2    C     C_R   0.346261 0.398800 0.443465 0.955889
O6    O     O_R   0.500680 0.557950 0.443280 -0.589354
O7    O     O_3   0.340380 0.506470 0.533650 -0.279308
V1    V     V_3+5 0.064130 0.498800 0.493760 1.188073
O8    O     O_R   0.681160 0.443750 0.562990 -0.594159
C3    C     C_R   0.850937 0.423665 0.578854 0.975835
O9    O     O_R   0.674560 0.577180 0.545890 -0.594144
C4    C     C_R   0.842522 0.601160 0.556555 0.937636
V2    V     V_3+5 0.564560 0.501200 0.506240 1.172891
O10   O     O_3   0.838180 0.493530 0.466350 -0.260017
C5    C     C_R   0.976980 0.838320 0.910790 -0.102183
C6    C     C_R   0.846458 0.662543 0.588050 -0.154106
C7    C     C_R   0.045067 0.722421 0.904687 -0.162827
C8    C     C_R   0.034777 0.779467 0.935402 -0.157113
C9    C     C_R   0.930129 0.839876 0.854566 -0.245078
C10   C     C_R   0.942997 0.782364 0.821836 0.106071
C11   C     C_R   0.001164 0.723378 0.848414 0.177272
C12   C     C_R   0.902863 0.781281 0.763881 0.061429
C13   C     C_R   0.921034 0.721399 0.733797 0.081756
C14   C     C_R   0.978938 0.664410 0.762867 -0.203784
C15   C     C_R   0.017592 0.665587 0.818753 -0.230925
C16   C     C_R   0.845957 0.838134 0.735037 -0.183022
C17   C     C_R   0.806871 0.837173 0.679236 -0.241237
C18   C     C_R   0.821276 0.779374 0.648583 0.071851
C19   C     C_R   0.880128 0.720374 0.675771 0.101607
C20   C     C_R   0.775992 0.779596 0.591338 0.211208
C21   C     C_R   0.788060 0.720424 0.562346 -0.180569
C22   C     C_R   0.893337 0.662411 0.643924 -0.247918
H1    H     H_    0.062111 0.620476 0.839010 0.139466
H2    H     H_    0.934788 0.615753 0.661231 0.108076
H3    H     H_    0.751192 0.718110 0.519272 0.128722
H4    H     H_    0.763635 0.883201 0.660624 0.127006
H5    H     H_    0.090303 0.677397 0.924911 0.130275
H6    H     H_    0.073339 0.777817 0.978525 0.116519
H7    H     H_    0.889007 0.886852 0.837729 0.100018
H8    H     H_    0.996767 0.617475 0.743764 0.132117
H9    H     H_    0.829390 0.884970 0.754470 0.125499
C23   C     C_3   0.850259 0.308099 0.768970 -0.167910
C24   C     C_3   0.038243 0.272134 0.786294 0.227462
H10   H     H_    0.799639 0.356111 0.784670 0.127606
H11   H     H_    0.228002 0.263460 0.705903 0.125829
C25   C     C_1   0.960508 0.121666 0.875304 -0.294866
C26   C     C_1   0.863812 0.378147 0.624601 -0.302193
C27   C     C_3   0.740315 0.242477 0.773698 -0.217469
C28   C     C_3   0.929102 0.207362 0.791118 0.047577
C29   C     C_3   0.784889 0.227487 0.712664 -0.172028
C30   C     C_3   0.896033 0.292333 0.708595 0.163032
C31   C     C_3   0.973798 0.192670 0.730788 0.231569
C32   C     C_3   0.085866 0.257405 0.725700 -0.218694
C33   C     C_1   0.947056 0.160099 0.837285 -0.031883
C34   C     C_1   0.877410 0.339620 0.662564 -0.007096
H12   H     H_    0.680090 0.209098 0.681985 0.120866
H13   H     H_    0.598560 0.235926 0.793449 0.143733
C35   C     C_3   0.539851 0.725731 0.214408 -0.142372
C36   C     C_3   0.346909 0.693381 0.230254 -0.103660
H14   H     H_    0.292738 0.646378 0.213962 0.165248
H15   H     H_    0.645608 0.705713 0.184839 0.137256
H16   H     H_    0.103065 0.769425 0.203306 0.126353
C37   C     C_1   0.348784 0.622093 0.375060 -0.254917
C38   C     C_1   0.475452 0.878156 0.125127 -0.293459
C39   C     C_3   0.581438 0.739707 0.275784 -0.155668
C40   C     C_3   0.388726 0.707950 0.291048 0.202644
C41   C     C_3   0.477528 0.806986 0.270057 -0.160964
C42   C     C_3   0.435703 0.792419 0.209259 0.207539
C43   C     C_3   0.284582 0.774635 0.285905 -0.168900
C44   C     C_3   0.242992 0.760658 0.224530 -0.169921
C45   C     C_1   0.364332 0.660638 0.337074 0.001215
C46   C     C_1   0.459998 0.839688 0.163181 -0.029182
H17   H     H_    0.178845 0.794642 0.315486 0.116780
H18   H     H_    0.531749 0.853970 0.286369 0.116765
H19   H     H_    0.721341 0.730941 0.297021 0.124257
C47   C     C_R   0.464588 0.161638 0.089588 -0.165271
C48   C     C_R   0.349936 0.338221 0.410885 -0.140851
C49   C     C_R   0.409588 0.278591 0.087520 -0.044010
C50   C     C_R   0.425555 0.219249 0.060523 -0.210631
C51   C     C_R   0.481233 0.163339 0.147810 0.155436
C52   C     C_R   0.424031 0.222350 0.175886 0.047265
C53   C     C_R   0.411168 0.281323 0.145148 -0.085710
C54   C     C_R   0.377551 0.225028 0.232833 0.045846
C55   C     C_R   0.375723 0.286004 0.261492 -0.152586
C56   C     C_R   0.374289 0.344683 0.229546 0.213152
C57   C     C_R   0.389640 0.341876 0.171998 0.224565
C58   C     C_R   0.304326 0.169759 0.259797 -0.141679
C59   C     C_R   0.263967 0.170431 0.315364 -0.241828
C60   C     C_R   0.295208 0.226499 0.346262 0.186619
C61   C     C_R   0.357123 0.285008 0.320397 0.160209
C62   C     C_R   0.257309 0.225003 0.402676 -0.185174
C63   C     C_R   0.279199 0.280892 0.434285 -0.162306
C64   C     C_R   0.396971 0.339343 0.354858 -0.159378
H20   H     H_    0.463708 0.382995 0.339376 0.159618
H21   H     H_    0.240033 0.279539 0.477199 0.111947
H22   H     H_    0.206677 0.126683 0.334245 0.127426
H23   H     H_    0.387662 0.322062 0.062628 0.164139
H24   H     H_    0.413822 0.218595 0.016179 0.122131
H25   H     H_    0.260420 0.127214 0.237142 0.116861
H26   H     H_    0.205281 0.180846 0.422143 0.119112
O11   O     O_R   0.323550 0.942140 0.056770 -0.588315
O12   O     O_R   0.647080 0.077200 0.045890 -0.589926
O13   O     O_R   0.813610 0.057920 0.943260 -0.586816
C65   C     C_R   0.477528 0.100559 0.057436 0.917364
O14   O     O_R   0.653470 0.943760 0.063000 -0.593250
O15   O     O_R   0.820050 0.923540 0.960490 -0.588404
C66   C     C_R   0.485422 0.923712 0.079063 0.970530
O16   O     O_R   0.317110 0.076520 0.039540 -0.587663
O17   O     O_3   0.483830 0.993580 0.966380 -0.270104
V3    V     V_3+5 0.760140 0.001190 0.006240 1.161726
O18   O     O_R   0.149510 0.922740 0.954070 -0.590821
C67   C     C_R   0.981469 0.898855 0.943341 0.925680
O19   O     O_R   0.143120 0.056170 0.936970 -0.593532
C68   C     C_R   0.973357 0.076253 0.921105 0.980884
V4    V     V_3+5 0.259690 0.998700 0.993700 1.162224
O20   O     O_3   0.986130 0.006420 0.033620 -0.272148
C69   C     C_3   0.712765 0.842908 0.562315 -0.369581
C70   C     C_3   0.667976 0.838124 0.500918 -0.927233
H27   H     H_    0.797037 0.821252 0.478173 0.257752
H28   H     H_    0.545892 0.804545 0.493609 0.259844
H29   H     H_    0.625924 0.887242 0.484890 0.254008
H30   H     H_    0.580949 0.862006 0.582520 0.191959
H31   H     H_    0.828665 0.879535 0.567179 0.189230
C71   C     C_3   0.181075 0.296645 0.829198 -0.371067
C72   C     C_3   0.281118 0.358643 0.809937 -0.895365
H32   H     H_    0.365480 0.348809 0.772314 0.255679
H33   H     H_    0.173509 0.398011 0.801297 0.259987
H34   H     H_    0.381202 0.375589 0.842449 0.257560
H35   H     H_    0.103055 0.306756 0.867868 0.200591
H36   H     H_    0.290628 0.257860 0.837523 0.183634
C73   C     C_3   0.044106 0.126352 0.709976 -0.372232
C74   C     C_3   0.077345 0.127847 0.648246 -0.911050
H37   H     H_    0.941529 0.140479 0.626141 0.258126
H38   H     H_    0.188760 0.164343 0.637795 0.256190
H39   H     H_    0.127539 0.078905 0.634518 0.252121
H40   H     H_    0.180891 0.112999 0.731309 0.189227
H41   H     H_    0.935176 0.088739 0.719770 0.190512
N1    N     N_R   0.377819 0.401482 0.140609 0.256333
O21   O     O_R   0.221243 0.436953 0.140927 -0.318031
O22   O     O_R   0.525989 0.421383 0.113064 -0.358803
C75   C     C_3   0.593355 0.108250 0.177119 -0.407908
C76   C     C_3   0.777470 0.133744 0.203852 -0.815797
H42   H     H_    0.867106 0.159099 0.172917 0.259964
H43   H     H_    0.743505 0.168101 0.237569 0.260915
H44   H     H_    0.862210 0.092130 0.221350 0.231346
H45   H     H_    0.508432 0.081630 0.207798 0.178203
H46   H     H_    0.638539 0.069553 0.148233 0.187356
N2    N     N_R   0.325232 0.406694 0.253200 0.244313
O23   O     O_R   0.156689 0.415504 0.275044 -0.369709
O24   O     O_R   0.438646 0.456437 0.247082 -0.346391

loop_
_geom_bond_atom_site_label_1
_geom_bond_atom_site_label_2
_geom_bond_distance
_ccdc_geom_bond_type
C13   C19   1.441690 A    
C43   H17   1.110224 S    
C56   C57   1.409844 A    
C62   C63   1.390961 A    
C49   C50   1.387333 A    
O14   V3    1.964119 S    
C4    C6    1.475362 S    
O13   C68   1.296128 A    
O2    C1    1.303938 A    
C64   H20   1.077501 S    
C39   H19   1.110481 S    
C1    O6    1.296860 A    
C74   H39   1.110259 S    
O12   C65   1.299967 A    
C3    C26   1.450019 S    
C26   C34   1.214312 T    
C54   C55   1.432510 A    
C70   H27   1.110868 S    
C14   H8    1.075344 S    
C14   C15   1.387654 A    
C71   C72   1.525153 S    
C35   H15   1.110204 S    
C27   H13   1.108760 S    
C2    C48   1.475290 S    
C16   C17   1.386082 A    
N1    O22   1.301069 A    
O5    C3    1.296198 A    
C1    C37   1.457128 S    
C8    H6    1.083615 S    
C24   C28   1.537012 S    
O19   C68   1.300294 A    
C38   C46   1.218818 T    
C5    C8    1.394962 A    
C37   C45   1.218655 T    
C41   H18   1.110157 S    
C28   C33   1.482798 S    
O15   C67   1.298111 A    
C41   C43   1.551687 S    
C57   N1    1.436186 S    
O8    V2    1.973407 S    
C23   C30   1.543923 S    
C7    C8    1.391125 A    
C35   C39   1.551205 S    
C23   H10   1.110165 S    
O19   V4    1.973225 S    
C56   N2    1.434512 S    
C17   H4    1.080796 S    
C42   C46   1.489291 S    
C27   C29   1.554311 S    
O1    V2    1.987179 S    
C11   C15   1.392869 A    
C18   C20   1.428846 A    
O7    V1    2.153248 S    
C22   H2    1.076107 S    
C36   H14   1.110210 S    
C70   H29   1.110555 S    
C49   C53   1.406882 A    
C25   C68   1.449670 S    
H16   C44   1.110470 S    
C73   H40   1.110870 S    
O9    C4    1.295886 A    
O14   C66   1.303858 A    
O11   V4    1.963883 S    
C76   H44   1.110615 S    
O16   V4    1.991768 S    
C29   C31   1.546800 S    
C5    C67   1.474520 S    
C30   C32   1.546576 S    
C75   H45   1.101179 S    
C29   H12   1.110213 S    
V2    O10   2.146891 S    
C39   C40   1.541480 S    
C53   C57   1.410726 A    
C12   C13   1.435655 A    
C48   C63   1.395922 A    
C76   H43   1.109633 S    
C60   C61   1.420904 A    
O4    C2    1.295964 A    
C54   C58   1.405586 A    
C55   C56   1.426139 A    
C76   H42   1.111276 S    
C74   H38   1.110719 S    
C63   H21   1.083678 S    
C15   H1    1.084455 S    
C13   C14   1.413165 A    
C69   H30   1.111573 S    
C31   C73   1.526896 S    
C61   C64   1.424992 A    
C21   H3    1.080903 S    
O15   V3    1.987744 S    
O12   V3    1.992267 S    
C39   C41   1.551356 S    
C7    C11   1.403701 A    
C72   H33   1.110729 S    
C48   C64   1.407464 A    
C17   C18   1.404864 A    
C60   C62   1.402991 A    
C47   C51   1.424486 A    
C52   C53   1.417262 A    
C35   C42   1.540405 S    
C24   C71   1.527243 S    
C69   C70   1.531045 S    
C27   C28   1.544196 S    
C19   C22   1.423012 A    
N1    O21   1.301080 A    
C6    C22   1.398730 A    
O3    C4    1.298154 A    
C7    H5    1.083967 S    
C9    H7    1.076915 S    
C69   H31   1.111563 S    
C36   C44   1.551336 S    
C52   C54   1.429509 A    
O13   V3    1.959083 S    
C73   H41   1.110799 S    
O6    V2    1.964090 S    
O9    V2    1.990807 S    
C49   H23   1.081849 S    
C73   C74   1.525010 S    
C10   C12   1.439015 A    
C20   C69   1.529947 S    
C72   H32   1.110731 S    
O2    V1    1.964087 S    
C29   C30   1.544118 S    
C70   H28   1.110902 S    
H11   C32   1.110378 S    
O18   C67   1.295928 A    
C65   O16   1.296737 A    
O18   V4    1.990736 S    
C23   C27   1.554695 S    
C25   C33   1.214039 T    
C31   C32   1.547190 S    
C30   C34   1.480963 S    
O17   V3    2.153191 S    
C58   H25   1.078625 S    
O1    C2    1.299596 A    
C23   C24   1.546856 S    
C12   C16   1.406298 A    
C51   C75   1.532646 S    
C62   H26   1.083965 S    
O5    V1    1.958914 S    
C42   C44   1.541557 S    
O8    C3    1.300388 A    
C74   H37   1.110654 S    
C50   H24   1.084132 S    
C16   H9    1.076169 S    
N2    O23   1.301476 A    
O17   V4    1.701048 S    
O11   C66   1.296958 A    
C28   C31   1.536792 S    
C20   C21   1.406636 A    
C40   C45   1.489001 S    
C72   H34   1.110240 S    
O4    V1    1.992278 S    
O3    V1    1.987715 S    
C55   C61   1.443448 A    
V4    O20   2.146927 S    
V3    O20   1.706532 S    
C36   C40   1.540197 S    
C59   C60   1.393341 A    
C18   C19   1.427186 A    
C71   H35   1.110711 S    
C40   C43   1.540312 S    
C47   C65   1.480477 S    
N2    O24   1.301528 A    
C47   C50   1.393838 A    
C38   C66   1.457349 S    
O7    V2    1.702347 S    
C41   C42   1.540310 S    
C6    C21   1.390756 A    
C5    C9    1.407109 A    
C71   H36   1.109964 S    
C75   H46   1.106861 S    
C43   C44   1.551211 S    
C24   C32   1.547434 S    
C51   C52   1.444053 A    
C10   C11   1.418897 A    
C35   C36   1.551643 S    
V1    O10   1.706619 S    
C58   C59   1.386106 A    
C9    C10   1.427228 A    
C59   H22   1.084140 S    
C75   C76   1.529491 S    
