data_mof_unit_65766.cif
_audit_creation_date              2012-12-10T21:05:10-0500
_audit_creation_method            fapswitch 2.2
_symmetry_space_group_name_H-M    P1
_symmetry_Int_Tables_number       1
_space_group_crystal_system       triclinic
_cell_length_a                    22.277624
_cell_length_b                    22.299971
_cell_length_c                    15.092197
_cell_angle_alpha                 89.977028
_cell_angle_beta                  90.018276
_cell_angle_gamma                 89.995378
_cell_volume                      7497.65711037

loop_
_atom_site_label
_atom_site_type_symbol
_atom_type_description
_atom_site_fract_x
_atom_site_fract_y
_atom_site_fract_z
_atom_type_partial_charge
C1    C     C_R   0.080869 0.419410 0.500034 0.902157
C2    C     C_R   0.998201 0.554550 0.047038 0.172513
C3    C     C_R   0.998018 0.554550 0.952855 0.172232
C4    C     C_R   0.001767 0.445324 0.047093 0.173078
C5    C     C_R   0.497195 0.945393 0.952965 0.172753
C6    C     C_R   0.502944 0.054548 0.047027 0.172475
C7    C     C_R   0.502668 0.054526 0.952836 0.172463
C8    C     C_R   0.496862 0.945442 0.047168 0.172552
C9    C     C_R   0.000125 0.499972 0.904958 -0.145161
C10   C     C_R   0.999952 0.499936 0.095005 -0.146116
C11   C     C_R   0.499950 0.999949 0.904976 -0.145621
C12   C     C_R   0.919401 0.580858 0.499996 0.905547
C13   C     C_R   0.499922 0.000008 0.095021 -0.145681
C14   C     C_R   0.251712 0.704238 0.581585 0.424754
C15   C     C_R   0.794489 0.249701 0.417066 0.425544
C16   C     C_R   0.797668 0.246505 0.579971 0.425286
C17   C     C_R   0.252167 0.703791 0.418545 0.424738
C18   C     C_R   0.798011 0.753882 0.420254 0.425231
C19   C     C_R   0.250556 0.294546 0.582921 0.424835
C20   C     C_R   0.253543 0.297666 0.420002 0.424724
C21   C     C_R   0.794453 0.750195 0.583114 0.425703
C22   C     C_R   0.753508 0.202430 0.579968 0.424688
C23   C     C_R   0.919398 0.419150 0.499988 0.905618
C24   C     C_R   0.296351 0.747850 0.418552 0.425809
C25   C     C_R   0.295881 0.748298 0.581586 0.425208
C26   C     C_R   0.750306 0.205648 0.417056 0.424887
C27   C     C_R   0.297708 0.253587 0.419971 0.425291
C28   C     C_R   0.750272 0.794256 0.583147 0.424808
C29   C     C_R   0.753847 0.797963 0.420282 0.424712
C30   C     C_R   0.294744 0.250489 0.582884 0.425541
C31   C     C_R   0.227927 0.684182 0.500041 -0.296779
C32   C     C_R   0.815944 0.272073 0.498698 -0.297033
C33   C     C_R   0.816086 0.728054 0.501465 -0.296989
C34   C     C_R   0.080859 0.580596 0.499993 0.902182
C35   C     C_R   0.228026 0.315930 0.501305 -0.296734
C36   C     C_R   0.727898 0.184206 0.498688 -0.296633
C37   C     C_R   0.315984 0.772042 0.500047 -0.296888
C38   C     C_R   0.316081 0.228055 0.501240 -0.297127
C39   C     C_R   0.728037 0.815933 0.501525 -0.296883
C40   C     C_1   0.000069 0.499998 0.806974 0.081937
C41   C     C_1   0.999968 0.499967 0.193019 0.081840
C42   C     C_1   0.499981 0.999964 0.806976 0.081885
C43   C     C_1   0.499966 0.000016 0.193022 0.081946
C44   C     C_1   0.175223 0.648515 0.499965 0.003075
C45   C     C_R   0.580871 0.919409 0.500035 0.902152
C46   C     C_1   0.851590 0.324757 0.499406 0.004680
C47   C     C_1   0.851682 0.675329 0.500626 0.004700
C48   C     C_1   0.175295 0.351564 0.500647 0.003094
C49   C     C_1   0.675207 0.148524 0.499394 0.002995
C50   C     C_1   0.351612 0.824740 0.499972 0.004623
C51   C     C_1   0.351680 0.175328 0.500529 0.004758
C52   C     C_1   0.675301 0.851567 0.500740 0.003236
C53   C     C_1   0.881573 0.368820 0.499855 -0.165852
C54   C     C_1   0.131166 0.618484 0.499970 -0.168166
C55   C     C_1   0.131210 0.381559 0.500209 -0.168271
C56   C     C_R   0.419401 0.080859 0.499994 0.905536
C57   C     C_1   0.881618 0.631227 0.500115 -0.166112
C58   C     C_1   0.381581 0.868813 0.499978 -0.166218
C59   C     C_1   0.631161 0.118483 0.499844 -0.168404
C60   C     C_1   0.631215 0.881563 0.500228 -0.167986
C61   C     C_1   0.381619 0.131229 0.500093 -0.165842
C62   C     C_3   0.945258 0.361037 0.102436 -0.669226
C63   C     C_3   0.936068 0.633862 0.894221 -0.667964
C64   C     C_3   0.054514 0.638297 0.104408 -0.668943
C65   C     C_3   0.064946 0.366078 0.896185 -0.667492
C66   C     C_3   0.433168 0.867090 0.104422 -0.667512
C67   C     C_R   0.419395 0.919151 0.499996 0.905600
C68   C     C_3   0.447616 0.138909 0.894727 -0.669336
C69   C     C_3   0.566462 0.133122 0.103989 -0.667251
C70   C     C_3   0.552152 0.860500 0.896415 -0.669231
C71   C     C_R   0.580860 0.080593 0.499984 0.902192
C72   C     C_R   0.002246 0.445370 0.952885 0.172530
H1    H     H_    0.027450 0.389715 0.151093 0.233030
H2    H     H_    0.048746 0.682887 0.135983 0.245358
H3    H     H_    0.076937 0.644845 0.039382 0.258181
H4    H     H_    0.083354 0.610060 0.147713 0.230096
H5    H     H_    0.980177 0.387923 0.849409 0.232722
H6    H     H_    0.062701 0.321215 0.864473 0.246470
H7    H     H_    0.087430 0.361143 0.961498 0.258558
H8    H     H_    0.091842 0.396422 0.853304 0.229521
H9    H     H_    0.518407 0.887670 0.150533 0.232613
H10   H     H_    0.406848 0.897872 0.147370 0.229867
H11   H     H_    0.434846 0.822235 0.136295 0.247235
H12   H     H_    0.915364 0.389170 0.144222 0.230538
H13   H     H_    0.410419 0.862418 0.039274 0.259037
H14   H     H_    0.530585 0.109740 0.849823 0.232992
H15   H     H_    0.418678 0.111067 0.851043 0.230142
H16   H     H_    0.454060 0.183462 0.863280 0.245423
H17   H     H_    0.424939 0.145643 0.959515 0.259045
H18   H     H_    0.481337 0.112334 0.150258 0.232756
H19   H     H_    0.564671 0.178052 0.135561 0.246702
H20   H     H_    0.589193 0.137697 0.038825 0.258234
H21   H     H_    0.592870 0.102510 0.147152 0.229318
H22   H     H_    0.469845 0.890208 0.849548 0.232987
H23   H     H_    0.950853 0.316633 0.134720 0.245363
H24   H     H_    0.545683 0.816028 0.864768 0.245357
H25   H     H_    0.574065 0.853509 0.961740 0.258378
H26   H     H_    0.581802 0.888141 0.853505 0.230135
H27   H     H_    0.856505 0.289293 0.652964 0.340357
H28   H     H_    0.207914 0.646394 0.344991 0.340024
H29   H     H_    0.207129 0.647191 0.655324 0.341017
H30   H     H_    0.850515 0.295299 0.342962 0.338705
H31   H     H_    0.210539 0.356359 0.347014 0.340995
H32   H     H_    0.850317 0.704373 0.657249 0.338418
H33   H     H_    0.857041 0.711327 0.347355 0.340206
H34   H     H_    0.924095 0.353994 0.036598 0.259507
H35   H     H_    0.204767 0.350352 0.657069 0.339624
H36   H     H_    0.353107 0.792677 0.655297 0.340231
H37   H     H_    0.704404 0.149910 0.342908 0.339626
H38   H     H_    0.710588 0.143714 0.652975 0.340910
H39   H     H_    0.353997 0.791847 0.345042 0.338399
H40   H     H_    0.711109 0.856921 0.347424 0.341062
H41   H     H_    0.350888 0.204948 0.656928 0.338672
H42   H     H_    0.356471 0.210773 0.346937 0.340406
H43   H     H_    0.704240 0.849812 0.657373 0.339948
H44   H     H_    0.021458 0.612039 0.850152 0.232646
H45   H     H_    0.910036 0.603886 0.849651 0.229701
H46   H     H_    0.938776 0.679028 0.863501 0.246844
H47   H     H_    0.912403 0.638118 0.958702 0.258694
H48   H     H_    0.971376 0.610196 0.150155 0.233113
N1    N     N_1   0.000000 0.500000 0.270550 -0.087553
N2    N     N_2   0.505302 0.110363 0.907036 -0.291244
N3    N     N_2   0.506158 0.110393 0.092670 -0.290995
N4    N     N_2   0.494582 0.889522 0.907303 -0.290781
N5    N     N_1   0.000000 0.500000 0.729450 -0.087751
N6    N     N_1   0.500000 0.000000 0.270550 -0.087644
N7    N     N_1   0.500000 0.000000 0.729450 -0.087659
N8    N     N_2   0.003262 0.389406 0.092832 -0.291584
N9    N     N_2   0.995964 0.610437 0.907116 -0.291593
N10   N     N_2   0.996439 0.610444 0.092724 -0.290077
N11   N     N_2   0.004890 0.389531 0.907141 -0.292102
N12   N     N_2   0.493525 0.889642 0.092980 -0.292098
O1    O     O_R   0.061000 0.439020 0.573650 -0.607979
O2    O     O_R   0.439000 0.060980 0.426350 -0.606109
O3    O     O_R   0.439000 0.060980 0.573650 -0.606620
O4    O     O_R   0.561000 0.939020 0.426350 -0.607188
O5    O     O_R   0.439000 0.939020 0.426350 -0.606613
O6    O     O_R   0.561000 0.060980 0.573650 -0.607442
O7    O     O_R   0.561000 0.060980 0.426350 -0.608027
O8    O     O_R   0.439000 0.939020 0.573650 -0.606482
O9    O     O_3   0.820028 0.264642 0.661270 -0.677114
O10   O     O_3   0.232604 0.682870 0.337137 -0.680314
O11   O     O_3   0.231700 0.683762 0.663006 -0.677326
O12   O     O_R   0.939000 0.560980 0.426350 -0.606183
O13   O     O_3   0.813687 0.271021 0.335684 -0.681173
O14   O     O_3   0.235266 0.319954 0.338710 -0.677134
O15   O     O_3   0.813469 0.728628 0.664469 -0.681594
O16   O     O_3   0.820574 0.735994 0.338977 -0.677130
O17   O     O_3   0.229282 0.313697 0.664332 -0.681021
O18   O     O_3   0.316412 0.768262 0.662999 -0.677300
O19   O     O_3   0.728920 0.186558 0.335658 -0.681151
O20   O     O_3   0.735335 0.180103 0.661269 -0.677341
O21   O     O_3   0.317367 0.767357 0.337161 -0.681877
O22   O     O_3   0.735866 0.820547 0.339026 -0.676998
O23   O     O_R   0.939000 0.560980 0.573650 -0.606866
O24   O     O_3   0.314059 0.229220 0.664254 -0.680995
O25   O     O_3   0.319972 0.235405 0.338658 -0.676964
O26   O     O_3   0.728706 0.813117 0.664538 -0.680452
O27   O     O_R   0.061000 0.439020 0.426350 -0.607434
O28   O     O_R   0.939000 0.439020 0.426350 -0.606555
O29   O     O_R   0.061000 0.560980 0.573650 -0.607504
O30   O     O_R   0.061000 0.560980 0.426350 -0.607670
O31   O     O_R   0.939000 0.439020 0.573650 -0.606132
O32   O     O_R   0.561000 0.939020 0.573650 -0.607827
Zn1   Zn    Zn3+2 0.000000 0.500000 0.598370 0.987219
Zn2   Zn    Zn3+2 0.000000 0.500000 0.401630 0.987694
Zn3   Zn    Zn3+2 0.500000 0.000000 0.598370 0.987376
Zn4   Zn    Zn3+2 0.500000 1.000000 0.401630 0.987493

loop_
_geom_bond_atom_site_label_1
_geom_bond_atom_site_label_2
_ccdc_geom_bond_type
C48   C55   T    
C45   C60   S    
C8    C13   A    
C65   H7    S    
H18   N3    S    
N5    Zn1   S    
C51   C61   T    
C9    C72   A    
C13   C43   S    
C14   C31   A    
C34   O29   A    
C66   H13   S    
C15   C32   A    
C7    C11   A    
N1    Zn2   S    
C5    N4    S    
H48   N10   S    
C21   O15   S    
C26   O19   S    
H37   O19   S    
C45   O32   A    
C5    C11   A    
C18   O16   S    
H30   O13   S    
C63   H45   S    
C21   C33   A    
C69   N3    S    
C27   C38   A    
C17   O10   S    
C30   C38   A    
C11   C42   S    
H5    N11   S    
C41   N1    T    
C52   C60   T    
C25   C37   A    
C66   H11   S    
O30   Zn2   S    
C20   C35   A    
H44   N9    S    
C8    N12   S    
O28   Zn2   S    
C69   H20   S    
C23   O31   A    
C70   H25   S    
O8    Zn3   S    
C30   O24   S    
C39   C52   S    
C65   H8    S    
H40   O22   S    
C62   H23   S    
C10   C41   S    
H32   O15   S    
C6    N3    S    
C1    O1    A    
C35   C48   S    
C43   N6    T    
C65   N11   S    
C17   C31   A    
O3    Zn3   S    
C23   C53   S    
C71   O6    A    
C66   N12   S    
C22   O20   S    
C17   C24   A    
C31   C44   S    
C4    N8    S    
H43   O26   S    
C50   C58   T    
C1    O27   A    
C68   N2    S    
C15   O13   S    
C63   H46   S    
C2    N10   S    
H9    N12   S    
C71   O7    A    
C38   C51   S    
O4    Zn4   S    
C28   C39   A    
C34   O30   A    
H33   O16   S    
C9    C40   S    
C12   O12   A    
O12   Zn2   S    
C25   O18   S    
C70   H24   S    
H42   O25   S    
H14   N2    S    
C3    C9    A    
O1    Zn1   S    
C66   H10   S    
C63   H47   S    
C23   O28   A    
C29   C39   A    
C28   O26   S    
C24   C37   A    
C64   H4    S    
C18   C29   A    
C67   O8    A    
H39   O21   S    
C42   N7    T    
H36   O18   S    
C12   C57   S    
C26   C36   A    
C21   C28   A    
C64   N10   S    
C34   C54   S    
C70   N4    S    
C33   C47   S    
C20   O14   S    
C27   O25   S    
H41   O24   S    
C4    C10   A    
C2    C10   A    
C4    C72   A    
C56   O3    A    
C24   O21   S    
C72   N11   S    
C69   H21   S    
C62   H12   S    
C14   O11   S    
C45   O4    A    
C16   C22   A    
C65   H6    S    
O31   Zn1   S    
C3    N9    S    
C32   C46   S    
H27   O9    S    
O32   Zn3   S    
C15   C26   A    
C5    C8    A    
C56   O2    A    
C6    C7    A    
C62   H34   S    
C20   C27   A    
C16   C32   A    
H1    N8    S    
C22   C36   A    
N6    Zn4   S    
C49   C59   T    
O27   Zn2   S    
C2    C3    A    
C1    C55   S    
H38   O20   S    
C19   C35   A    
C6    C13   A    
C62   N8    S    
C37   C50   S    
H29   O11   S    
O23   Zn1   S    
C68   H16   S    
C40   N5    T    
C46   C53   T    
C19   O17   S    
C64   H3    S    
C16   O9    S    
O2    Zn4   S    
C63   N9    S    
C14   C25   A    
O7    Zn4   S    
C67   O5    A    
C18   C33   A    
H35   O17   S    
C44   C54   T    
C58   C67   S    
C12   O23   A    
N7    Zn3   S    
C47   C57   T    
C68   H15   S    
C64   H2    S    
C56   C61   S    
O6    Zn3   S    
H28   O10   S    
C7    N2    S    
C68   H17   S    
C69   H19   S    
C19   C30   A    
O5    Zn4   S    
O29   Zn1   S    
C36   C49   S    
C70   H26   S    
H31   O14   S    
C59   C71   S    
C29   O22   S    
H22   N4    S    
