data_mof_unit_40426.cif
_audit_creation_date              2013-03-05T15:46:53-0500
_audit_creation_method            fapswitch 2.2
_symmetry_space_group_name_H-M    P1
_symmetry_Int_Tables_number       1
_space_group_crystal_system       triclinic
_cell_length_a                    14.76769
_cell_length_b                    14.84342
_cell_length_c                    14.880855
_cell_angle_alpha                 109.468599
_cell_angle_beta                  109.539305
_cell_angle_gamma                 109.493024
_cell_volume                      2508.32495965

loop_
_atom_site_label
_atom_site_type_symbol
_atom_site_description
_atom_site_fract_x
_atom_site_fract_y
_atom_site_fract_z
_atom_type_partial_charge
C1    C     C_R   0.193632 0.993692 0.902519 -0.146345
C2    C     C_R   0.750269 0.934528 0.028572 -0.069923
H1    H     H_    0.169370 0.023737 0.847177 0.082097
H2    H     H_    0.764335 0.886965 0.067040 0.110252
N1    N     N_R   0.293810 0.002730 0.945950 -0.036580
N2    N     N_R   0.706190 0.997270 0.054050 -0.059214
C3    C     C_R   0.806755 0.208015 0.298380 -0.071239
C4    C     C_R   0.252657 0.775975 0.685327 -0.130257
H3    H     H_    0.834520 0.173485 0.348008 0.079051
H4    H     H_    0.244026 0.797598 0.621818 0.148105
N3    N     N_R   0.706160 0.152130 0.208910 -0.049952
N4    N     N_R   0.293840 0.847870 0.791090 -0.051874
C5    C     C_R   0.406959 0.979552 0.220232 -0.048510
C6    C     C_R   0.590089 0.088974 0.786116 -0.108668
H5    H     H_    0.320479 0.949412 0.194888 0.097285
H6    H     H_    0.674955 0.147020 0.815384 0.114232
N5    N     N_R   0.443140 0.945920 0.152090 -0.051629
N6    N     N_R   0.556860 0.054080 0.847910 -0.051236
C7    C     C_R   0.591738 0.317126 0.057310 -0.011613
C8    C     C_R   0.405875 0.702565 0.006708 -0.058952
H7    H     H_    0.677221 0.382879 0.105270 0.104856
H8    H     H_    0.319614 0.654417 0.979291 0.119925
N7    N     N_R   0.556830 0.208940 0.002760 -0.059452
N8    N     N_R   0.443170 0.791060 0.997240 -0.050676
C9    C     C_R   0.591896 0.069490 0.314555 -0.057368
C10   C     C_R   0.406526 0.001089 0.699049 -0.087244
H9    H     H_    0.677866 0.120745 0.378641 0.116867
H10   H     H_    0.323047 0.984697 0.654915 0.131180
N9    N     N_R   0.556790 0.002750 0.208910 -0.064461
N10   N     N_R   0.443210 0.997250 0.791090 -0.054208
C11   C     C_R   0.407008 0.221709 0.973371 -0.146936
C12   C     C_R   0.588827 0.792491 0.101098 -0.066992
H11   H     H_    0.322204 0.197712 0.950715 0.120574
H12   H     H_    0.673565 0.824960 0.160870 0.107728
N11   N     N_R   0.443180 0.152110 0.945950 -0.051402
N12   N     N_R   0.556820 0.847890 0.054050 -0.049216
C13   C     C_R   0.804513 0.301291 0.209125 -0.058197
C14   C     C_R   0.248987 0.684395 0.777722 -0.065021
H13   H     H_    0.827745 0.355498 0.177718 0.139547
H14   H     H_    0.234258 0.622125 0.801130 0.147117
N13   N     N_R   0.706170 0.208950 0.152090 -0.050193
N14   N     N_R   0.293830 0.791050 0.847910 -0.059662
C15   C     C_R   0.192392 0.899233 0.990091 -0.120017
C16   C     C_R   0.746473 0.021542 0.931721 -0.093031
H15   H     H_    0.164967 0.836381 0.011405 0.109493
H16   H     H_    0.754793 0.050564 0.875934 0.113466
N15   N     N_R   0.293800 0.945910 0.002760 -0.046582
N16   N     N_R   0.706200 0.054090 0.997240 -0.046049
C17   C     C_R   0.125801 0.925224 0.925047 0.062172
C18   C     C_R   0.771777 0.942975 0.946867 0.064130
C19   C     C_R   0.872229 0.301224 0.299725 0.114649
C20   C     C_R   0.226670 0.672098 0.674595 0.118275
C21   C     C_R   0.498687 0.059558 0.323946 0.141234
C22   C     C_R   0.496226 0.054470 0.689992 0.123840
C23   C     C_R   0.497759 0.326995 0.040643 0.111135
C24   C     C_R   0.494769 0.702332 0.076254 0.087279
Ni1   Ni    Ni4+2 0.369690 0.999990 0.869700 0.224528
Ni2   Ni    Ni4+2 0.630310 0.000010 0.130300 0.221548
Ni3   Ni    Ni4+2 0.369670 0.869670 0.000000 0.247505
Ni4   Ni    Ni4+2 0.630330 0.130330 0.000000 0.253856
H17   H     H_    0.135609 0.118982 0.575465 0.111285
H18   H     H_    0.924095 0.033774 0.499117 0.113818
C25   C     C_R   0.298051 0.261805 0.698299 -0.034438
C26   C     C_R   0.751140 0.923116 0.436372 0.014230
C27   C     C_R   0.367012 0.346697 0.811073 -0.034645
C28   C     C_R   0.658814 0.815006 0.356650 -0.111622
C29   C     C_R   0.326356 0.345039 0.885524 0.073895
C30   C     C_R   0.673559 0.736877 0.285057 -0.031270
C31   C     C_R   0.216602 0.265583 0.844441 -0.196604
C32   C     C_R   0.778565 0.767359 0.294465 -0.141791
H19   H     H_    0.184266 0.262985 0.899566 0.121406
H20   H     H_    0.790357 0.709389 0.239036 0.143057
C33   C     C_R   0.148804 0.186440 0.733293 -0.032578
C34   C     C_R   0.867403 0.873987 0.370862 -0.087264
H21   H     H_    0.064669 0.126047 0.703119 0.156844
H22   H     H_    0.947373 0.897019 0.375859 0.155257
C35   C     C_R   0.189398 0.183494 0.661134 -0.132621
C36   C     C_R   0.853485 0.951502 0.440105 -0.185309
C37   C     C_R   0.386489 0.518717 0.045434 -0.116398
C38   C     C_R   0.574799 0.526691 0.178655 -0.087259
C39   C     C_R   0.484995 0.620602 0.113763 0.076238
C40   C     C_R   0.490193 0.427657 0.077166 0.132700
C41   C     C_R   0.577864 0.627059 0.191306 -0.070163
C42   C     C_R   0.396821 0.426524 0.006318 -0.075146
C43   C     C_R   0.051753 0.472864 0.373672 0.348698
C44   C     C_R   0.137087 0.465078 0.567619 0.385287
C45   C     C_R   0.139363 0.568188 0.471516 -0.274592
C46   C     C_R   0.042156 0.373052 0.472933 -0.287643
H23   H     H_    0.178066 0.642897 0.469525 0.212720
H24   H     H_    0.006848 0.297660 0.474807 0.169997
C47   C     C_R   0.173168 0.567712 0.571209 -0.060112
C48   C     C_R   0.991390 0.380360 0.379389 -0.068290
C49   C     C_R   0.588701 0.161401 0.618303 -0.172988
C50   C     C_R   0.392751 0.049381 0.419116 -0.240918
H25   H     H_    0.663907 0.211159 0.697668 0.167863
H26   H     H_    0.315054 0.004497 0.342817 0.158784
C51   C     C_R   0.591022 0.174138 0.529941 0.352512
C52   C     C_R   0.390947 0.028038 0.502036 0.376743
C53   C     C_R   0.494001 0.104742 0.425604 -0.042223
C54   C     C_R   0.491370 0.081597 0.602691 -0.052760
C55   C     C_R   0.956690 0.828435 0.931491 -0.228637
C56   C     C_R   0.855580 0.920545 0.827283 -0.142476
H27   H     H_    0.993705 0.790777 0.971169 0.126994
H28   H     H_    0.815191 0.954688 0.785106 0.172929
C57   C     C_R   0.859740 0.822952 0.928567 -0.048145
C58   C     C_R   0.942329 0.910478 0.815470 -0.029285
C59   C     C_R   0.823345 0.889284 0.895567 0.093647
C60   C     C_R   0.005999 0.883947 0.885880 0.035036
C61   C     C_2   0.335397 0.248818 0.615915 0.471716
H29   H     H_    0.274186 0.199037 0.528638 0.057852
O1    O     O_2   0.433559 0.288355 0.643293 -0.597482
C62   C     C_2   0.747437 0.008426 0.520305 0.599995
H30   H     H_    0.805767 0.095109 0.555971 0.020056
O2    O     O_2   0.684609 0.983646 0.555277 -0.552813
C63   C     C_2   0.474823 0.440575 0.846363 0.639774
H31   H     H_    0.483635 0.467631 0.788974 0.124338
O3    O     O_2   0.555042 0.488298 0.938269 -0.601774
C64   C     C_2   0.546832 0.782577 0.344451 0.637572
H32   H     H_    0.493327 0.699154 0.323310 0.040079
O4    O     O_2   0.510939 0.846239 0.351709 -0.548344
C65   C     C_2   0.276774 0.507267 0.025126 0.504591
H33   H     H_    0.200640 0.436770 0.952990 0.062817
O5    O     O_2   0.270504 0.576447 0.091775 -0.540376
C66   C     C_2   0.656134 0.526197 0.270371 0.484986
H34   H     H_    0.733793 0.600851 0.335091 0.049839
O6    O     O_2   0.634627 0.443251 0.278253 -0.549517
N17   N     N_R   0.028009 0.470565 0.270957 0.226813
O7    O     O_R   0.009189 0.385124 0.188315 -0.398114
O8    O     O_R   0.043666 0.559621 0.265142 -0.349255
N18   N     N_R   0.195019 0.452904 0.657663 0.210250
O9    O     O_R   0.303006 0.503618 0.710221 -0.449669
O10   O     O_R   0.140655 0.382627 0.679966 -0.431702
N19   N     N_R   0.690464 0.256729 0.546855 0.221357
O11   O     O_R   0.683859 0.303833 0.486987 -0.366062
O12   O     O_R   0.786769 0.294274 0.629732 -0.398627
N20   N     N_R   0.289724 0.939283 0.474233 0.214372
O13   O     O_R   0.198440 0.943074 0.438844 -0.450953
O14   O     O_R   0.283833 0.845631 0.459769 -0.369899
C67   C     C_2   0.798298 0.744503 0.955560 0.509122
H35   H     H_    0.841751 0.719469 0.008111 0.034377
O15   O     O_2   0.697581 0.702116 0.914222 -0.548898
C68   C     C_2   0.958367 0.918731 0.724901 0.478059
H36   H     H_    0.006742 0.887094 0.698348 0.020165
O16   O     O_2   0.913105 0.955916 0.675047 -0.608636

loop_
_geom_bond_atom_site_label_1
_geom_bond_atom_site_label_2
_geom_bond_distance
_ccdc_geom_bond_type
C28   C30   1.423885 A    
C25   C27   1.425480 A    
C45   C47   1.401447 A    
C33   H21   1.078964 S    
C6    N6    1.343251 A    
C2    H2    1.075638 S    
C51   N19   1.438201 S    
C8    C24   1.375145 A    
C62   O2    1.220568 D    
C24   C39   1.480721 S    
C21   C53   1.472327 S    
C3    N3    1.336402 A    
C37   C65   1.483200 S    
N8    N12   1.368872 A    
N2    N16   1.378866 A    
C1    N1    1.339597 A    
C12   N12   1.345941 A    
C7    H7    1.079958 S    
C9    C21   1.393897 A    
C14   N14   1.330861 A    
N12   Ni2   1.843042 S    
C44   C47   1.411594 A    
C61   O1    1.220496 D    
C38   C66   1.490467 S    
C37   C42   1.379318 A    
C13   C19   1.384701 A    
C44   C46   1.390787 A    
C26   C62   1.484620 S    
C14   C20   1.389903 A    
C50   C52   1.378611 A    
C16   C18   1.400053 A    
C63   H31   1.084255 S    
N10   Ni1   1.842865 S    
C52   N20   1.431785 S    
N5    N9    1.368871 A    
C31   H19   1.083168 S    
N2    Ni2   1.842540 S    
C64   H32   1.085225 S    
N4    N14   1.378987 A    
C2    C18   1.388616 A    
C51   C53   1.409066 A    
C8    N8    1.319506 A    
H17   C35   1.083697 S    
C27   C29   1.428909 A    
C32   C34   1.391329 A    
C11   H11   1.071795 S    
C31   C33   1.389345 A    
N6    N10   1.368871 A    
C6    H6    1.080194 S    
N3    Ni2   1.842945 S    
C15   N15   1.337861 A    
C4    C20   1.396471 A    
C55   C60   1.404574 A    
C29   C42   1.495467 S    
C49   H25   1.080515 S    
C9    N9    1.339989 A    
C27   C63   1.491539 S    
C22   C54   1.469897 S    
C2    N2    1.330071 A    
C38   C41   1.421041 A    
C10   C22   1.375078 A    
C62   H30   1.085601 S    
C39   C41   1.414763 A    
C43   C48   1.413836 A    
C16   H16   1.077558 S    
N16   Ni4   1.839483 S    
C17   C60   1.481193 S    
C5    C21   1.390476 A    
C43   C45   1.393138 A    
C55   C57   1.391608 A    
N7    Ni4   1.839695 S    
C46   C48   1.402991 A    
C38   C40   1.426546 A    
C37   C39   1.398037 A    
C7    N7    1.342436 A    
C15   C17   1.384984 A    
C63   O3    1.219036 D    
C1    H1    1.076827 S    
C12   H12   1.075446 S    
C25   C61   1.486606 S    
N18   O10   1.301136 A    
N17   O8    1.301541 A    
N1    Ni1   1.842539 S    
C19   C48   1.476019 S    
C57   C67   1.480221 S    
C57   C59   1.413639 A    
C4    N4    1.338932 A    
C56   C59   1.401742 A    
C23   C40   1.466675 S    
C50   H26   1.078756 S    
C15   H15   1.079815 S    
C49   C54   1.407144 A    
C65   H33   1.081727 S    
C34   H22   1.082569 S    
N5    Ni3   1.846840 S    
N4    Ni1   1.842945 S    
N6    Ni4   1.846843 S    
C6    C22   1.393329 A    
C46   H24   1.079858 S    
C10   N10   1.322482 A    
C40   C42   1.418955 A    
C5    H5    1.075848 S    
C28   C64   1.486310 S    
N19   O11   1.301768 A    
C68   O16   1.220357 D    
C43   N17   1.434961 S    
N17   O7    1.301750 A    
C49   C51   1.399075 A    
N20   O14   1.301404 A    
C66   O6    1.220934 D    
C25   C35   1.401703 A    
C7    C23   1.392391 A    
C3    H3    1.079927 S    
C58   C68   1.480458 S    
C30   C41   1.492821 S    
C26   C36   1.402924 A    
H18   C36   1.082865 S    
C4    H4    1.077658 S    
C44   N18   1.434486 S    
N13   Ni4   1.846638 S    
C8    H8    1.072553 S    
N20   O13   1.301245 A    
N14   Ni3   1.846641 S    
C67   H35   1.085611 S    
C5    N5    1.328877 A    
C9    H9    1.077948 S    
C10   H10   1.077966 S    
C56   H28   1.081596 S    
N11   Ni1   1.843042 S    
C11   C23   1.379324 A    
C45   H23   1.080523 S    
N18   O9    1.301371 A    
C3    C19   1.387554 A    
C13   H13   1.075747 S    
C61   H29   1.085864 S    
C14   H14   1.074271 S    
C67   O15   1.221454 D    
C18   C59   1.478588 S    
C58   C60   1.414271 A    
C50   C53   1.396721 A    
N8    Ni3   1.839694 S    
N1    N15   1.378866 A    
N3    N13   1.378987 A    
C11   N11   1.323719 A    
C13   N13   1.334085 A    
N7    N11   1.368871 A    
C64   O4    1.220714 D    
C65   O5    1.221761 D    
C52   C54   1.417187 A    
N15   Ni3   1.839484 S    
N9    Ni2   1.842862 S    
C55   H27   1.080693 S    
C34   C36   1.391762 A    
C56   C58   1.398312 A    
N19   O12   1.301494 A    
C30   C32   1.404744 A    
C33   C35   1.389621 A    
C68   H36   1.084439 S    
C20   C47   1.474061 S    
C32   H20   1.083539 S    
C29   C31   1.404481 A    
C1    C17   1.385988 A    
C12   C24   1.393962 A    
C16   N16   1.342890 A    
C26   C28   1.424905 A    
C66   H34   1.082760 S    
