data_mof_unit_22044.cif
_audit_creation_date              2012-12-10T17:26:18-0500
_audit_creation_method            fapswitch 2.2
_symmetry_space_group_name_H-M    P1
_symmetry_Int_Tables_number       1
_space_group_crystal_system       triclinic
_cell_length_a                    10.159002
_cell_length_b                    10.746065
_cell_length_c                    27.739062
_cell_angle_alpha                 90.193722
_cell_angle_beta                  80.606104
_cell_angle_gamma                 95.093355
_cell_volume                      2975.65636125

loop_
_atom_site_label
_atom_site_type_symbol
_atom_type_description
_atom_site_fract_x
_atom_site_fract_y
_atom_site_fract_z
_atom_type_partial_charge
C1    C     C_R   0.555863 0.732927 0.498484 0.965632
C2    C     C_R   0.444054 0.267187 0.504986 0.963687
C3    C     C_R   0.516134 0.512204 0.897109 -0.097080
C4    C     C_R   0.493400 0.497481 0.101930 -0.094803
C5    C     C_R   0.511084 0.626644 0.872563 -0.068435
C6    C     C_R   0.523811 0.389365 0.125427 -0.070476
C7    C     C_R   0.504155 0.738080 0.899698 0.243601
C8    C     C_R   0.561855 0.285157 0.097019 0.241403
C9    C     C_R   0.524578 0.400527 0.870387 -0.010038
C10   C     C_R   0.456247 0.602499 0.129849 -0.005895
C11   C     C_R   0.498643 0.497455 0.646617 -0.138053
C12   C     C_R   0.501958 0.505314 0.352951 -0.147838
C13   C     C_R   0.478491 0.613298 0.027229 0.074074
C14   C     C_R   0.523993 0.394240 0.972091 0.074559
C15   C     C_R   0.528273 0.393095 0.022874 0.012935
C16   C     C_R   0.495840 0.619453 0.975579 0.012594
C17   C     C_R   0.500111 0.501205 0.050537 0.069922
C18   C     C_R   0.512226 0.508748 0.948382 0.069494
C19   C     C_R   0.437715 0.715161 0.056526 -0.226328
C20   C     C_R   0.529356 0.284053 0.944200 -0.222932
C21   C     C_R   0.426591 0.709512 0.106891 -0.147775
C22   C     C_R   0.529935 0.287444 0.894299 -0.147808
C23   C     C_R   0.499118 0.497897 0.593915 0.913504
C24   C     C_R   0.501092 0.502566 0.405932 0.920662
C25   C     C_R   0.498277 0.733333 0.950228 -0.288349
C26   C     C_R   0.561894 0.287608 0.046770 -0.289776
C27   C     C_2   0.587214 0.865210 0.503628 -0.355441
C28   C     C_2   0.412120 0.135101 0.513431 -0.316348
C29   C     C_2   0.487416 0.933671 0.521067 -0.152876
C30   C     C_2   0.510438 0.066704 0.520477 -0.131873
C31   C     C_2   0.927398 0.511373 0.503091 0.000038
C32   C     C_2   0.076116 0.504324 0.491907 -0.026495
C33   C     C_R   0.513452 0.624725 0.821594 0.501426
C34   C     C_R   0.516390 0.390629 0.176614 0.542642
C35   C     C_R   0.524416 0.403734 0.820164 0.544046
C36   C     C_R   0.450652 0.598692 0.180393 0.508724
C37   C     C_R   0.388695 0.459509 0.730833 0.192302
C38   C     C_R   0.615138 0.527796 0.268385 0.173463
C39   C     C_R   0.385393 0.448712 0.680260 -0.105742
C40   C     C_R   0.621562 0.532682 0.318831 -0.093681
C41   C     C_R   0.613372 0.550994 0.663361 -0.229668
C42   C     C_R   0.379579 0.476958 0.336314 -0.216593
C43   C     C_R   0.617128 0.558221 0.712890 -0.132197
C44   C     C_R   0.374230 0.474122 0.286811 -0.129021
C45   C     C_R   0.506102 0.512872 0.746499 0.277148
C46   C     C_R   0.490987 0.498716 0.253089 0.285990
H1    H     H_    0.700294 0.588541 0.637950 0.168915
H2    H     H_    0.287414 0.455343 0.361710 0.176424
H3    H     H_    0.310810 0.093495 0.512855 0.149364
H4    H     H_    0.689366 0.906729 0.492835 0.155684
H5    H     H_    0.119133 0.460269 0.458498 0.158140
H6    H     H_    0.887200 0.572108 0.532105 0.147485
H7    H     H_    0.707150 0.598233 0.725355 0.160439
H8    H     H_    0.279188 0.451860 0.274467 0.162903
H9    H     H_    0.395463 0.790271 0.127775 0.189661
H10   H     H_    0.533663 0.200292 0.874556 0.185343
H11   H     H_    0.409538 0.799611 0.041686 0.139807
H12   H     H_    0.528677 0.192596 0.960121 0.135597
H13   H     H_    0.497759 0.821756 0.968721 0.138197
H14   H     H_    0.595447 0.206751 0.026937 0.140340
H15   H     H_    0.611870 0.107823 0.521156 0.180791
H16   H     H_    0.384873 0.892850 0.531516 0.185514
N1    N     N_R   0.515837 0.514064 0.797268 -0.345083
N2    N     N_R   0.483619 0.495149 0.202240 -0.342662
N3    N     N_2   0.842700 0.448890 0.480020 -0.047151
N4    N     N_2   0.157300 0.551110 0.519980 -0.046579
O1    O     O_R   0.431060 0.692470 0.504020 -0.614392
O2    O     O_R   0.568940 0.307530 0.495980 -0.618836
O3    O     O_R   0.651120 0.659650 0.491200 -0.609985
O4    O     O_R   0.348880 0.340350 0.508800 -0.602171
O5    O     O_R   0.389980 0.516390 0.577660 -0.610881
O6    O     O_R   0.610020 0.483610 0.422340 -0.608490
O7    O     O_R   0.610040 0.483570 0.564830 -0.627310
O8    O     O_R   0.389960 0.516430 0.435170 -0.628599
O9    O     O_2   0.511207 0.731319 0.796322 -0.525818
O10   O     O_2   0.541028 0.289068 0.200992 -0.523613
O11   O     O_2   0.414561 0.698258 0.207627 -0.559083
O12   O     O_2   0.532314 0.297371 0.794180 -0.555684
Zn1   Zn    Zn3+2 0.353060 0.521910 0.508560 0.970748
Zn2   Zn    Zn3+2 0.646940 0.478090 0.491440 0.971790
N5    N     N_2   0.099889 0.581923 0.566441 -0.260452
H17   H     H_    0.116715 0.519019 0.592222 0.264825
C47   C     C_3   0.137961 0.708964 0.578943 -0.686822
H18   H     H_    0.078861 0.731567 0.614685 0.223996
H19   H     H_    0.117089 0.774551 0.550817 0.224954
H20   H     H_    0.245935 0.720758 0.581957 0.251623
N6    N     N_2   0.893466 0.380354 0.440280 -0.243394
H21   H     H_    0.838194 0.384395 0.412429 0.281091
C48   C     C_3   0.909209 0.252558 0.452717 -0.750118
H22   H     H_    0.957121 0.204712 0.419769 0.235069
H23   H     H_    0.809989 0.202063 0.466229 0.242985
H24   H     H_    0.973883 0.249581 0.481263 0.236304
N7    N     N_2   0.502764 0.856342 0.876888 -0.247842
H25   H     H_    0.565150 0.925703 0.889443 0.211534
C49   C     C_3   0.369817 0.895077 0.877197 -0.681262
H26   H     H_    0.376915 0.983461 0.855930 0.248830
H27   H     H_    0.320777 0.911191 0.915269 0.202045
H28   H     H_    0.307432 0.822887 0.860143 0.255902
N8    N     N_2   0.602248 0.177166 0.118180 -0.249271
H29   H     H_    0.567798 0.094367 0.103641 0.214105
C50   C     C_3   0.744391 0.182819 0.119609 -0.676102
H30   H     H_    0.766457 0.099435 0.139373 0.240511
H31   H     H_    0.776957 0.267672 0.139118 0.257899
H32   H     H_    0.801993 0.184087 0.081896 0.206092
C51   C     C_2   0.749891 0.575100 0.335286 0.923461
O13   O     O_2   0.849468 0.519479 0.322579 -0.651892
O14   O     O_R   0.756036 0.678688 0.365743 -0.790192
H33   H     H_    0.848091 0.697939 0.375038 0.344203
C52   C     C_2   0.267271 0.382262 0.663042 0.902050
O15   O     O_2   0.283145 0.300649 0.632330 -0.623550
O16   O     O_R   0.138113 0.412417 0.682072 -0.826660
H34   H     H_    0.066320 0.360235 0.667640 0.342736
N9    N     N_2   0.731501 0.552824 0.232285 -0.317602
H35   H     H_    0.811692 0.504777 0.237226 0.269170
C53   C     C_3   0.768212 0.683647 0.220530 -0.730341
H36   H     H_    0.852873 0.692725 0.189540 0.237771
H37   H     H_    0.799814 0.733711 0.252409 0.252025
H38   H     H_    0.682861 0.727773 0.209506 0.271087
N10   N     N_2   0.279372 0.409579 0.766431 -0.290824
H39   H     H_    0.227510 0.329343 0.756494 0.256635
C54   C     C_3   0.193153 0.500693 0.789264 -0.708623
H40   H     H_    0.114564 0.453785 0.817519 0.233363
H41   H     H_    0.144037 0.545312 0.761698 0.272786
H42   H     H_    0.251048 0.573963 0.807359 0.238767

loop_
_geom_bond_atom_site_label_1
_geom_bond_atom_site_label_2
_ccdc_geom_bond_type
O2    Zn2   S    
N6    H21   S    
N7    H25   S    
C37   C45   A    
C27   C29   D    
C8    C26   A    
C14   C18   A    
C49   H26   S    
C31   H6    S    
O5    Zn1   S    
N5    H17   S    
C49   H28   S    
C21   H9    S    
C19   H11   S    
N4    Zn1   S    
C51   O14   S    
C50   H30   S    
C19   C21   A    
C8    N8    S    
C2    O2    A    
C36   O11   S    
C52   O16   S    
C9    C22   A    
C53   H36   S    
C3    C18   A    
C15   C17   A    
C54   H42   S    
C12   C42   A    
C43   H7    S    
C47   H18   S    
C44   C46   A    
C53   H37   S    
C5    C33   A    
O14   H33   S    
C48   H23   S    
C27   H4    S    
C1    C27   S    
C50   H31   S    
N3    Zn2   S    
C41   C43   A    
C42   C44   A    
C23   O7    A    
N5    C47   S    
C33   O9    S    
N3    N6    S    
N10   C54   S    
C10   C21   A    
C7    N7    S    
C54   H41   S    
C13   C19   A    
C14   C20   A    
O1    Zn1   S    
C4    C6    A    
C5    C7    A    
C38   N9    S    
C15   C26   A    
C6    C8    A    
C45   N1    S    
C1    O3    A    
C6    C34   A    
C46   N2    S    
C12   C40   A    
C32   H5    S    
C29   C30   S    
C3    C9    A    
C23   O5    A    
C28   H3    S    
C31   C32   S    
C37   N10   S    
C33   N1    A    
C53   H38   S    
C34   N2    A    
C41   H1    S    
C42   H2    S    
C48   H24   S    
C11   C39   A    
C43   C45   A    
C54   H40   S    
C4    C17   A    
C16   C18   A    
C47   H19   S    
C20   C22   A    
C50   H32   S    
O8    Zn1   S    
N6    C48   S    
C13   C16   A    
C20   H12   S    
C24   O6    A    
C32   N4    D    
N9    H35   S    
C16   C25   A    
C31   N3    D    
C29   H16   S    
O16   H34   S    
N8    C50   S    
O4    Zn1   S    
C3    C5    A    
C35   N1    A    
N10   H39   S    
C49   H27   S    
C13   C17   A    
C51   O13   D    
C12   C24   S    
C35   O12   S    
C7    C25   A    
N8    H29   S    
C22   H10   S    
C28   C30   D    
C37   C39   A    
C36   N2    A    
C52   O15   D    
N4    N5    S    
C38   C40   A    
C24   O8    A    
N7    C49   S    
C26   H14   S    
C11   C23   S    
C1    O1    A    
O7    Zn2   S    
C10   C36   A    
C11   C41   A    
C38   C46   A    
C44   H8    S    
C39   C52   S    
C47   H20   S    
O6    Zn2   S    
C30   H15   S    
C9    C35   A    
C14   C15   A    
O3    Zn2   S    
C2    C28   S    
C25   H13   S    
C48   H22   S    
C2    O4    A    
C4    C10   A    
C34   O10   S    
C40   C51   S    
N9    C53   S    
