data_mof_unit_67459.cif
_audit_creation_date              2013-03-05T15:40:58-0500
_audit_creation_method            fapswitch 2.2
_symmetry_space_group_name_H-M    P1
_symmetry_Int_Tables_number       1
_space_group_crystal_system       triclinic
_cell_length_a                    10.899672
_cell_length_b                    8.76864
_cell_length_c                    7.712199
_cell_angle_alpha                 102.981488
_cell_angle_beta                  96.306377
_cell_angle_gamma                 93.246124
_cell_volume                      711.391617705

loop_
_atom_site_label
_atom_site_type_symbol
_atom_site_description
_atom_site_fract_x
_atom_site_fract_y
_atom_site_fract_z
_atom_type_partial_charge
O1    O     O_R   0.509140 0.286130 0.619770 -0.526391
O2    O     O_R   0.485380 0.256770 0.308360 -0.580052
C1    C     C_R   0.496422 0.201434 0.454391 0.803306
O3    O     O_R   0.329570 0.514650 0.655700 -0.492304
O4    O     O_R   0.305810 0.485300 0.344290 -0.560883
C2    C     C_R   0.260910 0.493271 0.497826 0.870598
Cu1   Cu    Cu3+1 0.514070 0.517380 0.684380 1.194222
Cu2   Cu    Cu3+1 0.485930 0.482620 0.315620 1.177718
O5    O     O_R   0.514620 0.743230 0.691640 -0.569406
O6    O     O_R   0.490860 0.713870 0.380230 -0.522530
O7    O     O_R   0.694190 0.514700 0.655710 -0.534884
O8    O     O_R   0.670430 0.485350 0.344300 -0.530254
C3    C     C_R   0.504785 0.798550 0.545112 0.836643
C4    C     C_R   0.739168 0.498180 0.500469 0.932939
C5    C     C_3   0.085545 0.447130 0.673411 0.500912
C6    C     C_3   0.941145 0.456214 0.679203 0.443197
C7    C     C_3   0.081167 0.660901 0.480606 0.309864
C8    C     C_3   0.051574 0.356485 0.329885 0.463577
C9    C     C_3   0.122509 0.490244 0.494393 -0.449203
C10   C     C_3   0.877916 0.495748 0.500135 -0.420308
C11   C     C_3   0.935925 0.664287 0.485919 0.306825
C12   C     C_3   0.906786 0.357383 0.336147 0.415821
C13   C     C_2   0.483692 0.034016 0.430072 0.073428
C14   C     C_2   0.520042 0.965554 0.566840 0.088938
N1    N     N_2   0.464720 0.456420 0.038520 0.172957
N2    N     N_2   0.535280 0.543580 0.961480 0.166501
O9    O     O_3   0.154835 0.543015 0.829055 -0.594423
H1    H     H_    0.131715 0.651105 0.851175 0.392383
Br1   Br    Br    0.813776 0.349663 0.102086 -0.243859
Br2   Br    Br    0.134301 0.733176 0.275329 -0.198207
Br3   Br    Br    0.847824 0.734578 0.290247 -0.203256
Br4   Br    Br    0.400395 0.927067 0.194294 -0.280543
Br5   Br    Br    0.611065 0.072531 0.795930 -0.248099
O10   O     O_3   0.402321 0.330542 0.926291 -0.517588
H2    H     H_    0.363456 0.272247 0.004857 0.380958
O11   O     O_3   0.594741 0.671800 0.072733 -0.520173
H3    H     H_    0.633543 0.729752 0.993778 0.386825
Br6   Br    Br    0.140273 0.237830 0.690782 -0.228310
O12   O     O_3   0.884151 0.313180 0.694985 -0.615518
H4    H     H_    0.922597 0.286684 0.804639 0.424783
Br7   Br    Br    0.908582 0.606568 0.894494 -0.272675
Br8   Br    Br    0.182298 0.832412 0.657857 -0.301463
Br9   Br    Br    0.891799 0.847569 0.660956 -0.223472
Br10  Br    Br    0.097317 0.371028 0.099137 -0.294048
O13   O     O_3   0.086833 0.205571 0.334875 -0.589102
H5    H     H_    0.176980 0.203153 0.325857 0.354632
Br11  Br    Br    0.832510 0.148884 0.345764 -0.180077

loop_
_geom_bond_atom_site_label_1
_geom_bond_atom_site_label_2
_geom_bond_distance
_ccdc_geom_bond_type
O4    Cu2   2.000512 S    
Cu1   O7    2.000512 S    
C13   C14   1.359982 D    
C5    Br6   1.989696 S    
C2    C9    1.504468 S    
C12   Br1   1.956042 S    
C8    Br10  1.929096 S    
C5    O9    1.411968 S    
C14   Br5   1.936666 S    
C6    C10   1.592283 S    
N1    O10   1.336594 S    
Cu2   O8    1.997003 S    
C13   Br4   1.945497 S    
C12   Br11  1.977360 S    
Cu1   Cu2   2.771888 S    
C11   Br9   1.972812 S    
O13   H5    0.993693 S    
C5    C9    1.597121 S    
Cu2   N1    2.082806 S    
C11   Br3   1.935418 S    
Cu1   N2    2.082806 S    
C7    Br2   1.963157 S    
O3    Cu1   1.997004 S    
N2    O11   1.334998 S    
O11   H3    0.989511 S    
C7    C9    1.609662 S    
O8    C4    1.325115 A    
O2    C1    1.319336 A    
O4    C2    1.319272 A    
O7    C4    1.324310 A    
C7    C11   1.589887 S    
C6    O12   1.403825 S    
C5    C6    1.585435 S    
C8    O13   1.406255 S    
C4    C10   1.513941 S    
O9    H1    0.977131 S    
C10   C11   1.605635 S    
O3    C2    1.326288 A    
O10   H2    0.989393 S    
O12   H4    0.982945 S    
Cu1   O5    1.968225 S    
O5    C3    1.322634 A    
C7    Br8   1.975623 S    
C8    C9    1.611314 S    
O1    Cu1   1.972504 S    
N1    N2    1.329077 D    
C8    C12   1.584582 S    
C1    C13   1.434242 S    
C6    Br7   1.954467 S    
Cu2   O6    1.972504 S    
O2    Cu2   1.968226 S    
C3    C14   1.433967 S    
C10   C12   1.616113 S    
O1    C1    1.312036 A    
O6    C3    1.308430 A    
