data_mof_unit_37030.cif
_audit_creation_date              2012-12-10T19:28:40-0500
_audit_creation_method            fapswitch 2.2
_symmetry_space_group_name_H-M    P1
_symmetry_Int_Tables_number       1
_space_group_crystal_system       triclinic
_cell_length_a                    27.68666
_cell_length_b                    10.51085
_cell_length_c                    9.819926
_cell_angle_alpha                 90.234133
_cell_angle_beta                  89.635018
_cell_angle_gamma                 90.040585
_cell_volume                      2857.6174033

loop_
_atom_site_label
_atom_site_type_symbol
_atom_type_description
_atom_site_fract_x
_atom_site_fract_y
_atom_site_fract_z
_atom_type_partial_charge
C1    C     C_R   0.499485 0.258364 0.499595 0.917401
C2    C     C_R   0.875069 0.378365 0.501617 -0.110662
C3    C     C_R   0.353671 0.502460 0.502552 -0.337364
C4    C     C_R   0.647022 0.492450 0.499498 -0.345155
C5    C     C_R   0.976002 0.380798 0.539982 0.005161
C6    C     C_R   0.024735 0.613838 0.522439 0.003601
C7    C     C_R   0.974401 0.613318 0.549013 -0.086345
C8    C     C_R   0.025906 0.386155 0.571552 -0.090886
C9    C     C_R   0.949741 0.495986 0.539967 -0.022840
C10   C     C_R   0.050852 0.500546 0.544260 -0.022138
C11   C     C_R   0.952607 0.266667 0.500548 0.298796
C12   C     C_R   0.499560 0.741787 0.500506 0.922940
C13   C     C_R   0.048662 0.719821 0.465046 0.307797
C14   C     C_R   0.902179 0.266457 0.477253 0.396381
C15   C     C_R   0.099687 0.721799 0.457830 0.379395
C16   C     C_R   0.406364 0.500040 0.500436 0.862710
C17   C     C_R   0.593902 0.498650 0.499594 0.874796
C18   C     C_R   0.052005 0.282091 0.625695 0.485971
C19   C     C_R   0.947790 0.724889 0.581183 0.479079
C20   C     C_3   0.537524 0.043086 0.564956 0.347481
C21   C     C_3   0.459784 0.957259 0.435911 0.342421
C22   C     C_3   0.539269 0.958772 0.436702 -0.141066
C23   C     C_R   0.101614 0.500797 0.536348 -0.189428
C24   C     C_3   0.458101 0.042297 0.564090 -0.151504
C25   C     C_3   0.499282 0.876147 0.501632 -0.214880
C26   C     C_3   0.498266 0.124305 0.498973 -0.213191
C27   C     C_3   0.497972 0.961278 0.629221 0.393688
C28   C     C_3   0.499349 0.039227 0.371488 0.393004
C29   C     C_3   0.470381 0.416565 0.047954 0.282809
C30   C     C_3   0.529640 0.583394 0.952049 0.294241
C31   C     C_3   0.512560 0.390705 0.951728 0.273514
C32   C     C_3   0.487451 0.609284 0.048258 0.272993
C33   C     C_3   0.457766 0.525855 0.953552 0.271692
C34   C     C_R   0.899072 0.494100 0.530514 -0.188740
C35   C     C_3   0.542243 0.474094 0.046469 0.279599
C36   C     C_R   0.178460 0.396827 0.572154 0.671701
C37   C     C_R   0.821925 0.601544 0.545861 0.665052
C38   C     C_R   0.176729 0.607231 0.481228 0.701557
C39   C     C_R   0.824436 0.379805 0.491767 0.702116
C40   C     C_R   0.278929 0.581590 0.603800 0.413275
C41   C     C_R   0.721533 0.431439 0.613756 0.421889
C42   C     C_R   0.329446 0.586809 0.593117 0.308967
C43   C     C_R   0.670956 0.427471 0.606354 0.268551
C44   C     C_R   0.327067 0.419340 0.416925 0.259862
C45   C     C_R   0.127731 0.390459 0.573244 -0.218915
C46   C     C_R   0.674537 0.551119 0.394204 0.287463
C47   C     C_R   0.276355 0.424490 0.419716 0.418767
C48   C     C_R   0.725182 0.543411 0.396652 0.405132
C49   C     C_R   0.252972 0.502686 0.515355 0.046066
C50   C     C_R   0.747955 0.487515 0.508143 0.053885
C51   C     C_3   0.584744 0.908030 0.366936 -0.402118
C52   C     C_3   0.616660 0.015895 0.312803 -0.312986
C53   C     C_3   0.662123 0.963146 0.244578 -0.750517
C54   C     C_3   0.413464 0.097192 0.635409 -0.397911
C55   C     C_3   0.379253 0.992031 0.683816 -0.311042
C56   C     C_R   0.872608 0.608461 0.547395 -0.217054
C57   C     C_3   0.335566 0.047758 0.758258 -0.731726
C58   C     C_R   0.102293 0.280779 0.617603 0.445121
C59   C     C_R   0.897594 0.724145 0.571779 0.438045
C60   C     C_R   0.126123 0.611392 0.491904 -0.103330
H1    H     H_    0.380659 0.306484 0.369957 0.352668
H2    H     H_    0.575939 0.717205 0.974149 0.346074
H3    H     H_    0.390929 0.566876 0.978964 0.367460
H4    H     H_    0.609190 0.434248 0.021113 0.375108
H5    H     H_    0.268742 0.304947 0.267865 0.399333
H6    H     H_    0.733814 0.627068 0.220204 0.395505
H7    H     H_    0.145709 0.144413 0.576740 0.371658
H8    H     H_    0.854490 0.851034 0.504964 0.377296
H9    H     H_    0.618782 0.314797 0.657814 0.393836
H10   H     H_    0.383837 0.701071 0.622973 0.354244
H11   H     H_    0.724027 0.347988 0.791485 0.397126
H12   H     H_    0.625087 0.663351 0.325662 0.341105
H13   H     H_    0.275735 0.702151 0.756255 0.391880
H14   H     H_    0.901328 0.113101 0.365759 0.355779
H15   H     H_    0.104314 0.906149 0.446662 0.361136
H16   H     H_    0.961044 0.083521 0.499568 0.400414
H17   H     H_    0.040522 0.855523 0.332240 0.365477
H18   H     H_    0.998270 0.213183 0.729532 0.341154
H19   H     H_    0.000278 0.812388 0.672182 0.349274
H20   H     H_    0.683601 0.907509 0.318687 0.282872
H21   H     H_    0.652367 0.900889 0.157260 0.269556
H22   H     H_    0.684656 0.042947 0.206294 0.269344
H23   H     H_    0.595619 0.017315 0.665944 0.362835
H24   H     H_    0.596374 0.072912 0.237243 0.260616
H25   H     H_    0.627453 0.079728 0.397816 0.259613
H26   H     H_    0.605198 0.851447 0.442466 0.196880
H27   H     H_    0.573785 0.845195 0.281245 0.225899
H28   H     H_    0.347291 0.101936 0.849650 0.258159
H29   H     H_    0.315192 0.111951 0.689777 0.278685
H30   H     H_    0.311257 0.969535 0.791361 0.274435
H31   H     H_    0.366354 0.936291 0.594858 0.267682
H32   H     H_    0.398554 0.926861 0.753738 0.267811
H33   H     H_    0.425411 0.155195 0.723915 0.231038
H34   H     H_    0.401498 0.981521 0.335419 0.361625
H35   H     H_    0.394319 0.160361 0.563241 0.196231
H36   H     H_    0.497290 0.993897 0.821413 0.354094
H37   H     H_    0.499909 0.006510 0.179326 0.354466
H38   H     H_    0.531906 0.217101 0.973953 0.360578
H39   H     H_    0.468171 0.782920 0.025960 0.362164
H40   H     H_    0.424133 0.282590 0.025940 0.345430
N1    N     N_R   0.201362 0.502083 0.522701 -0.309743
N2    N     N_R   0.799479 0.489597 0.515211 -0.308162
N3    N     N_3   0.499960 0.500030 0.863290 -0.132179
N4    N     N_3   0.500040 0.499970 0.136710 -0.133840
O1    O     O_R   0.500000 0.313960 0.616610 -0.574914
O2    O     O_2   0.794808 0.704258 0.577350 -0.502614
O3    O     O_2   0.799863 0.272728 0.460663 -0.446392
O4    O     O_2   0.201551 0.706681 0.429509 -0.441173
O5    O     O_3   0.349059 0.331197 0.331903 -0.717605
O6    O     O_3   0.653478 0.617566 0.289231 -0.724988
O7    O     O_3   0.577283 0.092470 0.634421 -0.737420
O8    O     O_3   0.420082 0.906778 0.366934 -0.717560
O9    O     O_3   0.498248 0.916672 0.763207 -0.716888
O10   O     O_3   0.498948 0.083769 0.237481 -0.717768
O11   O     O_3   0.526162 0.273743 0.895266 -0.694420
O12   O     O_R   0.500000 0.686040 0.383390 -0.573109
O13   O     O_3   0.473876 0.726282 0.104674 -0.696064
O14   O     O_3   0.438731 0.327387 0.104595 -0.665520
O15   O     O_3   0.561322 0.672521 0.895442 -0.675383
O16   O     O_3   0.412512 0.553801 0.899237 -0.671063
O17   O     O_3   0.587461 0.445682 0.100819 -0.672655
O18   O     O_3   0.248087 0.351512 0.333819 -0.710934
O19   O     O_3   0.754048 0.594110 0.294868 -0.719759
O20   O     O_3   0.125340 0.170569 0.655394 -0.641735
O21   O     O_3   0.874176 0.838755 0.587867 -0.633066
O22   O     O_3   0.646168 0.357814 0.703111 -0.710735
O23   O     O_R   0.500020 0.313950 0.383350 -0.553248
O24   O     O_3   0.353788 0.675811 0.670882 -0.725340
O25   O     O_3   0.746775 0.378388 0.720593 -0.703198
O26   O     O_3   0.253260 0.654736 0.696706 -0.705583
O27   O     O_3   0.879098 0.159240 0.427999 -0.671359
O28   O     O_3   0.124078 0.831204 0.420596 -0.677124
O29   O     O_3   0.980048 0.159672 0.473616 -0.708781
O30   O     O_3   0.021366 0.814400 0.405365 -0.713165
O31   O     O_3   0.029991 0.183299 0.694732 -0.651050
O32   O     O_3   0.969218 0.834988 0.628954 -0.654435
O33   O     O_R   0.499980 0.686050 0.616650 -0.551764
O34   O     O_R   0.428750 0.500030 0.616610 -0.567321
O35   O     O_R   0.571250 0.499970 0.383390 -0.564208
O36   O     O_R   0.428770 0.500020 0.383360 -0.557478
O37   O     O_R   0.571230 0.499980 0.616640 -0.557003
O38   O     O_2   0.205132 0.300603 0.622269 -0.508643
Zn1   Zn    Zn3+2 0.499990 0.500010 0.655740 1.102588
Zn2   Zn    Zn3+2 0.500010 0.499990 0.344260 1.103142

loop_
_geom_bond_atom_site_label_1
_geom_bond_atom_site_label_2
_ccdc_geom_bond_type
C41   O25   S    
C3    C42   A    
C34   C56   A    
C23   C45   A    
C15   C60   A    
C24   C27   S    
C32   O13   S    
H1    O5    S    
H7    O20   S    
C48   O19   S    
C47   C49   A    
C4    C46   A    
C52   C53   S    
C39   O3    S    
H19   O32   S    
C21   C25   S    
C57   H29   S    
C30   C35   S    
C53   H21   S    
C52   H25   S    
C24   C26   S    
C5    C11   A    
C38   N1    A    
O34   Zn1   S    
C11   O29   S    
C49   N1    S    
C37   N2    A    
C11   C14   A    
H11   O25   S    
C30   O15   S    
C24   C54   S    
H4    O17   S    
C29   C33   S    
C43   O22   S    
C17   O37   A    
C13   O30   S    
H34   O8    S    
C52   H24   S    
C36   O38   S    
C54   H33   S    
C55   H31   S    
O12   Zn2   S    
C37   C56   A    
C2    C39   A    
C18   C58   A    
C15   O28   S    
H23   O7    S    
C22   C25   S    
C30   N3    S    
C32   N4    S    
H18   O31   S    
C44   C47   A    
C42   O24   S    
C44   O5    S    
C2    C34   A    
C40   C42   A    
O33   Zn1   S    
C22   C28   S    
H14   O27   S    
C41   C43   A    
C16   O36   A    
C51   H26   S    
C31   O11   S    
C46   C48   A    
C14   O27   S    
C23   C60   A    
C3    C44   A    
H12   O6    S    
C45   C58   A    
C57   H30   S    
C51   C52   S    
H13   O26   S    
O36   Zn2   S    
C35   O17   S    
C53   H20   S    
C35   N4    S    
C51   H27   S    
C47   O18   S    
C19   C59   A    
C19   O32   S    
C8    C18   A    
C29   N4    S    
C53   H22   S    
C31   N3    S    
C5    C9    A    
C55   H32   S    
H39   O13   S    
C20   O7    S    
O35   Zn2   S    
N4    Zn2   S    
H2    O15   S    
C36   C45   A    
C17   O35   A    
C55   C57   S    
H5    O18   S    
C54   H35   S    
C28   O10   S    
C18   O31   S    
C4    C17   S    
C27   O9    S    
C4    C43   A    
C21   C28   S    
C20   C22   S    
H9    O22   S    
C50   N2    S    
C7    C19   A    
C13   C15   A    
C9    C34   A    
C38   C60   A    
H36   O9    S    
H40   O14   S    
H17   O30   S    
C41   C50   A    
C21   O8    S    
H15   O28   S    
C39   N2    A    
H10   O24   S    
C7    C9    A    
C40   O26   S    
C54   C55   S    
C33   N3    S    
C58   O20   S    
C16   O34   A    
C1    O23   A    
N3    Zn1   S    
O1    Zn1   S    
C5    C8    A    
H16   O29   S    
C57   H28   S    
C6    C7    A    
C20   C27   S    
C10   C23   A    
C59   O21   S    
C29   O14   S    
C26   C28   S    
C56   C59   A    
C12   C25   S    
C32   C33   S    
O37   Zn1   S    
C37   O2    S    
C29   C31   S    
C46   O6    S    
C6    C13   A    
C30   C32   S    
H3    O16   S    
H38   O11   S    
C1    C26   S    
C20   C26   S    
C48   C50   A    
C31   C35   S    
O23   Zn2   S    
C38   O4    S    
C2    C14   A    
C6    C10   A    
H6    O19   S    
C33   O16   S    
C8    C10   A    
C21   C24   S    
C12   O33   A    
C36   N1    A    
H37   O10   S    
H8    O21   S    
C3    C16   S    
C40   C49   A    
C1    O1    A    
C22   C51   S    
C12   O12   A    
C25   C27   S    
