data_mof_unit_26234.cif
_audit_creation_date              2012-12-10T18:57:51-0500
_audit_creation_method            fapswitch 2.2
_symmetry_space_group_name_H-M    P1
_symmetry_Int_Tables_number       1
_space_group_crystal_system       triclinic
_cell_length_a                    10.727894
_cell_length_b                    9.951979
_cell_length_c                    8.917062
_cell_angle_alpha                 90.180665
_cell_angle_beta                  92.985291
_cell_angle_gamma                 90.18019
_cell_volume                      950.717312733

loop_
_atom_site_label
_atom_site_type_symbol
_atom_type_description
_atom_site_fract_x
_atom_site_fract_y
_atom_site_fract_z
_atom_type_partial_charge
C1    C     C_R   0.260335 0.500288 0.504248 0.833994
C2    C     C_R   0.065978 0.621028 0.542572 -0.177531
C3    C     C_R   0.872233 0.503891 0.497445 -0.008870
C4    C     C_R   0.127721 0.501848 0.509211 -0.007306
C5    C     C_R   0.574395 0.070951 0.601928 0.333640
C6    C     C_R   0.430823 0.926778 0.392309 0.287702
C7    C     C_R   0.428075 0.072287 0.394566 0.306463
C8    C     C_R   0.567800 0.927645 0.607813 0.341924
C9    C     C_3   0.775616 0.147842 0.633970 0.208198
C10   C     C_3   0.872023 0.046310 0.693702 -0.914584
C11   C     C_3   0.395499 0.860976 0.146394 0.108341
C12   C     C_R   0.739704 0.500837 0.498478 0.835596
C13   C     C_3   0.302872 0.786647 0.040219 -0.854249
C14   C     C_3   0.237870 0.121166 0.272120 0.149309
C15   C     C_3   0.174874 0.230131 0.175732 -0.848630
C16   C     C_3   0.594760 0.880920 0.860925 0.192142
C17   C     C_3   0.702201 0.922398 0.970182 -0.847537
C18   C     C_R   0.499944 0.499794 0.218957 0.925055
C19   C     C_R   0.500724 0.500077 0.781091 0.922460
C20   C     C_1   0.500753 0.499448 0.065488 -0.204387
C21   C     C_1   0.500923 0.499859 0.934628 -0.204899
C22   C     C_R   0.061528 0.384761 0.474180 -0.204948
C23   C     C_R   0.937526 0.621307 0.539551 -0.179261
C24   C     C_R   0.934572 0.387972 0.458052 -0.230626
H1    H     H_    0.107316 0.291527 0.456079 0.162265
H2    H     H_    0.488336 0.814002 0.141354 0.157601
H3    H     H_    0.403350 0.965596 0.105389 0.160160
H4    H     H_    0.210363 0.836405 0.039059 0.243986
H5    H     H_    0.335663 0.786853 0.924272 0.199952
H6    H     H_    0.291918 0.681149 0.077407 0.268580
H7    H     H_    0.199919 0.117590 0.385408 0.109867
H8    H     H_    0.213228 0.025244 0.215538 0.178451
H9    H     H_    0.202859 0.220330 0.057987 0.249685
H10   H     H_    0.071840 0.219786 0.177218 0.204677
H11   H     H_    0.203252 0.331351 0.217694 0.268765
H12   H     H_    0.889831 0.712395 0.569871 0.165692
H13   H     H_    0.557856 0.785004 0.902219 0.158270
H14   H     H_    0.518419 0.956571 0.865934 0.104372
H15   H     H_    0.722147 0.031027 0.958879 0.279929
H16   H     H_    0.677076 0.905497 0.087691 0.184345
H17   H     H_    0.786923 0.862578 0.949779 0.262819
H18   H     H_    0.885848 0.299505 0.416196 0.136926
H19   H     H_    0.116407 0.712596 0.572393 0.158471
H20   H     H_    0.814633 0.247495 0.666523 0.178914
H21   H     H_    0.768909 0.140576 0.508893 0.105888
H22   H     H_    0.843293 0.942254 0.665070 0.289048
H23   H     H_    0.961619 0.065384 0.640249 0.201687
H24   H     H_    0.889832 0.058146 0.816504 0.258150
N1    N     N_R   0.500000 0.857200 0.500000 -0.185758
N2    N     N_R   0.500000 0.142800 0.500000 -0.191344
O1    O     O_R   0.316770 0.614620 0.499990 -0.586280
O2    O     O_3   0.353229 0.853666 0.293586 -0.576279
O3    O     O_3   0.367907 0.144935 0.279913 -0.571469
O4    O     O_3   0.638329 0.857456 0.715640 -0.576229
O5    O     O_R   0.683230 0.385380 0.500010 -0.640391
O6    O     O_R   0.683230 0.614620 0.500010 -0.595271
O7    O     O_R   0.316770 0.385380 0.499990 -0.610804
O8    O     O_R   0.500010 0.614640 0.285340 -0.602713
O9    O     O_R   0.499990 0.385360 0.714660 -0.575049
O10   O     O_R   0.499990 0.614640 0.714660 -0.611517
O11   O     O_R   0.500010 0.385360 0.285340 -0.553849
O12   O     O_3   0.658416 0.136652 0.700002 -0.579582
Zn1   Zn    Zn3+2 0.500000 0.653120 0.500000 0.999815
Zn2   Zn    Zn3+2 0.500000 0.346880 0.500000 1.006224

loop_
_geom_bond_atom_site_label_1
_geom_bond_atom_site_label_2
_ccdc_geom_bond_type
C10   H22   S    
O11   Zn2   S    
C2    C4    A    
C13   H4    S    
C9    H21   S    
C6    C7    A    
N1    Zn1   S    
C1    O7    A    
C19   O10   A    
C5    C8    A    
C4    C22   A    
C9    C10   S    
C2    H19   S    
C15   H10   S    
C11   O2    S    
C11   H3    S    
C16   H13   S    
C1    C4    S    
C6    O2    S    
O5    Zn2   S    
C2    C23   A    
C3    C24   A    
O6    Zn1   S    
O1    Zn1   S    
C18   O11   A    
C1    O1    A    
O9    Zn2   S    
C12   O6    A    
O10   Zn1   S    
N2    Zn2   S    
C22   C24   A    
C15   H11   S    
C19   C21   S    
C18   O8    A    
C5    O12   S    
C18   C20   S    
C14   H8    S    
C6    N1    A    
C10   H24   S    
C16   O4    S    
C5    N2    A    
C17   H17   S    
C7    O3    S    
C8    O4    S    
C9    O12   S    
C12   O5    A    
C13   H6    S    
C11   C13   S    
C14   O3    S    
C24   H18   S    
C20   C21   T    
C22   H1    S    
O7    Zn2   S    
C23   H12   S    
C17   H15   S    
C13   H5    S    
C10   H23   S    
C14   H7    S    
C14   C15   S    
C9    H20   S    
C3    C12   S    
C11   H2    S    
C19   O9    A    
C3    C23   A    
C8    N1    A    
C15   H9    S    
O8    Zn1   S    
C7    N2    A    
C16   H14   S    
C16   C17   S    
C17   H16   S    
