data_mof_unit_19139.cif
_audit_creation_date              2013-03-05T16:08:03-0500
_audit_creation_method            fapswitch 2.2
_symmetry_space_group_name_H-M    P1
_symmetry_Int_Tables_number       1
_space_group_crystal_system       triclinic
_cell_length_a                    23.489325
_cell_length_b                    11.560597
_cell_length_c                    10.757975
_cell_angle_alpha                 90.167448
_cell_angle_beta                  89.906884
_cell_angle_gamma                 90.023609
_cell_volume                      2921.3182066

loop_
_atom_site_label
_atom_site_type_symbol
_atom_site_description
_atom_site_fract_x
_atom_site_fract_y
_atom_site_fract_z
_atom_type_partial_charge
O1    O     O_R   0.500000 0.334450 0.602530 -0.615367
O2    O     O_R   0.500000 0.665550 0.397470 -0.611631
O3    O     O_R   0.500000 0.665550 0.602530 -0.621424
O4    O     O_R   0.500000 0.334450 0.397470 -0.624491
C1    C     C_R   0.499781 0.281132 0.499850 0.886352
C2    C     C_R   0.499804 0.718872 0.500159 0.881983
O5    O     O_R   0.416150 0.500000 0.602560 -0.583645
O6    O     O_R   0.583850 0.500000 0.397440 -0.588170
O7    O     O_R   0.583850 0.500000 0.602560 -0.576409
O8    O     O_R   0.416150 0.500000 0.397440 -0.580554
C3    C     C_R   0.389176 0.500207 0.500127 0.973638
C4    C     C_R   0.611355 0.498374 0.499797 0.973190
Zn1   Zn    Zn3+2 0.500000 0.500000 0.636920 0.996339
Zn2   Zn    Zn3+2 0.500000 0.500000 0.363080 0.991885
C5    C     C_R   0.880665 0.585154 0.529368 0.556539
C6    C     C_R   0.121370 0.402424 0.456004 0.556464
C7    C     C_R   0.883168 0.388014 0.460978 0.595864
C8    C     C_R   0.118787 0.596321 0.534428 0.597016
N1    N     N_R   0.853786 0.484702 0.496474 -0.317652
N2    N     N_R   0.148207 0.500392 0.496777 -0.318132
C9    C     C_R   0.942587 0.389910 0.457448 -0.041548
C10   C     C_R   0.059383 0.596183 0.532248 -0.041175
C11   C     C_R   0.940009 0.590425 0.530138 -0.034106
C12   C     C_R   0.061998 0.397120 0.455040 -0.035847
C13   C     C_R   0.971107 0.491860 0.493490 -0.015230
C14   C     C_R   0.030879 0.495114 0.493395 -0.015273
C15   C     C_R   0.973968 0.292703 0.419488 -0.144640
C16   C     C_R   0.028012 0.693903 0.568614 -0.143414
C17   C     C_R   0.968790 0.691243 0.566956 -0.140522
C18   C     C_R   0.033201 0.296478 0.417679 -0.139369
O9    O     O_2   0.849861 0.679224 0.561396 -0.551241
O10   O     O_2   0.152227 0.310593 0.417362 -0.545030
O11   O     O_2   0.854811 0.290609 0.429773 -0.548002
O12   O     O_2   0.147115 0.690982 0.574390 -0.546566
H1    H     H_    0.952908 0.213591 0.391039 0.194232
H2    H     H_    0.049068 0.772600 0.598383 0.194093
H3    H     H_    0.945701 0.767964 0.595489 0.194266
H4    H     H_    0.056294 0.220151 0.387961 0.195028
C19   C     C_R   0.238195 0.567694 0.411369 0.396723
C20   C     C_R   0.763892 0.482478 0.385265 0.386888
C21   C     C_R   0.238372 0.437665 0.591174 0.342420
C22   C     C_R   0.763586 0.483792 0.612509 0.323692
C23   C     C_R   0.297902 0.572940 0.415716 0.289435
C24   C     C_R   0.704128 0.478423 0.385305 0.285564
C25   C     C_R   0.297560 0.433474 0.586789 0.371518
C26   C     C_R   0.704560 0.497401 0.612291 0.367747
C27   C     C_R   0.327322 0.502173 0.500694 -0.414769
C28   C     C_R   0.674072 0.491630 0.499066 -0.416747
C29   C     C_R   0.208857 0.502449 0.500648 0.018154
C30   C     C_R   0.793110 0.481316 0.498408 0.029331
C31   C     C_1   0.499048 0.161051 0.499622 -0.200105
C32   C     C_1   0.499028 0.838963 0.500415 -0.195664
C33   C     C_1   0.498571 0.059151 0.499831 -0.012471
C34   C     C_1   0.498551 0.940865 0.500243 -0.003887
N3    N     N_1   0.500000 0.500000 0.180630 -0.078821
N4    N     N_1   0.500000 0.500000 0.819370 -0.079035
C35   C     C_1   0.499991 0.499913 0.069706 0.041671
C36   C     C_1   0.499959 0.499872 0.930304 0.043932
O13   O     O_3   0.206829 0.625981 0.322716 -0.722608
H5    H     H_    0.232729 0.661560 0.261043 0.371271
O14   O     O_3   0.795415 0.486782 0.276660 -0.728522
H6    H     H_    0.769886 0.501153 0.205235 0.364587
O15   O     O_3   0.211109 0.375739 0.683528 -0.700395
H7    H     H_    0.170347 0.397037 0.686250 0.339603
O16   O     O_3   0.790875 0.476246 0.726009 -0.719714
H8    H     H_    0.830880 0.452103 0.713374 0.341391
O17   O     O_3   0.327186 0.643349 0.333209 -0.619143
C37   C     C_3   0.347206 0.743801 0.395324 0.106282
H9    H     H_    0.386767 0.772026 0.347491 0.177005
H10   H     H_    0.359035 0.728580 0.494355 0.112332
C38   C     C_3   0.303504 0.841819 0.387466 -0.343170
H11   H     H_    0.293274 0.859053 0.288401 0.238264
H12   H     H_    0.263763 0.815930 0.436140 0.257470
C39   C     C_3   0.326182 0.952445 0.447393 -0.949350
H13   H     H_    0.335414 0.937464 0.547280 0.265030
H14   H     H_    0.293783 0.021984 0.440003 0.277550
H15   H     H_    0.365677 0.981412 0.399786 0.263604
O18   O     O_3   0.675698 0.468107 0.273018 -0.633661
C40   C     C_3   0.659593 0.351279 0.252985 0.121422
H16   H     H_    0.619534 0.352054 0.198155 0.174876
H17   H     H_    0.649837 0.303523 0.340605 0.124360
C41   C     C_3   0.705107 0.286538 0.178082 -0.378094
H18   H     H_    0.715380 0.335869 0.092404 0.244540
H19   H     H_    0.744432 0.278162 0.234515 0.266273
C42   C     C_3   0.684783 0.165745 0.141671 -0.901685
H20   H     H_    0.674761 0.114368 0.226044 0.266461
H21   H     H_    0.718799 0.120689 0.088608 0.280989
H22   H     H_    0.646234 0.171389 0.082297 0.260012
O19   O     O_3   0.326442 0.365882 0.671846 -0.553507
C43   C     C_3   0.336543 0.256104 0.617966 0.167358
H23   H     H_    0.362011 0.264167 0.530925 0.065304
H24   H     H_    0.295721 0.211512 0.595544 0.165968
C44   C     C_3   0.370625 0.181563 0.708370 -0.374274
H25   H     H_    0.383613 0.100291 0.660848 0.175797
H26   H     H_    0.409900 0.228382 0.736541 0.243258
C45   C     C_3   0.336033 0.151173 0.824016 -0.721684
H27   H     H_    0.323686 0.230910 0.875196 0.297973
H28   H     H_    0.362068 0.096281 0.886513 0.226070
H29   H     H_    0.297074 0.102485 0.797663 0.253784
O20   O     O_3   0.676387 0.510011 0.724617 -0.557293
C46   C     C_3   0.680731 0.626793 0.763219 0.197144
H30   H     H_    0.666683 0.686698 0.688111 0.076471
H31   H     H_    0.725342 0.648613 0.789080 0.181472
C47   C     C_3   0.642329 0.648081 0.875843 -0.402719
H32   H     H_    0.646187 0.740139 0.904694 0.178082
H33   H     H_    0.597369 0.632210 0.849289 0.230815
C48   C     C_3   0.657978 0.571065 0.985719 -0.689809
H34   H     H_    0.651398 0.478513 0.961802 0.274858
H35   H     H_    0.630370 0.592725 0.066350 0.248793
H36   H     H_    0.703101 0.584982 0.012710 0.256131

loop_
_geom_bond_atom_site_label_1
_geom_bond_atom_site_label_2
_geom_bond_distance
_ccdc_geom_bond_type
C44   H25   1.110917 S    
C3    C27   1.453096 S    
C4    C28   1.475300 S    
O3    C2    1.263668 A    
C47   H33   1.109540 S    
C43   H23   1.114474 S    
C33   C34   1.367469 S    
O5    C3    1.272036 A    
C46   H30   1.116109 S    
C39   H14   1.110331 S    
O1    C1    1.263403 A    
C11   C17   1.403522 A    
C16   C17   1.391549 A    
C12   C14   1.408884 A    
C45   H29   1.110918 S    
C18   H4    1.083167 S    
C22   C26   1.395448 A    
O7    Zn1   2.003376 S    
C6    O10   1.349925 S    
C26   O20   1.384150 S    
C37   H9    1.110844 S    
C39   H15   1.110981 S    
C45   H28   1.110358 S    
C22   O16   1.382985 S    
C48   H34   1.110529 S    
C25   O19   1.383746 S    
O3    Zn1   1.950349 S    
C6    N2    1.367448 A    
Zn1   N4    1.962791 S    
C5    C11   1.395292 A    
Zn2   N3    1.962793 S    
C9    C15   1.403562 A    
O13   H5    0.989739 S    
C46   H31   1.113283 S    
C10   C16   1.403372 A    
C15   C18   1.392116 A    
C48   H35   1.110277 S    
O2    C2    1.263501 A    
C7    O11   1.349925 S    
C21   C29   1.413118 A    
C47   H32   1.111416 S    
C32   C34   1.178110 T    
C25   C27   1.406791 A    
C26   C28   1.415384 A    
C39   H13   1.110687 S    
C42   H21   1.110286 S    
O17   C37   1.418548 S    
O8    Zn2   2.003378 S    
C38   H12   1.110962 S    
O18   C40   1.418387 S    
C19   C23   1.404602 A    
C15   H1    1.083199 S    
C13   C14   1.404484 A    
C42   H20   1.111050 S    
C7    C9    1.396325 A    
C20   O14   1.383238 S    
C40   H16   1.111410 S    
C31   C33   1.178081 T    
C5    N1    1.367538 A    
N2    C29   1.425476 S    
C38   C39   1.526671 S    
C43   H24   1.114897 S    
C20   C24   1.404571 A    
O6    C4    1.277784 A    
C19   O13   1.383084 S    
C45   H27   1.110732 S    
C8    O12   1.350082 S    
C22   C30   1.409089 A    
C23   O17   1.387559 S    
C19   C29   1.402835 A    
O16   H8    0.989426 S    
C44   C45   1.526601 S    
C41   H19   1.110609 S    
N3    C35   1.193317 T    
C48   H36   1.110933 S    
O1    Zn1   1.948227 S    
C21   O15   1.382548 S    
C43   C44   1.528857 S    
C40   H17   1.117174 S    
C42   H22   1.110990 S    
C9    C13   1.409167 A    
O6    Zn2   2.004557 S    
C8    C10   1.395595 A    
O4    C1    1.263727 A    
C40   C41   1.531935 S    
C5    O9    1.350035 S    
C46   C47   1.528761 S    
C41   C42   1.525859 S    
C24   O18   1.386042 S    
C38   H11   1.111464 S    
N1    C30   1.425882 S    
C35   C36   1.499681 S    
C44   H26   1.111492 S    
C37   C38   1.531905 S    
C20   C30   1.398419 A    
O20   C46   1.415031 S    
C7    N1    1.367057 A    
N4    C36   1.193431 T    
C8    N2    1.366980 A    
C11   C13   1.408740 A    
O4    Zn2   1.950350 S    
O14   H6    0.989919 S    
O2    Zn2   1.948226 S    
O7    C4    1.279646 A    
C12   C18   1.403665 A    
O8    C3    1.272611 A    
O15   H7    0.989097 S    
O5    Zn1   2.004559 S    
C16   H2    1.083207 S    
C6    C12   1.395980 A    
C41   H18   1.111426 S    
C10   C14   1.409113 A    
C17   H3    1.083184 S    
C37   H10   1.115919 S    
C21   C25   1.391887 A    
C1    C31   1.388307 S    
C2    C32   1.388457 S    
O19   C43   1.413652 S    
C23   C27   1.410510 A    
C47   C48   1.527384 S    
C24   C28   1.419763 A    
