data_mof_unit_28479.cif
_audit_creation_date              2013-03-05T16:05:40-0500
_audit_creation_method            fapswitch 2.2
_symmetry_space_group_name_H-M    P1
_symmetry_Int_Tables_number       1
_space_group_crystal_system       triclinic
_cell_length_a                    10.84435
_cell_length_b                    14.975699
_cell_length_c                    15.680711
_cell_angle_alpha                 82.264445
_cell_angle_beta                  91.321383
_cell_angle_gamma                 104.83481
_cell_volume                      2439.11752466

loop_
_atom_site_label
_atom_site_type_symbol
_atom_site_description
_atom_site_fract_x
_atom_site_fract_y
_atom_site_fract_z
_atom_type_partial_charge
O1    O     O_R   0.462770 0.383110 0.605620 -0.612668
O2    O     O_R   0.510160 0.531900 0.639510 -0.593659
C1    C     C_R   0.481841 0.441898 0.661702 0.875972
O3    O     O_R   0.661510 0.425600 0.483070 -0.589548
O4    O     O_R   0.708900 0.574390 0.516960 -0.590443
C2    C     C_R   0.741910 0.499648 0.502033 0.961684
Zn1   Zn    Zn3+2 0.468350 0.400660 0.477370 0.972553
Zn2   Zn    Zn3+2 0.531650 0.599340 0.522630 0.983648
O5    O     O_R   0.489840 0.468100 0.360490 -0.604367
O6    O     O_R   0.537230 0.616890 0.394380 -0.655392
O7    O     O_R   0.291100 0.425610 0.483040 -0.571584
O8    O     O_R   0.338490 0.574400 0.516930 -0.565391
C3    C     C_R   0.528951 0.558071 0.339096 0.872816
C4    C     C_R   0.257543 0.499836 0.497011 0.935526
C5    C     C_3   0.887707 0.395504 0.485165 0.160758
C6    C     C_3   0.032181 0.392154 0.496638 0.109452
H1    H     H_    0.896774 0.562711 0.365684 0.106657
C7    C     C_3   0.948836 0.574843 0.426982 0.143323
C8    C     C_3   0.941478 0.525317 0.588611 0.233346
C9    C     C_3   0.877857 0.497766 0.501563 -0.231092
H2    H     H_    0.923100 0.593915 0.596542 0.200255
C10   C     C_3   0.119240 0.498036 0.496409 -0.236961
C11   C     C_3   0.089137 0.565882 0.413951 0.858732
C12   C     C_3   0.090204 0.540687 0.581187 0.475537
C13   C     C_R   0.490210 0.407326 0.752879 -0.167746
C14   C     C_R   0.540633 0.593215 0.247744 -0.169247
C15   C     C_R   0.598872 0.320597 0.857030 0.542026
C16   C     C_R   0.547748 0.333978 0.775314 -0.346354
C17   C     C_R   0.462800 0.457242 0.816766 0.061937
C18   C     C_R   0.503844 0.438206 0.901865 -0.052861
C19   C     C_R   0.590275 0.381173 0.917258 -0.131277
C20   C     C_R   0.476634 0.485575 0.968397 0.103685
C21   C     C_R   0.558532 0.496457 0.039843 0.004898
C22   C     C_R   0.663704 0.456926 0.042994 -0.323324
C23   C     C_R   0.673550 0.392614 0.987570 0.503069
C24   C     C_R   0.369711 0.522951 0.964912 -0.186941
C25   C     C_R   0.363279 0.590236 0.015264 -0.217450
C26   C     C_R   0.447591 0.606896 0.083054 0.087980
C27   C     C_R   0.533327 0.549240 0.103624 -0.043567
C28   C     C_R   0.438344 0.673805 0.135696 0.094769
C29   C     C_R   0.488193 0.667472 0.218156 -0.357653
C30   C     C_R   0.576784 0.540114 0.189907 0.469052
H3    H     H_    0.469418 0.711919 0.262715 0.173822
H4    H     H_    0.286446 0.624448 0.004567 0.170611
H5    H     H_    0.567299 0.294232 0.726704 0.222960
H6    H     H_    0.740785 0.476927 0.086862 0.222585
H7    H     H_    0.291855 0.502890 0.921342 0.174507
N1    N     N_R   0.573860 0.731700 0.552730 -0.151572
N2    N     N_R   0.426060 0.268290 0.447230 -0.137620
C31   C     C_R   0.677664 0.842291 0.644199 -0.359081
C32   C     C_R   0.652824 0.752266 0.620258 0.677085
C33   C     C_R   0.516897 0.793892 0.508871 -0.100379
C34   C     C_R   0.535311 0.884243 0.532659 -0.046509
C35   C     C_R   0.613932 0.906284 0.604079 -0.097702
C36   C     C_R   0.479379 0.952972 0.488093 -0.023999
C37   C     C_R   0.495741 0.040256 0.519344 -0.095525
C38   C     C_R   0.552805 0.051047 0.601222 0.384694
C39   C     C_R   0.623492 0.989940 0.637648 0.451310
C40   C     C_R   0.407575 0.936717 0.413389 -0.293978
C41   C     C_R   0.357331 0.004619 0.366639 0.576385
C42   C     C_R   0.376046 0.092472 0.395046 -0.099358
C43   C     C_R   0.450437 0.111998 0.469531 -0.109467
C44   C     C_R   0.324524 0.162311 0.349608 0.412953
C45   C     C_R   0.345635 0.248677 0.380466 0.114322
C46   C     C_R   0.481640 0.204463 0.489128 -0.058517
H8    H     H_    0.552208 0.228632 0.535694 0.220243
H9    H     H_    0.743798 0.861985 0.695191 0.197050
H10   H     H_    0.455063 0.768955 0.457948 0.176191
H11   H     H_    0.387653 0.871134 0.388786 0.148757
N3    N     N_3   0.838790 0.379309 0.397732 -0.432206
H12   H     H_    0.889860 0.423226 0.346641 0.218479
H13   H     H_    0.830254 0.310548 0.387036 0.167652
O9    O     O_3   0.146736 0.639200 0.567432 -0.525293
C47   C     C_3   0.167757 0.682642 0.643092 -0.196883
H14   H     H_    0.255424 0.670766 0.675563 0.167871
H15   H     H_    0.085233 0.659324 0.688245 0.114766
H16   H     H_    0.183702 0.758894 0.624530 0.179684
O10   O     O_3   0.951609 0.665462 0.447685 -0.564187
C48   C     C_3   0.877268 0.711984 0.391091 -0.208003
H17   H     H_    0.783310 0.666271 0.377162 0.161039
H18   H     H_    0.928018 0.741806 0.329269 0.131254
H19   H     H_    0.859505 0.770312 0.421517 0.187997
O11   O     O_3   0.179338 0.655458 0.409930 -0.556250
C49   C     C_3   0.170942 0.718952 0.335683 -0.165794
H20   H     H_    0.096367 0.691134 0.289440 0.158423
H21   H     H_    0.264190 0.740185 0.301486 0.118589
H22   H     H_    0.153249 0.782752 0.355989 0.215146
O12   O     O_3   0.779208 0.356032 0.990489 -0.558957
C50   C     C_3   0.786644 0.303784 0.071389 -0.285610
H23   H     H_    0.692083 0.258287 0.094738 0.122556
H24   H     H_    0.830931 0.350360 0.119231 0.159980
H25   H     H_    0.849740 0.257301 0.064759 0.197957
O13   O     O_3   0.654674 0.482137 0.220082 -0.627643
C51   C     C_3   0.588124 0.386768 0.227417 -0.308622
H26   H     H_    0.650963 0.347307 0.204406 0.156273
H27   H     H_    0.498491 0.372017 0.190019 0.129908
H28   H     H_    0.569294 0.357968 0.295879 0.219354
O14   O     O_3   0.670801 0.256311 0.872737 -0.551595
C52   C     C_3   0.591027 0.171944 0.912428 -0.243617
H29   H     H_    0.512380 0.143082 0.869160 0.150673
H30   H     H_    0.551424 0.180737 0.974772 0.123397
H31   H     H_    0.648553 0.120287 0.926272 0.195413
N4    N     N_3   0.411704 0.536681 0.793633 -0.477141
H32   H     H_    0.335629 0.520406 0.752177 0.192340
H33   H     H_    0.482425 0.593594 0.765892 0.235848
N5    N     N_3   0.802222 0.319315 0.543316 -0.405366
H34   H     H_    0.811091 0.254285 0.531026 0.146114
H35   H     H_    0.810228 0.321264 0.608980 0.248816
N6    N     N_3   0.367710 0.741620 0.108198 -0.478570
H36   H     H_    0.364772 0.782584 0.156609 0.165520
H37   H     H_    0.417943 0.786581 0.056502 0.186853
O15   O     O_3   0.686216 0.005225 0.714369 -0.590136
C53   C     C_3   0.801154 0.074764 0.696501 -0.288182
H38   H     H_    0.782781 0.143639 0.673525 0.192672
H39   H     H_    0.861585 0.055766 0.648960 0.129424
H40   H     H_    0.855918 0.081705 0.756927 0.194136
N7    N     N_3   0.284970 0.317548 0.340942 -0.380992
H41   H     H_    0.332171 0.348293 0.283196 0.156628
H42   H     H_    0.192160 0.284206 0.324928 0.192554
O16   O     O_3   0.284535 0.982845 0.294861 -0.558998
C54   C     C_3   0.363895 0.972333 0.228677 -0.354171
H43   H     H_    0.448802 0.032894 0.216564 0.148204
H44   H     H_    0.308525 0.968083 0.168340 0.191725
H45   H     H_    0.394806 0.906846 0.243177 0.137634
O17   O     O_3   0.707005 0.683186 0.661366 -0.587033
C55   C     C_3   0.737134 0.693567 0.748493 -0.424556
H46   H     H_    0.664519 0.717592 0.781987 0.169417
H47   H     H_    0.833537 0.741192 0.752735 0.179150
H48   H     H_    0.738581 0.625052 0.784466 0.193002
N8    N     N_3   0.052438 0.335786 0.578499 -0.450319
H49   H     H_    0.017529 0.264322 0.575992 0.171119
H50   H     H_    0.008223 0.349628 0.631356 0.221869
O18   O     O_3   0.535242 0.117349 0.649947 -0.614676
C56   C     C_3   0.413754 0.085105 0.689779 -0.290514
H51   H     H_    0.406784 0.019539 0.734493 0.167555
H52   H     H_    0.336142 0.074711 0.641551 0.162475
H53   H     H_    0.398994 0.138561 0.728225 0.179491
O19   O     O_3   0.243706 0.143523 0.280803 -0.557375
C57   C     C_3   0.309125 0.184299 0.202485 -0.294535
H54   H     H_    0.414298 0.192520 0.205352 0.113408
H55   H     H_    0.288593 0.252431 0.180432 0.142337
H56   H     H_    0.271860 0.138733 0.152561 0.201584
N9    N     N_3   0.071283 0.345281 0.428577 -0.393316
H57   H     H_    0.055765 0.371585 0.366020 0.217418
H58   H     H_    0.020779 0.275064 0.435326 0.161171
O20   O     O_3   0.090313 0.527015 0.335640 -0.725180
C58   C     C_3   0.211563 0.540145 0.297611 -0.308484
H59   H     H_    0.292367 0.570027 0.337776 0.186830
H60   H     H_    0.216496 0.586398 0.235722 0.200615
H61   H     H_    0.222401 0.472793 0.281982 0.183668
O21   O     O_3   0.888798 0.456603 0.658481 -0.671113
C59   C     C_3   0.836352 0.493508 0.722580 -0.339974
H62   H     H_    0.747736 0.511657 0.698874 0.225339
H63   H     H_    0.905394 0.554391 0.744363 0.152671
H64   H     H_    0.812445 0.439631 0.779432 0.232598
N10   N     N_3   0.146672 0.500470 0.659922 -0.484674
H65   H     H_    0.193729 0.449265 0.653015 0.163652
H66   H     H_    0.090672 0.484765 0.715787 0.219801

loop_
_geom_bond_atom_site_label_1
_geom_bond_atom_site_label_2
_geom_bond_distance
_ccdc_geom_bond_type
C26   C28   1.404770 A    
C36   C37   1.424740 A    
C15   O14   1.381220 S    
O13   C51   1.416218 S    
C36   C40   1.405488 A    
C30   O13   1.392008 S    
O9    C47   1.414972 S    
C8    C9    1.572209 S    
C49   H22   1.108908 S    
C56   H53   1.108997 S    
C34   C35   1.414729 A    
O16   C54   1.413168 S    
C13   C16   1.398738 A    
Zn1   O7    2.055922 S    
C31   C35   1.395947 A    
C47   H15   1.107600 S    
C39   O15   1.385295 S    
C20   C24   1.407806 A    
C5    N5    1.486607 S    
C24   C25   1.377080 A    
C8    H2    1.118441 S    
C49   H21   1.107103 S    
O20   C58   1.412574 S    
N6    H37   1.045403 S    
O4    C2    1.309714 A    
C57   H56   1.108975 S    
C12   O9    1.433931 S    
N5    H34   1.046014 S    
N9    H57   1.033462 S    
N9    H58   1.046289 S    
C37   C38   1.423187 A    
C17   N4    1.437356 S    
C24   H7    1.081035 S    
H1    C7    1.115843 S    
C22   C23   1.405916 A    
C11   O11   1.438215 S    
C42   C44   1.412071 A    
O5    C3    1.303881 A    
C54   H45   1.109350 S    
N1    C32   1.363926 A    
C58   H59   1.102004 S    
C47   H16   1.109208 S    
C8    O21   1.417733 S    
O21   C59   1.405715 S    
C41   O16   1.386488 S    
N3    H12   1.035952 S    
C22   H6    1.078135 S    
C50   H24   1.110269 S    
C17   C18   1.412524 A    
C6    N8    1.482844 S    
C31   H9    1.081387 S    
C33   H10   1.074272 S    
C7    O10   1.430105 S    
C53   H40   1.109162 S    
C10   C12   1.620262 S    
O17   C55   1.417062 S    
C40   C41   1.390306 A    
N2    C45   1.361047 A    
C29   H3    1.083444 S    
C38   O18   1.383361 S    
C42   C43   1.424144 A    
O3    Zn1   2.033461 S    
O15   C53   1.410495 S    
C31   C32   1.405968 A    
C27   C30   1.423061 A    
C34   C36   1.422024 A    
C13   C17   1.407063 A    
C5    C9    1.616745 S    
C11   O20   1.429621 S    
C16   H5    1.083732 S    
C47   H14   1.111112 S    
C15   C19   1.414776 A    
C7    C11   1.581424 S    
C32   O17   1.394720 S    
C1    C13   1.462594 S    
C6    N9    1.478687 S    
C49   H20   1.111370 S    
Zn1   N2    2.034704 S    
O3    C2    1.288427 A    
C48   H18   1.106475 S    
O10   C48   1.418116 S    
C56   H52   1.113450 S    
C51   H28   1.104791 S    
C45   N7    1.427317 S    
C48   H17   1.107851 S    
C6    C10   1.624099 S    
C41   C42   1.409764 A    
O1    C1    1.303082 A    
N8    H50   1.036972 S    
Zn2   N1    2.034361 S    
C25   C26   1.392091 A    
C48   H19   1.109205 S    
C23   O12   1.388278 S    
N8    H49   1.045660 S    
O11   C49   1.417499 S    
C59   H64   1.105842 S    
C18   C19   1.417848 A    
Zn2   O8    2.033462 S    
C58   H61   1.104452 S    
C21   C22   1.410299 A    
N4    H33   1.041489 S    
C21   C27   1.426845 A    
O12   C50   1.410098 S    
C50   H25   1.109154 S    
C51   H27   1.111815 S    
C54   H43   1.113778 S    
C56   H51   1.113798 S    
N2    C46   1.347689 A    
C40   H11   1.072214 S    
C28   C29   1.390748 A    
C52   H30   1.113755 S    
C59   H63   1.109522 S    
C46   H8    1.073940 S    
O18   C56   1.410677 S    
C44   O19   1.386781 S    
C19   C23   1.409323 A    
C3    C14   1.454741 S    
C15   C16   1.394420 A    
C33   C34   1.415590 A    
C14   C30   1.406692 A    
C53   H38   1.111433 S    
C35   C39   1.402092 A    
Zn1   O5    1.958117 S    
C5    N3    1.486601 S    
N10   H65   1.041848 S    
C55   H47   1.110756 S    
C43   C46   1.412887 A    
C58   H60   1.107656 S    
O1    Zn1   1.993051 S    
O2    Zn2   1.958117 S    
O8    C4    1.301669 A    
O6    C3    1.302675 A    
O4    Zn2   2.055921 S    
C57   H54   1.115897 S    
C28   N6    1.438500 S    
C2    C9    1.481929 S    
C55   H48   1.106010 S    
C52   H29   1.112661 S    
C20   C21   1.414068 A    
C4    C10   1.492964 S    
C25   H4    1.083449 S    
N7    H42   1.044078 S    
O2    C1    1.303378 A    
C37   C43   1.425648 A    
N6    H36   1.044076 S    
C18   C20   1.413971 A    
C57   H55   1.108156 S    
C38   C39   1.396288 A    
C26   C27   1.426978 A    
N5    H35   1.035012 S    
C55   H46   1.113738 S    
N10   H66   1.042802 S    
O7    C4    1.300929 A    
C8    C12   1.574525 S    
C7    C9    1.586096 S    
C51   H26   1.103967 S    
C54   H44   1.109136 S    
O19   C57   1.414505 S    
C44   C45   1.403971 A    
C12   N10   1.488563 S    
N1    C33   1.350773 A    
C52   H31   1.109242 S    
C59   H62   1.107073 S    
Zn2   O6    1.993051 S    
O14   C52   1.409084 S    
N4    H32   1.038038 S    
C10   C11   1.614772 S    
N3    H13   1.045969 S    
C50   H23   1.114550 S    
N7    H41   1.040383 S    
C5    C6    1.585670 S    
C14   C29   1.395747 A    
C53   H39   1.114118 S    
