data_mof_unit_60919.cif
_audit_creation_date              2012-12-10T19:31:57-0500
_audit_creation_method            fapswitch 2.2
_symmetry_space_group_name_H-M    P1
_symmetry_Int_Tables_number       1
_space_group_crystal_system       orthorhombic
_cell_length_a                    25.082414
_cell_length_b                    24.987257
_cell_length_c                    16.458329
_cell_angle_alpha                 90.0
_cell_angle_beta                  90.0
_cell_angle_gamma                 90.0
_cell_volume                      10315.1050464

loop_
_atom_site_label
_atom_site_type_symbol
_atom_type_description
_atom_site_fract_x
_atom_site_fract_y
_atom_site_fract_z
_atom_type_partial_charge
C1    C     C_R   0.072147 0.427709 0.500009 0.808942
C2    C     C_R   0.927853 0.572291 0.500009 0.808942
C3    C     C_R   0.927853 0.427709 0.499991 0.808941
C4    C     C_R   0.072147 0.572291 0.499991 0.808941
C5    C     C_R   0.572147 0.927709 0.500009 0.808941
C6    C     C_R   0.427853 0.072291 0.500009 0.808941
C7    C     C_R   0.427853 0.927709 0.499991 0.808941
C8    C     C_R   0.572147 0.072291 0.499991 0.808941
C9    C     C_R   0.998676 0.547222 0.742766 0.043183
C10   C     C_R   0.998678 0.452777 0.257234 0.043183
C11   C     C_R   0.001324 0.452777 0.742766 0.043183
C12   C     C_R   0.001322 0.547222 0.257234 0.043183
C13   C     C_R   0.498677 0.047222 0.742766 0.043183
C14   C     C_R   0.498677 0.952777 0.257234 0.043182
C15   C     C_R   0.501323 0.952777 0.742766 0.043183
C16   C     C_R   0.501323 0.047223 0.257234 0.043183
C17   C     C_R   1.000000 0.500000 0.872979 0.100405
C18   C     C_R   1.000000 0.500000 0.127021 0.100405
C19   C     C_R   0.500000 1.000000 0.872979 0.100405
C20   C     C_R   0.500000 0.000000 0.127021 0.100405
C21   C     C_1   1.000000 0.500000 0.962766 0.041790
C22   C     C_1   1.000000 0.500000 0.037234 0.041790
C23   C     C_1   0.500000 1.000000 0.962766 0.041790
C24   C     C_1   0.500000 1.000000 0.037234 0.041790
C25   C     C_R   0.145550 0.701017 0.543102 -0.175289
C26   C     C_R   0.799346 0.354634 0.456470 -0.176487
C27   C     C_R   0.854450 0.298983 0.543103 -0.175289
C28   C     C_R   0.200654 0.645366 0.456470 -0.176488
C29   C     C_R   0.854450 0.701017 0.456898 -0.175289
C30   C     C_R   0.200654 0.354634 0.543529 -0.176488
C31   C     C_R   0.145550 0.298983 0.456898 -0.175289
C32   C     C_R   0.799346 0.645366 0.543529 -0.176488
C33   C     C_R   0.645550 0.201017 0.543102 -0.175289
C34   C     C_R   0.299346 0.854634 0.456470 -0.176488
C35   C     C_R   0.354450 0.798983 0.543102 -0.175289
C36   C     C_R   0.700654 0.145366 0.456470 -0.176488
C37   C     C_R   0.354450 0.201017 0.456898 -0.175289
C38   C     C_R   0.700654 0.854634 0.543530 -0.176487
C39   C     C_R   0.645550 0.798983 0.456897 -0.175289
C40   C     C_R   0.299346 0.145366 0.543530 -0.176487
C41   C     C_R   0.105851 0.661830 0.543505 -0.028410
C42   C     C_R   0.838611 0.394261 0.456139 -0.037110
C43   C     C_R   0.894149 0.338170 0.543506 -0.028410
C44   C     C_R   0.161389 0.605739 0.456139 -0.037110
C45   C     C_R   0.894149 0.661831 0.456494 -0.028410
C46   C     C_R   0.161389 0.394261 0.543861 -0.037110
C47   C     C_R   0.105851 0.338169 0.456494 -0.028410
C48   C     C_R   0.838611 0.605739 0.543861 -0.037110
C49   C     C_R   0.605851 0.161831 0.543505 -0.028410
C50   C     C_R   0.338611 0.894261 0.456139 -0.037110
C51   C     C_R   0.394149 0.838169 0.543505 -0.028410
C52   C     C_R   0.661389 0.105739 0.456139 -0.037111
C53   C     C_R   0.394149 0.161830 0.456494 -0.028410
C54   C     C_R   0.661389 0.894261 0.543861 -0.037110
C55   C     C_R   0.605851 0.838169 0.456494 -0.028410
C56   C     C_R   0.338611 0.105739 0.543861 -0.037110
C57   C     C_R   0.113582 0.613724 0.499927 -0.109935
C58   C     C_R   0.886418 0.386276 0.499927 -0.109935
C59   C     C_R   0.886418 0.613724 0.500073 -0.109935
C60   C     C_R   0.113581 0.386276 0.500073 -0.109935
C61   C     C_R   0.613581 0.113724 0.499927 -0.109935
C62   C     C_R   0.386418 0.886276 0.499927 -0.109935
C63   C     C_R   0.386418 0.113724 0.500073 -0.109935
C64   C     C_R   0.613582 0.886276 0.500073 -0.109935
C65   C     C_R   0.192687 0.692726 0.499798 0.105845
C66   C     C_R   0.807313 0.307274 0.499798 0.105845
C67   C     C_R   0.807313 0.692726 0.500202 0.105845
C68   C     C_R   0.192687 0.307274 0.500202 0.105845
C69   C     C_R   0.692687 0.192726 0.499798 0.105845
C70   C     C_R   0.307313 0.807274 0.499798 0.105845
C71   C     C_R   0.307313 0.192726 0.500202 0.105845
C72   C     C_R   0.692687 0.807274 0.500202 0.105845
C73   C     C_1   0.233061 0.733066 0.499751 -0.033050
C74   C     C_1   0.766939 0.266933 0.499751 -0.033050
C75   C     C_1   0.766939 0.733066 0.500249 -0.033050
C76   C     C_1   0.233061 0.266933 0.500249 -0.033050
C77   C     C_1   0.733061 0.233066 0.499751 -0.033050
C78   C     C_1   0.266939 0.766934 0.499751 -0.033050
C79   C     C_1   0.266939 0.233066 0.500249 -0.033050
C80   C     C_1   0.733061 0.766934 0.500249 -0.033050
C81   C     C_R   0.998788 0.548487 0.828888 0.039350
C82   C     C_R   0.998789 0.451513 0.171112 0.039350
C83   C     C_R   0.001212 0.451513 0.828888 0.039350
C84   C     C_R   0.001211 0.548487 0.171112 0.039351
C85   C     C_R   0.498788 0.048487 0.828888 0.039350
C86   C     C_R   0.498788 0.951513 0.171112 0.039351
C87   C     C_R   0.501212 0.951513 0.828888 0.039351
C88   C     C_R   0.501212 0.048487 0.171112 0.039351
Cu1   Cu    Cu3+1 1.000000 0.500000 0.580420 0.982344
Cu2   Cu    Cu3+1 1.000000 0.500000 0.419580 0.982344
Cu3   Cu    Cu3+1 0.500000 1.000000 0.580420 0.982344
Cu4   Cu    Cu3+1 0.500000 0.000000 0.419580 0.982344
H1    H     H_    0.139659 0.738133 0.576121 0.144491
H2    H     H_    0.762462 0.360724 0.423290 0.144633
H3    H     H_    0.860341 0.261867 0.576121 0.144491
H4    H     H_    0.237538 0.639276 0.423290 0.144634
H5    H     H_    0.860341 0.738133 0.423880 0.144491
H6    H     H_    0.237538 0.360724 0.576709 0.144634
H7    H     H_    0.139659 0.261867 0.423880 0.144491
H8    H     H_    0.762462 0.639276 0.576709 0.144634
H9    H     H_    0.639659 0.238133 0.576120 0.144491
H10   H     H_    0.262462 0.860724 0.423291 0.144634
H11   H     H_    0.360341 0.761867 0.576120 0.144491
H12   H     H_    0.737538 0.139276 0.423291 0.144634
H13   H     H_    0.360341 0.238133 0.423879 0.144491
H14   H     H_    0.737538 0.860724 0.576710 0.144633
H15   H     H_    0.639659 0.761867 0.423879 0.144491
H16   H     H_    0.262462 0.139276 0.576710 0.144633
H17   H     H_    0.997638 0.584239 0.708781 0.150147
H18   H     H_    0.997641 0.415760 0.291219 0.150147
H19   H     H_    0.002362 0.415760 0.708781 0.150147
H20   H     H_    0.002359 0.584240 0.291219 0.150147
H21   H     H_    0.497639 0.084239 0.708781 0.150147
H22   H     H_    0.497639 0.915760 0.291219 0.150147
H23   H     H_    0.502361 0.915760 0.708781 0.150147
H24   H     H_    0.502361 0.084239 0.291219 0.150147
N1    N     N_R   1.000000 0.500000 0.701220 -0.195702
N2    N     N_R   1.000000 0.500000 0.298780 -0.195703
N3    N     N_R   0.500000 0.000000 0.701220 -0.195703
N4    N     N_R   0.500000 1.000000 0.298780 -0.195703
O1    O     O_R   0.054370 0.445630 0.567930 -0.574940
O2    O     O_R   0.945630 0.554370 0.432070 -0.572921
O3    O     O_R   0.945630 0.554370 0.567930 -0.574940
O4    O     O_R   0.054370 0.445630 0.432070 -0.572921
O5    O     O_R   0.945630 0.445630 0.432070 -0.574939
O6    O     O_R   0.054370 0.554370 0.567930 -0.572920
O7    O     O_R   0.054370 0.554370 0.432070 -0.574939
O8    O     O_R   0.945630 0.445630 0.567930 -0.572920
O9    O     O_R   0.554370 0.945630 0.567930 -0.574939
O10   O     O_R   0.445630 0.054370 0.432070 -0.572920
O11   O     O_R   0.445630 0.054370 0.567930 -0.574939
O12   O     O_R   0.554370 0.945630 0.432070 -0.572920
O13   O     O_R   0.445630 0.945630 0.432070 -0.574939
O14   O     O_R   0.554370 0.054370 0.567930 -0.572920
O15   O     O_R   0.554370 0.054370 0.432070 -0.574939
O16   O     O_R   0.445630 0.945630 0.567930 -0.572920
C89   C     C_1   0.056779 0.672700 0.586476 0.238538
N5    N     N_1   0.017433 0.681461 0.620711 -0.299393
C90   C     C_1   0.828324 0.443425 0.412600 0.254074
N6    N     N_1   0.820149 0.482845 0.377847 -0.269575
C91   C     C_1   0.943221 0.327300 0.586476 0.238538
N7    N     N_1   0.982567 0.318539 0.620711 -0.299393
C92   C     C_1   0.171676 0.556575 0.412600 0.254074
N8    N     N_1   0.179851 0.517154 0.377848 -0.269575
C93   C     C_1   0.943221 0.672700 0.413524 0.238536
N9    N     N_1   0.982567 0.681461 0.379289 -0.299393
C94   C     C_1   0.171676 0.443425 0.587400 0.254074
N10   N     N_1   0.179852 0.482846 0.622152 -0.269575
C95   C     C_1   0.056779 0.327300 0.413524 0.238536
N11   N     N_1   0.017433 0.318539 0.379290 -0.299393
C96   C     C_1   0.828324 0.556575 0.587400 0.254073
N12   N     N_1   0.820148 0.517154 0.622152 -0.269575
C97   C     C_1   0.556779 0.172700 0.586476 0.238537
N13   N     N_1   0.517433 0.181461 0.620711 -0.299393
C98   C     C_1   0.328324 0.943425 0.412600 0.254073
N14   N     N_1   0.320148 0.982846 0.377848 -0.269575
C99   C     C_1   0.443221 0.827300 0.586476 0.238537
N15   N     N_1   0.482567 0.818538 0.620711 -0.299393
C100  C     C_1   0.671676 0.056575 0.412600 0.254073
N16   N     N_1   0.679852 0.017154 0.377848 -0.269575
C101  C     C_1   0.443221 0.172699 0.413524 0.238537
N17   N     N_1   0.482567 0.181461 0.379289 -0.299393
C102  C     C_1   0.671675 0.943425 0.587400 0.254074
N18   N     N_1   0.679851 0.982846 0.622153 -0.269575
C103  C     C_1   0.556779 0.827300 0.413524 0.238537
N19   N     N_1   0.517433 0.818539 0.379289 -0.299393
C104  C     C_1   0.328324 0.056575 0.587400 0.254074
N20   N     N_1   0.320148 0.017154 0.622152 -0.269575
N21   N     N_3   0.997271 0.598651 0.871501 -0.575060
H25   H     H_    0.994085 0.630396 0.830389 0.224559
H26   H     H_    0.033865 0.603275 0.901097 0.233991
N22   N     N_3   0.997274 0.401349 0.128499 -0.575060
H27   H     H_    0.994090 0.369604 0.169611 0.224559
H28   H     H_    0.033869 0.396727 0.098902 0.233991
N23   N     N_3   0.002729 0.401349 0.871501 -0.575060
H29   H     H_    0.005915 0.369604 0.830389 0.224559
H30   H     H_    0.966135 0.396725 0.901097 0.233991
N24   N     N_3   0.002725 0.598651 0.128499 -0.575060
H31   H     H_    0.005910 0.630396 0.169611 0.224559
H32   H     H_    0.966131 0.603273 0.098902 0.233991
N25   N     N_3   0.497272 0.098651 0.871501 -0.575060
H33   H     H_    0.494087 0.130396 0.830388 0.224559
H34   H     H_    0.533866 0.103274 0.901097 0.233990
N26   N     N_3   0.497272 0.901349 0.128499 -0.575060
H35   H     H_    0.494086 0.869604 0.169611 0.224559
H36   H     H_    0.533866 0.896726 0.098902 0.233991
N27   N     N_3   0.502728 0.901349 0.871501 -0.575061
H37   H     H_    0.505913 0.869604 0.830389 0.224559
H38   H     H_    0.466133 0.896726 0.901097 0.233991
N28   N     N_3   0.502728 0.098651 0.128499 -0.575060
H39   H     H_    0.505914 0.130396 0.169611 0.224559
H40   H     H_    0.466134 0.103274 0.098902 0.233991

loop_
_geom_bond_atom_site_label_1
_geom_bond_atom_site_label_2
_ccdc_geom_bond_type
C28   H4    S    
C26   H2    S    
C25   H1    S    
C99   N15   T    
C40   C71   A    
C83   N23   S    
C70   C78   S    
C9    N1    A    
N21   H25   S    
C27   H3    S    
C102  N18   T    
C76   C79   T    
C6    O10   A    
C42   C58   A    
C71   C79   S    
C101  N17   T    
C13   H21   S    
N23   H30   S    
N25   H33   S    
C36   C69   A    
Cu3   N3    S    
C39   H15   S    
C103  N19   T    
C45   C93   S    
Cu1   O1    S    
C43   C58   A    
C33   H9    S    
Cu2   N2    S    
C49   C97   S    
Cu4   O12   S    
C7    O13   A    
C35   H11   S    
C52   C61   A    
C16   N4    A    
N27   H38   S    
Cu3   O11   S    
C33   C49   A    
C92   N8    T    
C66   C74   S    
Cu4   O13   S    
C65   C73   S    
N26   H35   S    
C12   C84   A    
C94   N10   T    
C47   C60   A    
C29   C67   A    
C69   C77   S    
C5    O12   A    
C39   C55   A    
Cu3   O16   S    
C100  N16   T    
C35   C70   A    
C15   N3    A    
C40   C56   A    
C74   C77   T    
C20   C86   A    
C4    C57   S    
C28   C44   A    
Cu2   O7    S    
C81   N21   S    
C54   C102  S    
C75   C80   T    
C44   C57   A    
C41   C89   S    
C36   C52   A    
C33   C69   A    
C8    C61   S    
C40   H16   S    
C37   C53   A    
C52   C100  S    
N25   H34   S    
C31   C47   A    
C21   C22   T    
C8    O15   A    
C86   N26   S    
Cu2   O2    S    
C51   C62   A    
Cu3   Cu4   S    
C16   H24   S    
C13   N3    A    
N22   H28   S    
C93   N9    T    
C82   N22   S    
Cu1   O6    S    
C2    O2    A    
C9    H17   S    
C31   C68   A    
C38   C72   A    
C34   C50   A    
C49   C61   A    
C11   H19   S    
C26   C66   A    
C20   C24   S    
C25   C65   A    
C14   C86   A    
C1    C60   S    
C25   C41   A    
C104  N20   T    
C47   C95   S    
C3    O8    A    
C87   N27   S    
Cu1   O3    S    
C11   C83   A    
C14   H22   S    
C73   C78   T    
C8    O14   A    
C91   N7    T    
C10   C82   A    
C17   C21   S    
C32   H8    S    
C5    C64   S    
C29   C45   A    
C17   C83   A    
C6    C63   S    
C38   H14   S    
C88   N28   S    
C7    C62   S    
C37   H13   S    
C10   N2    A    
C18   C84   A    
C46   C94   S    
C38   C54   A    
C50   C98   S    
C96   N12   T    
C55   C64   A    
C56   C63   A    
C34   H10   S    
C84   N24   S    
C39   C72   A    
C32   C67   A    
C12   N2    A    
Cu1   N1    S    
C31   H7    S    
C37   C71   A    
C35   C51   A    
C50   C62   A    
C15   H23   S    
C43   C91   S    
Cu4   O15   S    
N28   H39   S    
C55   C103  S    
C11   N1    A    
C12   H20   S    
N22   H27   S    
C26   C42   A    
C48   C59   A    
C15   C87   A    
N21   H26   S    
C34   C70   A    
C45   C59   A    
N28   H40   S    
C4    O7    A    
C46   C60   A    
C42   C90   S    
C2    C59   S    
Cu2   O4    S    
C30   C46   A    
C6    O11   A    
C19   C85   A    
N24   H32   S    
C90   N6    T    
C3    O5    A    
Cu3   O9    S    
C85   N25   S    
C4    O6    A    
C68   C76   S    
C89   N5    T    
C30   H6    S    
C14   N4    A    
C29   H5    S    
C36   H12   S    
C18   C22   S    
C28   C65   A    
Cu4   N4    S    
C19   C87   A    
C41   C57   A    
N27   H37   S    
C72   C80   S    
N23   H29   S    
C95   N11   T    
C53   C63   A    
C53   C101  S    
C32   C48   A    
Cu3   O14   S    
C54   C64   A    
C44   C92   S    
C16   C88   A    
C20   C88   A    
C56   C104  S    
C5    O9    A    
C18   C82   A    
Cu2   O5    S    
N26   H36   S    
C10   H18   S    
C17   C81   A    
C30   C68   A    
C1    O4    A    
C1    O1    A    
C23   C24   T    
C3    C58   S    
C27   C43   A    
C19   C23   S    
C7    O16   A    
C67   C75   S    
C48   C96   S    
C13   C85   A    
C98   N14   T    
C27   C66   A    
Cu4   O10   S    
C97   N13   T    
Cu1   Cu2   S    
C2    O3    A    
C51   C99   S    
C9    C81   A    
N24   H31   S    
Cu1   O8    S    
