data_mof_unit_10984.cif
_audit_creation_date              2012-12-10T16:57:47-0500
_audit_creation_method            fapswitch 2.2
_symmetry_space_group_name_H-M    P1
_symmetry_Int_Tables_number       1
_space_group_crystal_system       triclinic
_cell_length_a                    7.82997
_cell_length_b                    8.674316
_cell_length_c                    19.169525
_cell_angle_alpha                 91.022164
_cell_angle_beta                  86.466384
_cell_angle_gamma                 93.223058
_cell_volume                      1297.32127504

loop_
_atom_site_label
_atom_site_type_symbol
_atom_type_description
_atom_site_fract_x
_atom_site_fract_y
_atom_site_fract_z
_atom_type_partial_charge
Br1   Br    Br    0.374588 0.804093 0.708911 -0.376596
Br2   Br    Br    0.624265 0.189830 0.296083 -0.373854
Br3   Br    Br    0.631886 0.187966 0.685750 -0.379787
Br4   Br    Br    0.366017 0.806123 0.309447 -0.377957
Br5   Br    Br    0.793386 0.023096 0.533037 -0.249303
Br6   Br    Br    0.209929 0.976598 0.463185 -0.250804
Br7   Br    Br    0.039265 0.331651 0.409015 -0.213631
Br8   Br    Br    0.960750 0.668846 0.590806 -0.213535
C1    C     C_R   0.544503 0.793843 0.497535 0.925033
C2    C     C_R   0.539285 0.366314 0.180479 -0.164392
C3    C     C_R   0.498294 0.481936 0.854107 -0.065152
C4    C     C_R   0.479695 0.491905 0.146237 -0.064960
C5    C     C_R   0.557076 0.356081 0.813763 -0.061467
C6    C     C_R   0.425591 0.622555 0.184485 -0.061447
C7    C     C_R   0.562023 0.363470 0.740903 0.200573
C8    C     C_R   0.430342 0.624629 0.257244 0.201173
C9    C     C_R   0.507454 0.495586 0.709065 -0.165833
C10   C     C_R   0.489919 0.497243 0.291017 -0.166093
C11   C     C_R   0.481548 0.485520 0.070431 0.318866
C12   C     C_R   0.455592 0.206094 0.501949 0.926320
C13   C     C_R   0.491205 0.480419 0.929966 0.318047
C14   C     C_1   0.603230 0.216118 0.846384 0.318852
C15   C     C_1   0.374455 0.757929 0.149629 0.314105
C16   C     C_2   0.567790 0.955539 0.503251 0.060288
C17   C     C_2   0.433140 0.044443 0.495120 0.057675
C18   C     C_R   0.502735 0.499958 0.633881 0.939154
C19   C     C_R   0.497088 0.499552 0.366145 0.938007
C20   C     C_R   0.448121 0.620013 0.749656 0.252447
C21   C     C_R   0.544880 0.368175 0.252527 0.252906
C22   C     C_R   0.444101 0.612468 0.821822 -0.166225
H1    H     H_    0.399853 0.709666 0.852880 0.192231
H2    H     H_    0.580692 0.265809 0.151058 0.192584
N1    N     N_R   0.620601 0.424220 0.963848 -0.150088
N2    N     N_R   0.351616 0.540840 0.036556 -0.149642
N3    N     N_R   0.615628 0.426290 0.033107 -0.147802
N4    N     N_R   0.356615 0.538830 0.967285 -0.147631
N5    N     N_2   0.950330 0.457950 0.481240 0.086253
N6    N     N_2   0.049670 0.542050 0.518760 0.085655
N7    N     N_1   0.639912 0.104150 0.872355 -0.140360
N8    N     N_1   0.333778 0.866258 0.121872 -0.141942
O1    O     O_R   0.389250 0.738570 0.504600 -0.579792
O2    O     O_R   0.610750 0.261430 0.495400 -0.578837
O3    O     O_R   0.678400 0.711620 0.492580 -0.579307
O4    O     O_R   0.321600 0.288380 0.507420 -0.579740
O5    O     O_R   0.355380 0.513500 0.607880 -0.586692
O6    O     O_R   0.644620 0.486500 0.392120 -0.586318
O7    O     O_R   0.644530 0.486550 0.595850 -0.580546
O8    O     O_R   0.355470 0.513450 0.404150 -0.581228
Zn1   Zn    Zn3+2 0.306930 0.517990 0.508030 1.150091
Zn2   Zn    Zn3+2 0.693070 0.482010 0.491970 1.150698

loop_
_geom_bond_atom_site_label_1
_geom_bond_atom_site_label_2
_ccdc_geom_bond_type
C19   O8    A    
Br4   C8    S    
Br1   C20   S    
C12   O2    A    
C1    C16   S    
N5    N6    D    
O6    Zn2   S    
C1    O1    A    
O5    Zn1   S    
C20   C22   A    
Br7   N5    S    
O3    Zn2   S    
C10   C21   A    
C11   N3    A    
C13   N4    A    
N5    Zn2   S    
C3    C5    A    
C2    C21   A    
Br5   C16   S    
Br8   N6    S    
C18   O7    A    
O2    Zn2   S    
Br2   C21   S    
C14   N7    T    
C2    C4    A    
C4    C11   S    
O1    Zn1   S    
O8    Zn1   S    
N1    N3    A    
C6    C15   S    
C4    C6    A    
C5    C14   S    
C12   O4    A    
O7    Zn2   S    
N2    N4    A    
C5    C7    A    
C22   H1    S    
C6    C8    A    
C1    O3    A    
Br6   C17   S    
C13   N1    A    
C12   C17   S    
C9    C18   S    
C15   N8    T    
C2    H2    S    
Br3   C7    S    
C16   C17   D    
C19   O6    A    
C8    C10   A    
C7    C9    A    
C18   O5    A    
N6    Zn1   S    
C9    C20   A    
C3    C13   S    
O4    Zn1   S    
C10   C19   S    
C3    C22   A    
C11   N2    A    
