data_mof_unit_6933.cif
_audit_creation_date              2012-12-10T18:18:16-0500
_audit_creation_method            fapswitch 2.2
_symmetry_space_group_name_H-M    P1
_symmetry_Int_Tables_number       1
_space_group_crystal_system       triclinic
_cell_length_a                    14.155042
_cell_length_b                    14.912751
_cell_length_c                    15.52312
_cell_angle_alpha                 88.898801
_cell_angle_beta                  66.911184
_cell_angle_gamma                 93.512368
_cell_volume                      3005.30736439

loop_
_atom_site_label
_atom_site_type_symbol
_atom_type_description
_atom_site_fract_x
_atom_site_fract_y
_atom_site_fract_z
_atom_type_partial_charge
C1    C     C_R   0.502715 0.673066 0.499520 1.021502
C2    C     C_R   0.507166 0.769201 0.498013 -0.233295
C3    C     C_R   0.486544 0.187749 0.424243 0.246531
C4    C     C_R   0.512088 0.813601 0.574898 0.259443
C5    C     C_R   0.470537 0.093172 0.428812 0.043166
C6    C     C_R   0.488285 0.904349 0.585716 0.035014
C7    C     C_R   0.473690 0.045346 0.508332 -0.040671
C8    C     C_R   0.479343 0.951561 0.508471 -0.038594
C9    C     C_R   0.474218 0.091474 0.586897 0.025676
C10   C     C_R   0.478750 0.905502 0.429951 0.025167
C11   C     C_R   0.453290 0.043499 0.357954 0.168772
C12   C     C_R   0.497284 0.327161 0.500048 1.061932
C13   C     C_R   0.471420 0.950352 0.669718 0.162183
C14   C     C_R   0.461341 0.951018 0.358716 -0.203534
C15   C     C_R   0.468465 0.043436 0.667084 -0.181871
C16   C     C_R   0.435279 0.499553 0.676413 0.940147
C17   C     C_R   0.564553 0.500846 0.323569 0.959264
C18   C     C_R   0.174765 0.433458 0.552767 0.201792
C19   C     C_R   0.821482 0.572107 0.459447 0.267620
C20   C     C_R   0.223739 0.569564 0.458614 0.015268
C21   C     C_R   0.775297 0.429665 0.541012 -0.040179
C22   C     C_R   0.121241 0.575438 0.465506 -0.021733
C23   C     C_R   0.371725 0.513809 0.110244 0.368711
C24   C     C_R   0.875343 0.426380 0.540767 -0.035722
C25   C     C_R   0.047283 0.501989 0.507414 -0.037698
C26   C     C_R   0.946769 0.502361 0.506359 -0.049322
C27   C     C_R   0.071713 0.430676 0.554604 -0.060276
C28   C     C_R   0.917100 0.579070 0.471857 -0.043420
C29   C     C_R   0.089081 0.654998 0.437090 0.082436
C30   C     C_R   0.902696 0.351462 0.580244 0.097568
C31   C     C_R   0.984447 0.658820 0.450624 0.325448
C32   C     C_R   0.991265 0.360856 0.601291 0.299733
C33   C     C_R   0.394112 0.498797 0.778995 -0.096183
C34   C     C_R   0.611406 0.480973 0.903175 0.371074
C35   C     C_R   0.604237 0.508617 0.221013 -0.093221
C36   C     C_R   0.255141 0.509386 0.931558 0.186531
C37   C     C_R   0.729742 0.569550 0.069033 0.199785
C38   C     C_R   0.289263 0.499702 0.834181 -0.184203
C39   C     C_R   0.700747 0.550729 0.166266 -0.165357
C40   C     C_R   0.463968 0.502637 0.821381 -0.096769
C41   C     C_R   0.534616 0.488345 0.180378 -0.074101
C42   C     C_R   0.432172 0.495336 0.918332 0.059089
C43   C     C_R   0.556568 0.513586 0.087757 0.076839
C44   C     C_R   0.325576 0.497033 0.976012 0.006340
C45   C     C_R   0.296288 0.491669 0.074633 0.077265
C46   C     C_R   0.660676 0.537700 0.026660 -0.028536
C47   C     C_R   0.507040 0.494212 0.957589 -0.082751
C48   C     C_R   0.477885 0.508130 0.053073 -0.079576
C49   C     C_3   0.190394 0.452627 0.142491 -0.403198
C50   C     C_3   0.197576 0.370607 0.199917 -0.787833
C51   C     C_3   0.801082 0.535329 0.857394 -0.403297
C52   C     C_3   0.823023 0.519027 0.754571 -0.712194
C53   C     C_3   0.203037 0.363131 0.607977 -0.299899
C54   C     C_3   0.215858 0.271978 0.562320 -0.753936
C55   C     C_3   0.802506 0.637170 0.392656 -0.291062
C56   C     C_R   0.689570 0.520170 0.929203 0.071636
C57   C     C_3   0.889326 0.646043 0.294921 -0.927234
C58   C     C_3   0.163839 0.737663 0.395817 -0.349447
C59   C     C_3   0.182537 0.790819 0.471640 -0.785100
C60   C     C_3   0.836015 0.262448 0.603638 -0.332809
C61   C     C_3   0.835939 0.219098 0.515100 -0.844998
C62   C     C_3   0.151191 0.548308 0.980061 -0.447202
C63   C     C_3   0.142357 0.633827 0.928323 -0.850242
C64   C     C_3   0.823299 0.634578 0.016256 -0.430706
C65   C     C_3   0.863434 0.692541 0.076411 -0.878080
C66   C     C_3   0.417259 0.081505 0.284950 -0.333409
C67   C     C_R   0.478623 0.185049 0.584719 0.247902
C68   C     C_3   0.313279 0.121733 0.330182 -0.804766
C69   C     C_3   0.445954 0.905534 0.766161 -0.325650
C70   C     C_3   0.346948 0.843723 0.798716 -0.813818
C71   C     C_R   0.491236 0.813649 0.425602 0.262526
C72   C     C_R   0.488705 0.231282 0.502543 -0.237330
Cl1   Cl    Cl    0.935592 0.766458 0.458602 -0.632043
Cl2   Cl    Cl    0.978714 0.299391 0.704862 -0.666081
Cl3   Cl    Cl    0.330255 0.565076 0.219758 -0.678176
Cl4   Cl    Cl    0.635346 0.387464 0.830443 -0.601682
Cl5   Cl    Cl    0.475493 0.246519 0.683004 -0.625017
Cl6   Cl    Cl    0.493674 0.753136 0.326824 -0.639051
Cl7   Cl    Cl    0.522520 0.254684 0.318810 -0.678084
Cl8   Cl    Cl    0.559506 0.754691 0.648294 -0.635588
H1    H     H_    0.283242 0.622040 0.423747 0.206920
H2    H     H_    0.236323 0.389326 0.247478 0.286220
H3    H     H_    0.118862 0.340873 0.243670 0.244177
H4    H     H_    0.149329 0.504618 0.190687 0.237650
H5    H     H_    0.142692 0.427958 0.104580 0.205820
H6    H     H_    0.827873 0.446453 0.742079 0.311018
H7    H     H_    0.764294 0.547187 0.733045 0.266689
H8    H     H_    0.899414 0.552436 0.709375 0.228234
H9    H     H_    0.825531 0.607274 0.854627 0.197337
H10   H     H_    0.851256 0.494021 0.879266 0.231832
H11   H     H_    0.271330 0.280406 0.488363 0.257395
H12   H     H_    0.716196 0.376229 0.573558 0.197581
H13   H     H_    0.245200 0.224755 0.600525 0.253035
H14   H     H_    0.142580 0.241569 0.562273 0.274367
H15   H     H_    0.272375 0.384308 0.617419 0.245529
H16   H     H_    0.151156 0.358964 0.682531 0.227728
H17   H     H_    0.895417 0.580986 0.260126 0.246128
H18   H     H_    0.871000 0.698413 0.253576 0.269984
H19   H     H_    0.965311 0.667549 0.295107 0.288413
H20   H     H_    0.735444 0.612828 0.379721 0.244735
H21   H     H_    0.783547 0.703418 0.423139 0.269172
H22   H     H_    0.109104 0.814553 0.521783 0.290506
H23   H     H_    0.461607 0.452097 0.221983 0.201409
H24   H     H_    0.216132 0.749231 0.510877 0.246328
H25   H     H_    0.237023 0.850309 0.438582 0.253567
H26   H     H_    0.237868 0.718492 0.342581 0.247962
H27   H     H_    0.134881 0.783206 0.355850 0.248303
H28   H     H_    0.803008 0.262100 0.476499 0.264068
H29   H     H_    0.915828 0.206364 0.467806 0.263911
H30   H     H_    0.788848 0.153852 0.534674 0.273515
H31   H     H_    0.864529 0.211730 0.638744 0.270328
H32   H     H_    0.756248 0.272219 0.653221 0.256355
H33   H     H_    0.212075 0.680427 0.911240 0.270612
H34   H     H_    0.545047 0.513370 0.777568 0.195772
H35   H     H_    0.131895 0.617819 0.862952 0.253036
H36   H     H_    0.074796 0.668636 0.973502 0.258342
H37   H     H_    0.088320 0.497415 0.985115 0.214683
H38   H     H_    0.139360 0.569197 0.051303 0.218244
H39   H     H_    0.799428 0.723609 0.132057 0.288187
H40   H     H_    0.905833 0.650878 0.106907 0.254523
H41   H     H_    0.918178 0.747632 0.031874 0.260228
H42   H     H_    0.888337 0.597286 0.970250 0.208480
H43   H     H_    0.800497 0.683637 0.974579 0.226601
H44   H     H_    0.254701 0.070411 0.377394 0.252927
H45   H     H_    0.750750 0.571678 0.200929 0.165745
H46   H     H_    0.318567 0.180280 0.371005 0.276660
H47   H     H_    0.287628 0.144494 0.274850 0.253537
H48   H     H_    0.476009 0.129159 0.233585 0.268998
H49   H     H_    0.406156 0.027712 0.240435 0.189436
H50   H     H_    0.281406 0.882685 0.801664 0.253847
H51   H     H_    0.353434 0.787650 0.751359 0.277090
H52   H     H_    0.330318 0.814837 0.870054 0.249770
H53   H     H_    0.511242 0.871121 0.769776 0.264827
H54   H     H_    0.432706 0.956573 0.820199 0.191107
H55   H     H_    0.235390 0.501859 0.800421 0.161608
H56   H     H_    0.451988 0.914153 0.302961 0.204297
H57   H     H_    0.460596 0.078408 0.729611 0.207122
H58   H     H_    0.240710 0.318940 0.152545 0.260131
N1    N     N_R   0.249980 0.499930 0.499960 -0.134796
N2    N     N_R   0.750020 0.500070 0.500040 -0.142154
O1    O     O_R   0.419720 0.632140 0.499980 -0.614715
O2    O     O_R   0.580280 0.367860 0.500020 -0.599300
O3    O     O_R   0.580270 0.632160 0.499970 -0.610931
O4    O     O_R   0.419730 0.367840 0.500030 -0.632974
O5    O     O_R   0.373870 0.499980 0.632250 -0.668132
O6    O     O_R   0.626130 0.500020 0.367750 -0.652993
O7    O     O_R   0.534420 0.500000 0.632240 -0.579470
O8    O     O_R   0.465580 0.500000 0.367760 -0.565776
Zn1   Zn    Zn3+2 0.392800 0.499980 0.500010 0.970251
Zn2   Zn    Zn3+2 0.607200 0.500020 0.499990 0.987551

loop_
_geom_bond_atom_site_label_1
_geom_bond_atom_site_label_2
_ccdc_geom_bond_type
C66   C68   S    
C34   C56   A    
C69   H54   S    
C23   C45   A    
C22   C29   A    
C68   H46   S    
C53   H15   S    
C2    C4    A    
C67   Cl5   S    
C61   H29   S    
C68   H44   S    
O1    Zn1   S    
C7    C8    A    
C53   C54   S    
C50   H2    S    
C59   H25   S    
C13   C69   S    
C16   O7    A    
C39   H45   S    
C59   H24   S    
C49   H4    S    
C24   C26   A    
C67   C72   A    
C51   H10   S    
C32   Cl2   S    
C11   C14   A    
C31   Cl1   S    
C57   H19   S    
C70   H50   S    
C58   H27   S    
C61   H28   S    
C54   H13   S    
C18   C53   S    
O6    Zn2   S    
O3    Zn2   S    
C40   H34   S    
C12   O2    A    
C19   N2    A    
C62   H37   S    
C22   C25   A    
C30   C60   S    
C55   H20   S    
C65   H41   S    
C43   C48   A    
C11   C66   S    
C66   H49   S    
C63   H35   S    
C10   C71   A    
C40   C42   A    
C12   C72   S    
C3    Cl7   S    
C20   H1    S    
C53   H16   S    
C41   C43   A    
C18   N1    A    
C42   C44   A    
C36   C62   S    
C61   H30   S    
C50   H3    S    
C52   H7    S    
C60   H32   S    
C33   C40   A    
C62   H38   S    
C51   C52   S    
C49   H5    S    
C52   H8    S    
O7    Zn2   S    
O8    Zn1   S    
C4    C6    A    
C10   C14   A    
C5    C7    A    
C6    C8    A    
C25   C26   A    
N1    Zn1   S    
C41   H23   S    
C16   O5    A    
C58   H26   S    
C35   C39   A    
C9    C67   A    
C62   C63   S    
C1    O3    A    
C16   C33   S    
C47   C48   A    
C13   C15   A    
C45   C49   S    
C57   H17   S    
C17   O8    A    
C70   H52   S    
C65   H39   S    
C38   H55   S    
C19   C28   A    
C68   H47   S    
C63   H36   S    
C8    C10   A    
C4    Cl8   S    
C20   C22   A    
C55   C57   S    
C36   C44   A    
C2    C71   A    
N2    Zn2   S    
C37   C64   S    
C44   C45   A    
C20   N1    A    
C19   C55   S    
C7    C9    A    
C69   H53   S    
C23   C48   A    
O4    Zn1   S    
C27   C32   A    
C59   H22   S    
C28   C31   A    
C18   C27   A    
C51   C56   S    
C23   Cl3   S    
C3    C5    A    
C50   H58   S    
C5    C11   A    
C25   C27   A    
C64   H43   S    
C55   H21   S    
C26   C28   A    
C33   C38   A    
C64   C65   S    
O2    Zn2   S    
C36   C38   A    
C3    C72   A    
C58   C59   S    
C54   H11   S    
C29   C31   A    
C60   H31   S    
C51   H9    S    
C6    C13   A    
C30   C32   A    
C14   H56   S    
C64   H42   S    
C57   H18   S    
C1    C2    S    
C52   H6    S    
C70   H51   S    
C65   H40   S    
C66   H48   S    
C17   O6    A    
C42   C47   A    
C9    C15   A    
C69   C70   S    
C35   C41   A    
C43   C46   A    
C24   C30   A    
C54   H14   S    
C1    O1    A    
C63   H33   S    
C12   O4    A    
C29   C58   S    
C37   C39   A    
C49   C50   S    
C21   C24   A    
C46   C56   A    
C60   C61   S    
C34   C47   A    
C17   C35   S    
C21   N2    A    
C37   C46   A    
C71   Cl6   S    
O5    Zn1   S    
C34   Cl4   S    
C15   H57   S    
C21   H12   S    
