data_mof_unit_40308.cif
_audit_creation_date              2012-12-10T18:10:51-0500
_audit_creation_method            fapswitch 2.2
_symmetry_space_group_name_H-M    P1
_symmetry_Int_Tables_number       1
_space_group_crystal_system       triclinic
_cell_length_a                    12.656305
_cell_length_b                    13.137794
_cell_length_c                    15.724869
_cell_angle_alpha                 90.038772
_cell_angle_beta                  103.371959
_cell_angle_gamma                 82.159679
_cell_volume                      2518.70925985

loop_
_atom_site_label
_atom_site_type_symbol
_atom_type_description
_atom_site_fract_x
_atom_site_fract_y
_atom_site_fract_z
_atom_type_partial_charge
C1    C     C_R   0.438399 0.691408 0.487647 0.921144
C2    C     C_3   0.381280 0.478912 0.026405 -0.398207
C3    C     C_3   0.494367 0.498233 0.081790 0.216230
C4    C     C_3   0.583858 0.413766 0.064190 -0.411552
C5    C     C_3   0.584080 0.415391 0.966146 -0.471874
C6    C     C_1   0.494448 0.496224 0.173341 -0.033895
C7    C     C_1   0.501263 0.503284 0.825994 -0.032551
C8    C     C_1   0.503366 0.502389 0.750950 -0.117768
C9    C     C_R   0.702711 0.062109 0.448396 0.129306
C10   C     C_R   0.598408 0.199453 0.508813 -0.051851
C11   C     C_R   0.305040 0.835400 0.512647 -0.168385
C12   C     C_R   0.501326 0.500538 0.661542 0.875795
C13   C     C_R   0.282275 0.937981 0.531367 -0.131668
C14   C     C_R   0.355602 0.005386 0.524028 -0.125640
C15   C     C_R   0.449927 0.972295 0.491364 0.053183
C16   C     C_R   0.460870 0.872799 0.457389 -0.043808
C17   C     C_R   0.532469 0.034829 0.489736 0.047352
C18   C     C_R   0.621136 0.999357 0.450853 0.093105
C19   C     C_R   0.620758 0.906805 0.407495 -0.308804
C20   C     C_R   0.536396 0.848250 0.403892 0.408025
C21   C     C_R   0.527725 0.133072 0.523477 -0.183814
C22   C     C_R   0.689584 0.163078 0.476161 -0.260775
C23   C     C_R   0.561420 0.308733 0.510738 0.860102
C24   C     C_R   0.397335 0.801291 0.479957 -0.061994
C25   C     C_R   0.084727 0.343784 0.386260 -0.351562
C26   C     C_R   0.800838 0.630469 0.601847 0.263055
C27   C     C_R   0.906907 0.656260 0.625206 -0.257755
C28   C     C_R   0.988875 0.604154 0.589920 -0.174570
C29   C     C_R   0.965604 0.524929 0.531102 0.022758
C30   C     C_R   0.856203 0.500996 0.509389 0.208339
C31   C     C_R   0.045333 0.470280 0.491210 0.008902
C32   C     C_R   0.013345 0.392270 0.432685 0.108351
C33   C     C_R   0.907441 0.367198 0.415689 -0.251449
C34   C     C_R   0.499337 0.497320 0.338642 0.973937
C35   C     C_R   0.829789 0.421951 0.452542 -0.180290
C36   C     C_R   0.154679 0.491240 0.504391 -0.128724
C37   C     C_R   0.186477 0.375080 0.393087 0.565861
C38   C     C_3   0.381396 0.481324 0.927717 0.281635
C39   C     C_3   0.524395 0.605718 0.957938 -0.382886
C40   C     C_3   0.518291 0.604632 0.054831 -0.323816
C41   C     C_1   0.496101 0.495809 0.249039 -0.034194
C42   C     C_3   0.496421 0.502745 0.916692 0.208666
H1    H     H_    0.316204 0.537547 0.041025 0.246173
H2    H     H_    0.368435 0.403802 0.902174 0.065574
H3    H     H_    0.362819 0.402668 0.045066 0.165690
H4    H     H_    0.665898 0.426604 0.103540 0.197036
H5    H     H_    0.746141 0.214376 0.466422 0.148251
H6    H     H_    0.680233 0.884651 0.368763 0.199968
H7    H     H_    0.464607 0.163655 0.555818 0.137750
H8    H     H_    0.253764 0.781839 0.528187 0.157980
H9    H     H_    0.334826 0.082694 0.543475 0.130880
H10   H     H_    0.211032 0.964109 0.556775 0.147208
H11   H     H_    0.883078 0.307361 0.370742 0.148691
H12   H     H_    0.056721 0.287335 0.339168 0.202161
H13   H     H_    0.187187 0.545907 0.550840 0.167178
H14   H     H_    0.069253 0.627208 0.610007 0.180578
H15   H     H_    0.925757 0.716444 0.671070 0.177165
H16   H     H_    0.749040 0.401860 0.433929 0.198025
H17   H     H_    0.608733 0.616873 0.953789 0.175241
H18   H     H_    0.468377 0.672059 0.921724 0.229607
H19   H     H_    0.452654 0.665956 0.064643 0.232655
H20   H     H_    0.597241 0.622104 0.096497 0.194670
H21   H     H_    0.567094 0.339687 0.938408 0.178836
H22   H     H_    0.667072 0.426627 0.958482 0.205239
H23   H     H_    0.568544 0.336794 0.084061 0.181060
N1    N     N_R   0.222200 0.444690 0.455710 -0.161555
N2    N     N_R   0.776960 0.554780 0.543830 -0.121812
O1    O     O_R   0.366740 0.627160 0.478850 -0.609992
O2    O     O_R   0.544830 0.662520 0.507140 -0.592278
O3    O     O_R   0.410920 0.482310 0.608710 -0.611616
O4    O     O_R   0.589010 0.517670 0.637000 -0.607177
O5    O     O_R   0.455170 0.337480 0.492860 -0.565025
O6    O     O_R   0.633260 0.372840 0.521150 -0.660586
O7    O     O_R   0.410990 0.482330 0.363000 -0.526300
O8    O     O_R   0.589080 0.517690 0.391290 -0.605312
Zn1   Zn    Zn3+2 0.381090 0.476390 0.481110 1.036404
Zn2   Zn    Zn3+2 0.618910 0.523610 0.518890 0.979652
N3    N     N_3   0.794568 0.026112 0.412184 -0.466171
H24   H     H_    0.866203 0.032399 0.459650 0.193434
H25   H     H_    0.792626 0.074855 0.359131 0.188238
S1    S     S_3+6 0.265745 0.569098 0.867105 0.010639
O9    O     O_2   0.267138 0.675049 0.903011 -0.261006
O10   O     O_2   0.266282 0.574482 0.771742 -0.327451
O11   O     O_3   0.149455 0.526935 0.877060 -0.511355
H26   H     H_    0.150136 0.459694 0.848508 0.349018
S2    S     S_3+6 0.508824 0.771989 0.310617 0.019036
O12   O     O_2   0.606943 0.693104 0.311678 -0.337763
O13   O     O_2   0.408596 0.720543 0.304781 -0.293984
O14   O     O_3   0.487238 0.848982 0.221023 -0.514574
H27   H     H_    0.561227 0.858551 0.214364 0.352206
S3    S     S_3+6 0.250433 0.336896 0.305923 0.046127
O15   O     O_2   0.188515 0.261060 0.250504 -0.304512
O16   O     O_2   0.245358 0.430046 0.248911 -0.288744
O17   O     O_3   0.380717 0.280508 0.339789 -0.548167
H28   H     H_    0.408711 0.271938 0.285995 0.361375
N4    N     N_3   0.717593 0.682524 0.640304 -0.387952
H29   H     H_    0.743794 0.672094 0.708220 0.176130
H30   H     H_    0.709840 0.761126 0.625270 0.165542

loop_
_geom_bond_atom_site_label_1
_geom_bond_atom_site_label_2
_ccdc_geom_bond_type
C5    C42   S    
O2    Zn2   S    
C19   C20   A    
N2    Zn2   S    
O5    Zn1   S    
C3    C6    S    
C21   H7    S    
S1    O9    D    
C28   H14   S    
C7    C8    T    
C4    H4    S    
C10   C22   A    
C26   C27   A    
O7    Zn1   S    
C30   C35   A    
C35   H16   S    
C26   N2    A    
C28   C29   A    
C38   C42   S    
C4    H23   S    
S2    O13   D    
C9    C22   A    
C15   C16   A    
C11   C24   A    
C1    O1    A    
C40   H20   S    
C5    H21   S    
C18   C19   A    
C7    C42   S    
C19   H6    S    
C25   C37   A    
C14   H9    S    
C6    C41   T    
N4    H30   S    
C30   N2    A    
S3    O15   D    
C16   C20   A    
C34   O8    A    
C25   C32   A    
C22   H5    S    
C39   H17   S    
C16   C24   A    
C13   C14   A    
C37   N1    A    
C33   H11   S    
C34   C41   S    
C23   O6    A    
S1    O10   D    
C39   C42   S    
C10   C21   A    
C26   N4    S    
C37   S3    S    
C25   H12   S    
C27   H15   S    
C39   C40   S    
N3    H24   S    
C1    O2    A    
C40   H19   S    
C5    H22   S    
C20   S2    S    
C38   H2    S    
C29   C30   A    
S3    O16   D    
C13   H10   S    
C2    C38   S    
C31   C32   A    
C14   C15   A    
C2    H1    S    
C8    C12   S    
N1    Zn1   S    
N4    H29   S    
C17   C18   A    
N3    H25   S    
O11   H26   S    
O8    Zn2   S    
C34   O7    A    
C12   O4    A    
C3    C40   S    
C38   S1    S    
O3    Zn1   S    
C3    C4    S    
O4    Zn2   S    
S1    O11   S    
C15   C17   A    
C12   O3    A    
S2    O12   D    
C23   O5    A    
C4    C5    S    
S2    O14   S    
C10   C23   S    
O1    Zn1   S    
C32   C33   A    
C2    C3    S    
C29   C31   A    
C36   H13   S    
S3    O17   S    
C11   C13   A    
C39   H18   S    
C33   C35   A    
C36   N1    A    
C9    N3    S    
O17   H28   S    
C17   C21   A    
C2    H3    S    
C9    C18   A    
C1    C24   S    
C27   C28   A    
C11   H8    S    
O6    Zn2   S    
C31   C36   A    
O14   H27   S    
