data_mof_unit_42813.cif
_audit_creation_date              2012-12-10T18:21:51-0500
_audit_creation_method            fapswitch 2.2
_symmetry_space_group_name_H-M    P1
_symmetry_Int_Tables_number       1
_space_group_crystal_system       triclinic
_cell_length_a                    19.486935
_cell_length_b                    10.705447
_cell_length_c                    9.580548
_cell_angle_alpha                 89.98985
_cell_angle_beta                  88.730875
_cell_angle_gamma                 86.523407
_cell_volume                      1994.48998095

loop_
_atom_site_label
_atom_site_type_symbol
_atom_type_description
_atom_site_fract_x
_atom_site_fract_y
_atom_site_fract_z
_atom_type_partial_charge
C1    C     C_R   0.503248 0.260098 0.500065 0.795267
C2    C     C_R   0.498104 0.739991 0.499834 0.793046
C3    C     C_3   0.551334 0.030014 0.583808 0.251065
C4    C     C_3   0.452303 0.970339 0.415680 0.253302
C5    C     C_3   0.561268 0.947539 0.453722 0.281074
C6    C     C_3   0.442326 0.052169 0.546005 0.288658
C7    C     C_3   0.498328 0.876679 0.498912 -0.174850
C8    C     C_3   0.505013 0.123384 0.500714 -0.177292
C9    C     C_3   0.488217 0.959516 0.631956 -0.280594
C10   C     C_3   0.515536 0.040535 0.367702 -0.282925
C11   C     C_3   0.505612 0.611459 0.049362 0.506114
C12   C     C_3   0.494338 0.388498 0.950454 0.504272
C13   C     C_3   0.449282 0.570371 0.953196 0.180225
C14   C     C_3   0.550604 0.429348 0.046602 0.185100
C15   C     C_3   0.556262 0.541026 0.948234 0.152955
C16   C     C_3   0.443778 0.458638 0.051631 0.148242
C17   C     C_R   0.367031 0.503393 0.500824 0.842045
C18   C     C_R   0.633002 0.497383 0.499518 0.834994
C19   C     C_R   0.251177 0.463453 0.615993 0.374101
C20   C     C_R   0.746619 0.554805 0.388901 0.390839
C21   C     C_R   0.181425 0.438600 0.604284 0.333523
C22   C     C_R   0.816064 0.583879 0.401024 0.352168
C23   C     C_R   0.144780 0.481017 0.487156 -0.283341
C24   C     C_R   0.854013 0.534859 0.512938 -0.255730
C25   C     C_R   0.180423 0.532989 0.374331 0.430870
C26   C     C_R   0.821030 0.470865 0.620407 0.411876
C27   C     C_R   0.251778 0.545344 0.380342 0.126850
C28   C     C_R   0.749812 0.454846 0.616064 0.111951
C29   C     C_R   0.289469 0.503489 0.499174 -0.330771
C30   C     C_R   0.710387 0.502597 0.502149 -0.327305
C31   C     C_R   0.929843 0.529485 0.504678 0.533303
C32   C     C_R   0.068807 0.492115 0.493915 0.483848
Cu1   Cu    Cu3+1 0.500020 0.499990 0.643150 0.970046
Cu2   Cu    Cu3+1 0.499980 0.500010 0.356850 0.970888
H1    H     H_    0.475950 0.928862 0.739423 0.148876
H2    H     H_    0.528033 0.071469 0.260404 0.148747
N1    N     N_R   0.031335 0.474842 0.378702 -0.196703
N2    N     N_R   0.967298 0.546740 0.619935 -0.210402
N3    N     N_R   0.963159 0.492479 0.384385 -0.251093
N4    N     N_R   0.035492 0.529311 0.614294 -0.199124
N5    N     N_3   0.500050 0.499970 0.858290 -0.286272
N6    N     N_3   0.499950 0.500030 0.141710 -0.283576
O1    O     O_R   0.500030 0.316850 0.620870 -0.504194
O2    O     O_R   0.499970 0.683150 0.379130 -0.504391
O3    O     O_R   0.500000 0.316860 0.379090 -0.635847
O4    O     O_R   0.500000 0.683140 0.620910 -0.634058
O5    O     O_R   0.400160 0.499980 0.620930 -0.530068
O6    O     O_R   0.599840 0.500020 0.379070 -0.526548
O7    O     O_R   0.400130 0.499990 0.379150 -0.589885
O8    O     O_R   0.599870 0.500010 0.620850 -0.594820
O9    O     O_3   0.278894 0.463409 0.746779 -0.547989
C33   C     C_3   0.251628 0.572735 0.816435 -0.222016
H3    H     H_    0.267266 0.658591 0.761610 0.137052
H4    H     H_    0.194704 0.575942 0.828894 0.192105
H5    H     H_    0.271171 0.573766 0.923391 0.213981
O10   O     O_3   0.720360 0.549148 0.257714 -0.562709
C34   C     C_3   0.739446 0.427842 0.205409 -0.322234
H6    H     H_    0.795293 0.401621 0.213063 0.125180
H7    H     H_    0.710941 0.355564 0.261467 0.185433
H8    H     H_    0.728043 0.424934 0.093637 0.212389
N7    N     N_2   0.615826 0.594214 0.883446 -0.419003
H9    H     H_    0.602935 0.653873 0.802609 0.275849
C35   C     C_3   0.665065 0.646203 0.974040 -0.621854
H10   H     H_    0.646991 0.646979 0.084464 0.312979
H11   H     H_    0.714921 0.592717 0.961080 0.221308
H12   H     H_    0.674150 0.743879 0.943156 0.185714
N8    N     N_2   0.384495 0.404096 0.115994 -0.433486
H13   H     H_    0.397349 0.345341 0.197616 0.276131
C36   C     C_3   0.335377 0.351286 0.025618 -0.589648
H14   H     H_    0.329870 0.251277 0.051229 0.185583
H15   H     H_    0.351559 0.357212 0.914429 0.307441
H16   H     H_    0.284112 0.399160 0.044813 0.252578
O11   O     O_3   0.147901 0.387643 0.717692 -0.533699
C37   C     C_3   0.136533 0.261844 0.687138 -0.237706
H17   H     H_    0.184927 0.208382 0.654342 0.131875
H18   H     H_    0.097271 0.255160 0.605470 0.157629
H19   H     H_    0.116623 0.217130 0.783030 0.187508
O12   O     O_3   0.844633 0.673711 0.316559 -0.563832
C38   C     C_3   0.858466 0.629228 0.179726 -0.242163
H20   H     H_    0.880555 0.531120 0.176629 0.153673
H21   H     H_    0.897502 0.687484 0.130667 0.175004
H22   H     H_    0.811924 0.640968 0.115501 0.186700
O13   O     O_3   0.145656 0.571870 0.255707 -0.537558
C39   C     C_3   0.119680 0.697441 0.271169 -0.235503
H23   H     H_    0.155936 0.760975 0.221686 0.176718
H24   H     H_    0.108554 0.726723 0.381525 0.124565
H25   H     H_    0.070635 0.709264 0.214663 0.187910
O14   O     O_3   0.860614 0.407658 0.719376 -0.538739
C40   C     C_3   0.853765 0.472721 0.847315 -0.253292
H26   H     H_    0.805411 0.450704 0.902140 0.159701
H27   H     H_    0.856445 0.575874 0.834650 0.137814
H28   H     H_    0.896785 0.440018 0.914673 0.188456
N9    N     N_2   0.279933 0.627603 0.281886 -0.391356
H29   H     H_    0.320405 0.591503 0.221561 0.309657
C41   C     C_3   0.288022 0.751418 0.336686 -0.705548
H30   H     H_    0.290654 0.818113 0.248904 0.245085
H31   H     H_    0.335145 0.751038 0.399560 0.239825
H32   H     H_    0.243272 0.783496 0.404286 0.215311
N10   N     N_2   0.723202 0.369008 0.712801 -0.403740
H33   H     H_    0.677684 0.395931 0.762479 0.299549
C42   C     C_3   0.728669 0.240753 0.665246 -0.635415
H34   H     H_    0.718654 0.178299 0.754378 0.237572
H35   H     H_    0.781411 0.214799 0.624238 0.250993
H36   H     H_    0.691152 0.227570 0.581722 0.217778
N11   N     N_2   0.624833 0.885048 0.402344 -0.390157
H37   H     H_    0.644107 0.815129 0.467078 0.242942
C43   C     C_3   0.675952 0.966275 0.349473 -0.662802
H38   H     H_    0.720975 0.908657 0.307190 0.249433
H39   H     H_    0.693284 0.026805 0.434216 0.228358
H40   H     H_    0.654722 0.025605 0.263725 0.216635
N12   N     N_2   0.378516 0.112369 0.599100 -0.386174
H41   H     H_    0.358419 0.183066 0.536352 0.240603
C44   C     C_3   0.328433 0.028524 0.650962 -0.698148
H42   H     H_    0.285005 0.083648 0.702311 0.223977
H43   H     H_    0.351415 0.963760 0.729978 0.224648
H44   H     H_    0.308652 0.973483 0.563946 0.230806
N13   N     N_2   0.604291 0.063946 0.677033 -0.437011
H45   H     H_    0.586113 0.130820 0.747678 0.291671
C45   C     C_3   0.642525 0.959878 0.741313 -0.768915
H46   H     H_    0.669344 0.992514 0.834355 0.221483
H47   H     H_    0.681859 0.918638 0.666776 0.252970
H48   H     H_    0.607879 0.886898 0.775329 0.223217
N14   N     N_2   0.399729 0.938324 0.320792 -0.438502
H49   H     H_    0.418397 0.873989 0.247742 0.294637
C46   C     C_3   0.360775 0.043282 0.259982 -0.769853
H50   H     H_    0.321246 0.081770 0.335733 0.249552
H51   H     H_    0.334039 0.012332 0.166029 0.220781
H52   H     H_    0.394914 0.117806 0.228432 0.224821
N15   N     N_2   0.393694 0.649475 0.896182 -0.397284
H53   H     H_    0.401199 0.674917 0.793781 0.290406
C47   C     C_3   0.365870 0.752445 0.982054 -0.751055
H54   H     H_    0.388543 0.840543 0.949527 0.212146
H55   H     H_    0.375742 0.734587 0.093506 0.267304
H56   H     H_    0.309678 0.766560 0.968390 0.220348
N16   N     N_2   0.605229 0.348281 0.103612 -0.401685
H57   H     H_    0.595383 0.318272 0.203584 0.282028
C48   C     C_3   0.635405 0.249271 0.014729 -0.746488
H58   H     H_    0.691791 0.239687 0.027433 0.224989
H59   H     H_    0.615382 0.158330 0.045340 0.209546
H60   H     H_    0.624692 0.268030 0.903863 0.261149
O15   O     O_3   0.511856 0.728617 0.114014 -0.540070
C49   C     C_3   0.523791 0.823448 0.016327 -0.371400
H61   H     H_    0.487848 0.904740 0.040771 0.170858
H62   H     H_    0.516619 0.796197 0.906043 0.155949
H63   H     H_    0.576182 0.855636 0.029488 0.195461
O16   O     O_3   0.487657 0.271616 0.885426 -0.537884
C50   C     C_3   0.478351 0.175495 0.982918 -0.363166
H64   H     H_    0.426774 0.139505 0.970484 0.193661
H65   H     H_    0.485203 0.202963 0.093244 0.154478
H66   H     H_    0.515792 0.096685 0.957272 0.171726

loop_
_geom_bond_atom_site_label_1
_geom_bond_atom_site_label_2
_ccdc_geom_bond_type
C35   H11   S    
C42   H34   S    
C27   C29   A    
C1    C8    S    
C17   C29   S    
C6    N12   S    
C2    C7    S    
Cu2   N6    S    
C39   H25   S    
C20   O10   S    
C47   H56   S    
C6    C9    S    
C13   N5    S    
C41   H32   S    
N16   H57   S    
C5    N11   S    
C2    O4    A    
N11   C43   S    
N9    H29   S    
C37   H18   S    
C50   H65   S    
C39   H24   S    
O16   C50   S    
N13   C45   S    
C34   H7    S    
C14   N16   S    
C21   O11   S    
O10   C34   S    
C11   N6    S    
N7    C35   S    
O11   C37   S    
C12   O16   S    
C36   H15   S    
C3    N13   S    
C50   H64   S    
C11   C15   S    
C1    O1    A    
C12   C16   S    
C2    O2    A    
C37   H19   S    
C46   H52   S    
C43   H38   S    
C18   C30   S    
C40   H27   S    
C33   H5    S    
C14   N6    S    
C44   H44   S    
C23   C25   A    
C35   H12   S    
C42   H35   S    
N16   C48   S    
Cu1   O4    S    
C43   H39   S    
C49   H63   S    
N7    H9    S    
C4    C7    S    
C33   H4    S    
C45   H47   S    
C48   H60   S    
C37   H17   S    
N8    H13   S    
Cu1   O1    S    
N14   H49   S    
C50   H66   S    
Cu2   O2    S    
C39   H23   S    
C15   N5    S    
C4    C6    S    
C3    C8    S    
C17   O7    A    
C5    C7    S    
O12   C38   S    
C34   H8    S    
C20   C30   A    
C3    C5    S    
Cu1   O8    S    
O9    C33   S    
C4    N14   S    
N8    C36   S    
C36   H16   S    
C12   N5    S    
C3    C9    S    
C48   H59   S    
O13   C39   S    
Cu1   Cu2   S    
C15   N7    S    
N12   C44   S    
C16   N8    S    
C32   N1    A    
C40   H28   S    
C46   H51   S    
C11   O15   S    
C22   O12   S    
Cu2   O3    S    
C28   N10   S    
C8    C10   S    
N10   C42   S    
C12   C14   S    
C42   H36   S    
C21   C23   A    
C46   H50   S    
Cu1   O5    S    
C43   H40   S    
C49   H62   S    
C38   H20   S    
C27   N9    S    
Cu2   O6    S    
C4    C10   S    
C47   H54   S    
C19   C29   A    
C16   N6    S    
C33   H3    S    
C18   O8    A    
C25   O13   S    
C44   H42   S    
C48   H58   S    
C45   H48   S    
C7    C9    S    
Cu2   O7    S    
N12   H41   S    
C19   C21   A    
C14   C15   S    
C26   C28   A    
C17   O5    A    
C20   C22   A    
C47   H55   S    
C18   O6    A    
C38   H22   S    
C6    C8    S    
C45   H46   S    
C41   H31   S    
C31   N2    A    
C25   C27   A    
N11   H37   S    
C38   H21   S    
N10   H33   S    
Cu1   N5    S    
C23   C32   S    
C28   C30   A    
N15   H53   S    
C24   C31   S    
C5    C10   S    
N1    N3    A    
N13   H45   S    
N2    N4    A    
C11   C13   S    
C24   C26   A    
C1    O3    A    
C34   H6    S    
C31   N3    A    
C22   C24   A    
C32   N4    A    
C36   H14   S    
N14   C46   S    
C35   H10   S    
C26   O14   S    
C19   O9    S    
O14   C40   S    
N9    C41   S    
C13   C16   S    
C41   H30   S    
C9    H1    S    
C13   N15   S    
C49   H61   S    
C10   H2    S    
N15   C47   S    
C40   H26   S    
O15   C49   S    
C44   H43   S    
