data_mof_unit_59859.cif
_audit_creation_date              2012-12-11T15:08:37-0500
_audit_creation_method            fapswitch 2.2
_symmetry_space_group_name_H-M    P1
_symmetry_Int_Tables_number       1
_space_group_crystal_system       triclinic
_cell_length_a                    19.471505
_cell_length_b                    11.336838
_cell_length_c                    18.728936
_cell_angle_alpha                 89.973291
_cell_angle_beta                  90.214639
_cell_angle_gamma                 90.004214
_cell_volume                      4134.29508507

loop_
_atom_site_label
_atom_site_type_symbol
_atom_type_description
_atom_site_fract_x
_atom_site_fract_y
_atom_site_fract_z
_atom_type_partial_charge
C1    C     C_R   0.271893 0.046748 0.853067 0.523711
C2    C     C_R   0.728103 0.046760 0.146930 0.524835
C3    C     C_R   0.771893 0.546747 0.853067 0.523714
C4    C     C_R   0.228103 0.546762 0.146931 0.524834
C5    C     C_3   0.520851 0.718167 0.965146 -0.102679
C6    C     C_3   0.479186 0.718163 0.034903 -0.102462
C7    C     C_3   0.020856 0.218172 0.965144 -0.102680
C8    C     C_3   0.979191 0.218158 0.034901 -0.102462
C9    C     C_3   0.306476 0.521239 0.042492 -0.253593
C10   C     C_3   0.693520 0.521256 0.957548 -0.253584
C11   C     C_3   0.806478 0.021246 0.042493 -0.253591
C12   C     C_3   0.193522 0.021254 0.957548 -0.253584
C13   C     C_3   0.317251 0.543861 0.962226 -0.246012
C14   C     C_3   0.682736 0.543966 0.037793 -0.246004
C15   C     C_3   0.817253 0.043868 0.962228 -0.246011
C16   C     C_3   0.182736 0.043965 0.037793 -0.246007
C17   C     C_3   0.173213 0.550283 0.027279 -0.063568
C18   C     C_3   0.826767 0.550310 0.972738 -0.063490
C19   C     C_3   0.673214 0.050277 0.027277 -0.063572
C20   C     C_3   0.326768 0.050315 0.972738 -0.063489
C21   C     C_3   0.256931 0.713630 0.057496 -0.241181
C22   C     C_3   0.743059 0.713649 0.942404 -0.241077
C23   C     C_3   0.756923 0.213631 0.057497 -0.241181
C24   C     C_3   0.243056 0.213648 0.942404 -0.241080
C25   C     C_3   0.240761 0.583677 0.071378 0.077189
C26   C     C_3   0.759225 0.583686 0.928607 0.077455
C27   C     C_3   0.740760 0.083676 0.071378 0.077190
C28   C     C_3   0.259225 0.083687 0.928607 0.077453
C29   C     C_3   0.255818 0.613821 0.932581 0.048504
C30   C     C_3   0.744183 0.613919 0.067398 0.048185
C31   C     C_3   0.755818 0.113822 0.932582 0.048504
C32   C     C_3   0.244183 0.113919 0.067398 0.048187
C33   C     C_3   0.189568 0.543635 0.946425 -0.240014
C34   C     C_3   0.810419 0.543709 0.053601 -0.239942
C35   C     C_3   0.689570 0.043631 0.946424 -0.240011
C36   C     C_3   0.310419 0.043709 0.053601 -0.239946
C37   C     C_3   0.250133 0.731093 0.975285 -0.212809
C38   C     C_3   0.749899 0.731170 0.024600 -0.212907
C39   C     C_3   0.750129 0.231095 0.975285 -0.212811
C40   C     C_3   0.249898 0.231169 0.024600 -0.212907
C41   C     C_3   0.507627 0.700452 0.462015 -0.227411
C42   C     C_3   0.505854 0.700708 0.542011 -0.234586
C43   C     C_3   0.007627 0.200452 0.462015 -0.227411
C44   C     C_3   0.005854 0.200708 0.542011 -0.234586
C45   C     C_R   0.445606 0.816634 0.862221 0.534371
C46   C     C_R   0.554404 0.816673 0.137778 0.534583
C47   C     C_R   0.945607 0.316634 0.862221 0.534368
C48   C     C_R   0.054405 0.316673 0.137778 0.534586
C49   C     C_3   0.562775 0.909383 0.473502 -0.214024
C50   C     C_3   0.431940 0.882714 0.526706 -0.224262
C51   C     C_3   0.062775 0.409383 0.473502 -0.214024
C52   C     C_3   0.931940 0.382714 0.526706 -0.224262
C53   C     C_3   0.441448 0.881597 0.444657 -0.262394
C54   C     C_3   0.554601 0.901225 0.555457 -0.256082
C55   C     C_3   0.941448 0.381597 0.444657 -0.262394
C56   C     C_3   0.054601 0.401225 0.555457 -0.256082
C57   C     C_3   0.511690 0.828295 0.431467 0.063657
C58   C     C_3   0.491439 0.827354 0.569954 0.058930
C59   C     C_3   0.011690 0.328295 0.431467 0.063657
C60   C     C_3   0.991439 0.327354 0.569954 0.058930
C61   C     C_3   0.177322 0.641254 0.460948 -0.227806
C62   C     C_3   0.815797 0.661740 0.543236 -0.234456
C63   C     C_3   0.677322 0.141254 0.460948 -0.227806
C64   C     C_3   0.315797 0.161740 0.543236 -0.234456
C65   C     C_3   0.179323 0.645135 0.540947 -0.234825
C66   C     C_3   0.813938 0.666026 0.463241 -0.226817
C67   C     C_3   0.679323 0.145135 0.540947 -0.234825
C68   C     C_3   0.313938 0.166026 0.463241 -0.226816
C69   C     C_3   0.255340 0.454742 0.473010 -0.212606
C70   C     C_3   0.760010 0.461173 0.527433 -0.223160
C71   C     C_3   0.755340 0.954742 0.473010 -0.212606
C72   C     C_3   0.260010 0.961173 0.527433 -0.223160
C73   C     C_3   0.301684 0.648503 0.442600 -0.263260
C74   C     C_3   0.690438 0.634938 0.557374 -0.257158
C75   C     C_3   0.801685 0.148503 0.442600 -0.263260
C76   C     C_3   0.190438 0.134938 0.557374 -0.257158
C77   C     C_3   0.239484 0.570716 0.430603 0.067663
C78   C     C_3   0.759171 0.576937 0.570985 0.062648
C79   C     C_3   0.739484 0.070716 0.430603 0.067663
C80   C     C_3   0.259171 0.076937 0.570985 0.062649
C81   C     C_3   0.250830 0.603802 0.568409 0.061336
C82   C     C_3   0.747049 0.608424 0.433056 0.066123
C83   C     C_3   0.750830 0.103802 0.568409 0.061336
C84   C     C_3   0.247049 0.108424 0.433056 0.066123
C85   C     C_3   0.256521 0.472552 0.554687 -0.256552
C86   C     C_3   0.755164 0.477048 0.445649 -0.264092
C87   C     C_3   0.756521 0.972552 0.554687 -0.256552
C88   C     C_3   0.255164 0.977048 0.445649 -0.264092
C89   C     C_R   0.262595 0.643500 0.855301 0.534735
C90   C     C_R   0.737389 0.643593 0.144675 0.535537
C91   C     C_R   0.762596 0.143502 0.855301 0.534736
C92   C     C_R   0.237389 0.143593 0.144675 0.535538
C93   C     C_3   0.307642 0.664680 0.524280 -0.226378
C94   C     C_3   0.681211 0.644061 0.475598 -0.214793
C95   C     C_3   0.807643 0.164680 0.524280 -0.226377
C96   C     C_3   0.181211 0.144061 0.475598 -0.214793
C97   C     C_R   0.272551 0.045415 0.646675 0.535030
C98   C     C_R   0.726348 0.042068 0.354697 0.538706
C99   C     C_R   0.772551 0.545415 0.646675 0.535030
C100  C     C_R   0.226348 0.542068 0.354697 0.538707
C101  C     C_R   0.469893 0.822824 0.646208 0.541129
C102  C     C_R   0.531996 0.822861 0.354983 0.543639
C103  C     C_R   0.969893 0.322824 0.646208 0.541129
C104  C     C_R   0.031996 0.322861 0.354983 0.543641
C105  C     C_R   0.260258 0.638728 0.644299 0.538079
C106  C     C_R   0.738799 0.641454 0.356842 0.540537
C107  C     C_R   0.760258 0.138728 0.644299 0.538079
C108  C     C_R   0.238799 0.141454 0.356842 0.540537
C109  C     C_3   0.478768 0.911120 0.034997 -0.135114
C110  C     C_3   0.521238 0.911126 0.964930 -0.135124
C111  C     C_3   0.978764 0.411115 0.035000 -0.135113
C112  C     C_3   0.021234 0.411132 0.964933 -0.135123
C113  C     C_3   0.432075 0.814222 0.004269 -0.151817
C114  C     C_3   0.567948 0.814271 0.995719 -0.152040
C115  C     C_3   0.932076 0.314213 0.004269 -0.151815
C116  C     C_3   0.067949 0.314281 0.995719 -0.152040
C117  C     C_3   0.474184 0.815985 0.935379 0.055852
C118  C     C_3   0.525839 0.816032 0.064610 0.055690
C119  C     C_3   0.974185 0.315987 0.935380 0.055850
C120  C     C_3   0.025840 0.316031 0.064610 0.055691
Cr1   Cr    Cr6+3 0.229620 0.836040 0.749110 0.988486
Cr2   Cr    Cr6+3 0.770380 0.836040 0.250890 0.989285
Cr3   Cr    Cr6+3 0.729620 0.336040 0.749110 0.988485
Cr4   Cr    Cr6+3 0.270380 0.336040 0.250890 0.989287
Cr5   Cr    Cr6+3 0.387630 0.990680 0.750730 0.981777
Cr6   Cr    Cr6+3 0.612370 0.990680 0.249270 0.982592
Cr7   Cr    Cr6+3 0.887630 0.490680 0.750730 0.981781
Cr8   Cr    Cr6+3 0.112370 0.490680 0.249270 0.982575
Cr9   Cr    Cr6+3 0.386020 0.676590 0.749210 0.989831
Cr10  Cr    Cr6+3 0.613980 0.676590 0.250790 0.990686
Cr11  Cr    Cr6+3 0.886020 0.176590 0.749210 0.989832
Cr12  Cr    Cr6+3 0.113980 0.176590 0.250790 0.990684
H1    H     H_    0.377309 0.811632 0.009575 0.087401
H2    H     H_    0.622713 0.811720 0.990380 0.087470
H3    H     H_    0.877310 0.311613 0.009573 0.087402
H4    H     H_    0.122713 0.311737 0.990377 0.087468
H5    H     H_    0.225864 0.777326 0.086695 0.099104
H6    H     H_    0.774112 0.777327 0.913130 0.098902
H7    H     H_    0.725847 0.277317 0.086695 0.099118
H8    H     H_    0.274106 0.277330 0.913130 0.098895
H9    H     H_    0.308680 0.733839 0.078391 0.104432
H10   H     H_    0.691291 0.733839 0.921539 0.104209
H11   H     H_    0.808669 0.233851 0.078395 0.104427
H12   H     H_    0.191287 0.233834 0.921541 0.104213
H13   H     H_    0.284687 0.798129 0.953718 0.091596
H14   H     H_    0.715378 0.798237 0.046125 0.091404
H15   H     H_    0.784682 0.298131 0.953721 0.091596
H16   H     H_    0.215377 0.298237 0.046125 0.091405
H17   H     H_    0.197009 0.759151 0.965661 0.141739
H18   H     H_    0.803033 0.759236 0.034161 0.141607
H19   H     H_    0.697004 0.259151 0.965657 0.141737
H20   H     H_    0.303033 0.259235 0.034157 0.141613
H21   H     H_    0.146685 0.578802 0.913507 0.128070
H22   H     H_    0.853310 0.578888 0.086488 0.128243
H23   H     H_    0.646687 0.078792 0.913504 0.128068
H24   H     H_    0.353310 0.078885 0.086489 0.128238
H25   H     H_    0.548515 0.642595 0.444454 0.137246
H26   H     H_    0.467587 0.633785 0.558137 0.136106
H27   H     H_    0.048515 0.142595 0.444454 0.137246
H28   H     H_    0.967587 0.133785 0.558137 0.136106
H29   H     H_    0.460756 0.656111 0.441222 0.113349
H30   H     H_    0.554852 0.669401 0.564274 0.117325
H31   H     H_    0.960756 0.156111 0.441222 0.113349
H32   H     H_    0.054852 0.169401 0.564274 0.117325
H33   H     H_    0.615826 0.897763 0.456879 0.111858
H34   H     H_    0.391127 0.825031 0.539560 0.111544
H35   H     H_    0.115826 0.397763 0.456879 0.111859
H36   H     H_    0.891127 0.325031 0.539560 0.111544
H37   H     H_    0.600644 0.861582 0.580697 0.103078
H38   H     H_    0.400944 0.828789 0.417938 0.106135
H39   H     H_    0.100644 0.361582 0.580697 0.103078
H40   H     H_    0.900944 0.328789 0.417938 0.106135
H41   H     H_    0.462079 0.982644 0.071026 0.106722
H42   H     H_    0.537914 0.982681 0.928873 0.106626
H43   H     H_    0.962075 0.482632 0.071034 0.106736
H44   H     H_    0.037908 0.482694 0.928879 0.106621
H45   H     H_    0.438251 0.972333 0.422512 0.110976
H46   H     H_    0.546394 0.990076 0.578867 0.115470
H47   H     H_    0.938251 0.472333 0.422512 0.110975
H48   H     H_    0.046394 0.490076 0.578867 0.115470
H49   H     H_    0.422124 0.973553 0.545075 0.129364
H50   H     H_    0.547976 0.000292 0.459111 0.120244
H51   H     H_    0.922124 0.473553 0.545075 0.129364
H52   H     H_    0.047976 0.500292 0.459111 0.120244
H53   H     H_    0.127534 0.608962 0.443763 0.136713
H54   H     H_    0.868701 0.636963 0.558884 0.135835
H55   H     H_    0.627535 0.108962 0.443763 0.136714
H56   H     H_    0.368701 0.136963 0.558884 0.135834
H57   H     H_    0.178303 0.732849 0.439682 0.113106
H58   H     H_    0.807723 0.750228 0.566033 0.115985
H59   H     H_    0.678302 0.232849 0.439682 0.113106
H60   H     H_    0.307723 0.250228 0.566033 0.115985
H61   H     H_    0.165336 0.736072 0.556665 0.135374
H62   H     H_    0.821924 0.756394 0.446242 0.136229
H63   H     H_    0.665336 0.236072 0.556665 0.135374
H64   H     H_    0.321924 0.256394 0.446242 0.136229
H65   H     H_    0.139246 0.588411 0.563863 0.117496
H66   H     H_    0.859534 0.619182 0.441733 0.113726
H67   H     H_    0.639246 0.088411 0.563863 0.117495
H68   H     H_    0.359534 0.119182 0.441733 0.113727
H69   H     H_    0.722689 0.881187 0.457238 0.111649
H70   H     H_    0.309356 0.928174 0.539878 0.112183
H71   H     H_    0.222689 0.381187 0.457238 0.111649
H72   H     H_    0.809356 0.428174 0.539878 0.112183
H73   H     H_    0.713905 0.924226 0.580580 0.102285
H74   H     H_    0.301720 0.943195 0.418630 0.105763
H75   H     H_    0.213905 0.424226 0.580580 0.102284
H76   H     H_    0.801720 0.443195 0.418630 0.105763
H77   H     H_    0.348769 0.606916 0.420734 0.111772
H78   H     H_    0.649838 0.578498 0.581084 0.115730
H79   H     H_    0.848769 0.106916 0.420734 0.111772
H80   H     H_    0.149838 0.078498 0.581084 0.115730
H81   H     H_    0.295156 0.734411 0.414947 0.104241
H82   H     H_    0.688158 0.723020 0.582838 0.102210
H83   H     H_    0.795156 0.234411 0.414947 0.104241
H84   H     H_    0.188158 0.223020 0.582838 0.102210
H85   H     H_    0.537749 0.638212 0.936021 0.117669
H86   H     H_    0.462293 0.638202 0.064075 0.117804
H87   H     H_    0.037757 0.138222 0.936016 0.117669
H88   H     H_    0.962302 0.138192 0.064070 0.117801
H89   H     H_    0.297911 0.754701 0.535072 0.112446
H90   H     H_    0.660723 0.729434 0.459555 0.111779
H91   H     H_    0.797911 0.254701 0.535072 0.112446
H92   H     H_    0.160723 0.229434 0.459555 0.111779
H93   H     H_    0.358769 0.635947 0.542806 0.129398
H94   H     H_    0.642434 0.576977 0.461497 0.120172
H95   H     H_    0.858769 0.135947 0.542806 0.129398
H96   H     H_    0.142434 0.076977 0.461497 0.120172
H97   H     H_    0.308331 0.430636 0.458161 0.120996
H98   H     H_    0.718984 0.401212 0.545705 0.130490
H99   H     H_    0.808331 0.930636 0.458161 0.120996
H100  H     H_    0.218984 0.901212 0.545705 0.130490
H101  H     H_    0.305782 0.440495 0.577681 0.115160
H102  H     H_    0.710666 0.427447 0.423629 0.110370
H103  H     H_    0.805782 0.940496 0.577681 0.115160
H104  H     H_    0.210666 0.927447 0.423629 0.110370
H105  H     H_    0.304573 0.429076 0.053671 0.127897
H106  H     H_    0.695476 0.429092 0.946494 0.127803
H107  H     H_    0.804579 0.929081 0.053672 0.127894
H108  H     H_    0.195481 0.929090 0.946495 0.127804
H109  H     H_    0.352715 0.551077 0.072466 0.111534
H110  H     H_    0.647279 0.550995 0.927529 0.111420
H111  H     H_    0.852715 0.051091 0.072468 0.111538
H112  H     H_    0.147279 0.050986 0.927528 0.111419
H113  H     H_    0.365640 0.594265 0.954380 0.144654
H114  H     H_    0.634363 0.594412 0.045582 0.144576
H115  H     H_    0.865640 0.094276 0.954381 0.144653
H116  H     H_    0.134363 0.094411 0.045581 0.144572
H117  H     H_    0.322162 0.459819 0.932811 0.108265
H118  H     H_    0.677782 0.459952 0.067285 0.108422
H119  H     H_    0.822167 0.959827 0.932812 0.108269
H120  H     H_    0.177782 0.959952 0.067285 0.108421
H121  H     H_    0.662104 0.959821 0.043641 0.100897
H122  H     H_    0.337857 0.959845 0.956453 0.100978
H123  H     H_    0.162102 0.459827 0.043643 0.100902
H124  H     H_    0.837856 0.459839 0.956456 0.100973
H125  H     H_    0.696541 0.950770 0.929276 0.094280
H126  H     H_    0.303441 0.950851 0.070814 0.094502
H127  H     H_    0.196535 0.450774 0.929277 0.094280
H128  H     H_    0.803442 0.450852 0.070816 0.094501
O1    O     O_R   0.214130 0.708570 0.829890 -0.531510
O2    O     O_R   0.785870 0.708570 0.170110 -0.530975
O3    O     O_R   0.714130 0.208570 0.829890 -0.531511
O4    O     O_R   0.285870 0.208570 0.170110 -0.530974
O5    O     O_R   0.446360 0.919990 0.675230 -0.506934
O6    O     O_R   0.553640 0.919990 0.324770 -0.507013
O7    O     O_R   0.946360 0.419990 0.675230 -0.506933
O8    O     O_R   0.053640 0.419990 0.324770 -0.507016
O9    O     O_R   0.457170 0.717300 0.668380 -0.531125
O10   O     O_R   0.542830 0.717300 0.331620 -0.531092
O11   O     O_R   0.957170 0.217300 0.668380 -0.531125
O12   O     O_R   0.042830 0.217300 0.331620 -0.531092
O13   O     O_R   0.320870 0.624890 0.673130 -0.511641
O14   O     O_R   0.679130 0.624890 0.326870 -0.511844
O15   O     O_R   0.820870 0.124890 0.673130 -0.511641
O16   O     O_R   0.179130 0.124890 0.326870 -0.511843
O17   O     O_3   0.334430 0.834430 0.749680 -0.278585
O18   O     O_3   0.665570 0.834430 0.250320 -0.281826
O19   O     O_3   0.834430 0.334430 0.749680 -0.278585
O20   O     O_3   0.165570 0.334430 0.250320 -0.281825
O21   O     O_R   0.236050 0.959150 0.825270 -0.516125
O22   O     O_R   0.763950 0.959150 0.174730 -0.515663
O23   O     O_R   0.736050 0.459150 0.825270 -0.516125
O24   O     O_R   0.263950 0.459150 0.174730 -0.515663
O25   O     O_R   0.332100 0.076650 0.832310 -0.537136
O26   O     O_R   0.667900 0.076650 0.167690 -0.536665
O27   O     O_R   0.832100 0.576650 0.832310 -0.537143
O28   O     O_R   0.167900 0.576650 0.167690 -0.536663
O29   O     O_R   0.446500 0.918620 0.826240 -0.521689
O30   O     O_R   0.553500 0.918620 0.173760 -0.521035
O31   O     O_R   0.946500 0.418620 0.826240 -0.521693
O32   O     O_R   0.053500 0.418620 0.173760 -0.521039
O33   O     O_R   0.457310 0.715830 0.831280 -0.523285
O34   O     O_R   0.542690 0.715830 0.168720 -0.522591
O35   O     O_R   0.957310 0.215830 0.831280 -0.523284
O36   O     O_R   0.042690 0.215830 0.168720 -0.522593
O37   O     O_R   0.321000 0.623520 0.824130 -0.518890
O38   O     O_R   0.679000 0.623520 0.175870 -0.518395
O39   O     O_R   0.821000 0.123520 0.824130 -0.518890
O40   O     O_R   0.179000 0.123520 0.175870 -0.518396
O41   O     O_R   0.213990 0.710040 0.667000 -0.533500
O42   O     O_R   0.786010 0.710040 0.333000 -0.533575
O43   O     O_R   0.713990 0.210040 0.667000 -0.533501
O44   O     O_R   0.286010 0.210040 0.333000 -0.533574
O45   O     O_R   0.235920 0.960520 0.674260 -0.511931
O46   O     O_R   0.764080 0.960520 0.325740 -0.512248
O47   O     O_R   0.735920 0.460520 0.674260 -0.511931
O48   O     O_R   0.264080 0.460520 0.325740 -0.512248
O49   O     O_R   0.331960 0.078120 0.669410 -0.535148
O50   O     O_R   0.668040 0.078120 0.330590 -0.535462
O51   O     O_R   0.831960 0.578120 0.669410 -0.535147
O52   O     O_R   0.168040 0.578120 0.330590 -0.535465
C121  C     C_3   0.602430 0.117809 0.043066 -0.220814
C122  C     C_3   0.597017 0.243009 0.075887 -0.290136
C123  C     C_3   0.524336 0.270762 0.101967 -0.464052
H129  H     H_    0.523982 0.358756 0.128062 0.142444
H130  H     H_    0.487128 0.273675 0.057507 0.145209
H131  H     H_    0.507275 0.204115 0.141642 0.158420
H132  H     H_    0.628599 0.254350 0.124172 0.199487
H133  H     H_    0.610571 0.309708 0.035260 0.134519
H134  H     H_    0.571538 0.123330 0.994075 0.112641
H135  H     H_    0.572925 0.060357 0.078941 0.191071
C124  C     C_3   0.397560 0.117823 0.956886 -0.220686
C125  C     C_3   0.402992 0.243001 0.923962 -0.290005
C126  C     C_3   0.475652 0.270641 0.897752 -0.464156
H136  H     H_    0.512938 0.273410 0.942139 0.145232
H137  H     H_    0.492592 0.204012 0.858053 0.158229
H138  H     H_    0.476034 0.358664 0.871647 0.142236
H139  H     H_    0.371354 0.254383 0.875718 0.199294
H140  H     H_    0.389532 0.309729 0.964565 0.134488
H141  H     H_    0.428453 0.123388 0.005873 0.112551
H142  H     H_    0.427050 0.060329 0.921057 0.191174
C127  C     C_3   0.102431 0.617819 0.043071 -0.220804
C128  C     C_3   0.097027 0.743021 0.075889 -0.290136
C129  C     C_3   0.024356 0.770769 0.101999 -0.464011
H143  H     H_    0.023994 0.858855 0.127997 0.142442
H144  H     H_    0.987104 0.773493 0.057563 0.145201
H145  H     H_    0.007357 0.704209 0.141771 0.158440
H146  H     H_    0.128622 0.754371 0.124164 0.199477
H147  H     H_    0.110564 0.809715 0.035253 0.134511
H148  H     H_    0.071538 0.623341 0.994080 0.112627
H149  H     H_    0.072922 0.560370 0.078947 0.191081
C130  C     C_3   0.897559 0.617813 0.956884 -0.220686
C131  C     C_3   0.902993 0.742999 0.923972 -0.290014
C132  C     C_3   0.975659 0.770658 0.897783 -0.464162
H150  H     H_    0.012929 0.773472 0.942185 0.145244
H151  H     H_    0.992624 0.704018 0.858101 0.158212
H152  H     H_    0.976035 0.858670 0.871663 0.142242
H153  H     H_    0.871364 0.754382 0.875721 0.199291
H154  H     H_    0.889522 0.809719 0.964576 0.134502
H155  H     H_    0.928457 0.623357 0.005867 0.112530
H156  H     H_    0.927044 0.560326 0.921046 0.191185

loop_
_geom_bond_atom_site_label_1
_geom_bond_atom_site_label_2
_ccdc_geom_bond_type
C82   C94   S    
C55   C59   S    
C35   H125  S    
C83   C87   S    
C73   C93   S    
C47   O31   A    
C42   C58   S    
C29   C89   S    
C16   H120  S    
C89   O37   A    
C48   C120  S    
C127  C128  S    
C24   H8    S    
C57   C102  S    
Cr6   O18   S    
Cr7   O7    S    
C85   H101  S    
C59   C104  S    
C63   H55   S    
Cr1   O17   S    
C5    C6    S    
Cr10  O10   S    
C109  H41   S    
Cr4   O4    S    
Cr12  O16   S    
C29   C33   S    
C87   H103  S    
C30   C38   S    
C77   C100  S    
C9    C13   S    
C87   H73   S    
C11   C15   S    
C128  H146  S    
C5    H85   S    
C12   C16   S    
C125  C126  S    
C98   O50   A    
C99   O47   A    
C103  O7    A    
C60   C103  S    
C107  O15   A    
Cr4   O24   S    
C83   C107  S    
C113  H1    S    
C74   H82   S    
C61   H57   S    
C54   H37   S    
C23   H11   S    
C17   C127  S    
C66   H62   S    
C109  C118  S    
C16   H116  S    
C70   H72   S    
Cr5   O25   S    
C50   C53   S    
C75   C95   S    
C124  C125  S    
C7    C119  S    
Cr8   O28   S    
C62   H58   S    
C129  H144  S    
C62   C66   S    
Cr2   O2    S    
C92   O40   A    
C18   H124  S    
C122  C123  S    
Cr12  O36   S    
C43   C44   S    
C96   H96   S    
C66   C82   S    
Cr9   O33   S    
C130  H156  S    
C58   C101  S    
C105  O41   A    
C132  H152  S    
C92   O4    A    
C107  O43   A    
C53   H38   S    
C116  H4    S    
C108  O44   A    
C56   H39   S    
C89   O1    A    
Cr5   O49   S    
C55   H40   S    
C91   O3    A    
C131  H153  S    
Cr1   O45   S    
Cr5   O5    S    
Cr2   O42   S    
C3    C26   S    
C84   C88   S    
C31   C91   S    
C53   H45   S    
Cr12  O12   S    
C13   H117  S    
Cr10  O34   S    
C17   C25   S    
C19   C35   S    
C76   C96   S    
C1    O21   A    
C32   C92   S    
C75   H83   S    
Cr3   O19   S    
C95   H95   S    
C21   H9    S    
C129  H143  S    
C61   C65   S    
C12   H108  S    
C78   C99   S    
C45   O29   A    
C129  H145  S    
C75   C79   S    
Cr5   O29   S    
C22   C38   S    
C67   C83   S    
C80   C97   S    
C11   H111  S    
C69   C77   S    
C111  C112  S    
C9    H109  S    
C71   C79   S    
C4    C25   S    
Cr4   O20   S    
C7    C8    S    
Cr10  O38   S    
Cr4   O44   S    
C64   C68   S    
C73   H77   S    
C44   C60   S    
C43   H27   S    
C100  O52   A    
C33   H21   S    
C39   H19   S    
C49   C57   S    
C40   H20   S    
Cr11  O11   S    
Cr9   O37   S    
C126  H137  S    
C38   H14   S    
C52   C60   S    
C19   H121  S    
C61   C77   S    
C12   H112  S    
C93   H93   S    
C36   H126  S    
C47   O35   A    
C110  C114  S    
C18   C130  S    
C48   O36   A    
C43   C59   S    
C62   H54   S    
C76   H80   S    
C10   H106  S    
C6    H86   S    
C88   H74   S    
C22   H10   S    
Cr1   O21   S    
Cr2   O18   S    
C110  H42   S    
Cr12  O20   S    
C81   C105  S    
C30   C34   S    
C10   C14   S    
C128  C129  S    
C125  H139  S    
C101  O9    A    
C95   H91   S    
C116  C120  S    
C103  O11   A    
C7    C116  S    
C69   H97   S    
C20   C124  S    
C33   H127  S    
C61   H53   S    
C114  H2    S    
C34   H128  S    
C66   H66   S    
C64   H56   S    
C113  C117  S    
C112  H44   S    
C127  H149  S    
C115  C119  S    
Cr6   O26   S    
C9    H105  S    
Cr4   O48   S    
Cr10  O14   S    
C112  C116  S    
C69   C85   S    
C85   H75   S    
C72   H70   S    
C56   H48   S    
C45   C117  S    
C122  H132  S    
C21   C25   S    
C123  H131  S    
C71   H99   S    
Cr12  O40   S    
C55   H47   S    
C62   C78   S    
C76   C80   S    
C42   H30   S    
C15   C31   S    
C16   C32   S    
C97   O45   A    
C105  O13   A    
C106  O42   A    
C72   C80   S    
C115  H3    S    
C4    O24   A    
C82   C106  S    
C90   O2    A    
Cr6   O50   S    
C128  H147  S    
Cr8   O32   S    
C51   C59   S    
C131  C132  S    
Cr2   O46   S    
Cr6   O6    S    
C124  H142  S    
C46   O34   A    
Cr7   O19   S    
Cr8   O20   S    
C81   C85   S    
C13   H113  S    
C41   H29   S    
C41   C42   S    
C74   C94   S    
Cr9   O13   S    
C18   C26   S    
C121  H135  S    
C30   C90   S    
Cr11  O39   S    
C1    O25   A    
C9    C25   S    
C2    O22   A    
C3    O27   A    
C75   H79   S    
C86   H102  S    
C12   C28   S    
C13   C29   S    
C67   H67   S    
C98   O46   A    
C46   C118  S    
C73   C77   S    
C64   H60   S    
Cr6   O30   S    
C51   H35   S    
C130  H155  S    
C50   H34   S    
C1    C28   S    
C2    C27   S    
C132  H151  S    
C72   H100  S    
Cr11  O19   S    
C52   C55   S    
C123  H129  S    
C64   C80   S    
C73   H81   S    
C42   H26   S    
C17   C33   S    
C110  C117  S    
C38   H18   S    
C65   H61   S    
C34   H22   S    
C131  H154  S    
C40   H16   S    
C68   C84   S    
C24   C28   S    
C51   H52   S    
C86   H76   S    
C53   C57   S    
C82   C86   S    
C56   C60   S    
C50   C58   S    
C104  O12   A    
C49   H33   S    
C48   O32   A    
Cr7   O27   S    
C76   H84   S    
C65   C81   S    
C91   O39   A    
Cr8   O8    S    
C68   H64   S    
C20   H122  S    
Cr2   O22   S    
C41   H25   S    
C15   H115  S    
C44   H28   S    
C31   C35   S    
C32   C36   S    
C36   H24   S    
C101  O5    A    
C102  O10   A    
C37   H17   S    
C108  O16   A    
C112  C119  S    
C14   H118  S    
C20   C28   S    
C22   H6    S    
C41   C57   S    
C109  C110  S    
C121  C122  S    
Cr5   O17   S    
C24   H12   S    
C63   H59   S    
C84   C108  S    
C126  H136  S    
C94   H94   S    
C20   C36   S    
C54   H46   S    
C21   C37   S    
C22   C26   S    
C29   C37   S    
C44   H32   S    
C11   H107  S    
C43   H31   S    
C130  C131  S    
C97   O49   A    
C5    C114  S    
C70   C78   S    
C79   C98   S    
C99   O51   A    
C10   H110  S    
C52   H51   S    
C63   C79   S    
C4    O28   A    
C74   H78   S    
C111  H43   S    
C23   H7    S    
C46   O30   A    
C125  H140  S    
C49   C54   S    
Cr3   O47   S    
C51   C56   S    
C84   C96   S    
C8    C115  S    
Cr1   O1    S    
Cr3   O3    S    
C96   H92   S    
Cr9   O17   S    
C11   C27   S    
C19   C27   S    
C74   C78   S    
C109  C113  S    
C2    O26   A    
C7    H87   S    
C10   C26   S    
C47   C119  S    
C127  H148  S    
C14   C30   S    
C67   H63   S    
C72   C88   S    
C122  H133  S    
C88   H104  S    
C63   C67   S    
C123  H130  S    
Cr7   O31   S    
Cr1   O41   S    
C21   H5    S    
C5    C117  S    
C111  C120  S    
Cr10  O18   S    
C126  H138  S    
Cr3   O43   S    
C70   H98   S    
C6    C113  S    
Cr11  O15   S    
C8    H88   S    
C81   C93   S    
C83   C95   S    
Cr11  O35   S    
C19   C121  S    
C18   C34   S    
C114  C118  S    
C65   H65   S    
C69   H71   S    
C23   C27   S    
C71   C87   S    
C50   H49   S    
C124  H141  S    
C70   C86   S    
C8    C120  S    
C94   H90   S    
C54   C58   S    
C71   H69   S    
C17   H123  S    
C45   O33   A    
C104  O8    A    
C121  H134  S    
C111  C115  S    
Cr7   O51   S    
Cr8   O52   S    
C68   H68   S    
Cr3   O23   S    
C52   H36   S    
C106  O14   A    
C90   O38   A    
C15   H119  S    
C23   C39   S    
C3    O23   A    
C24   C40   S    
C31   C39   S    
C32   C40   S    
Cr9   O9    S    
C49   H50   S    
C100  O48   A    
C102  O6    A    
C39   H15   S    
C93   H89   S    
C37   H13   S    
C132  H150  S    
C6    C118  S    
C35   H23   S    
C14   H114  S    
