data_mof_unit_17384.cif
_audit_creation_date              2012-12-11T18:37:48-0500
_audit_creation_method            fapswitch 2.2
_symmetry_space_group_name_H-M    P1
_symmetry_Int_Tables_number       1
_space_group_crystal_system       triclinic
_cell_length_a                    8.356419
_cell_length_b                    14.409298
_cell_length_c                    26.918883
_cell_angle_alpha                 93.902445
_cell_angle_beta                  93.069402
_cell_angle_gamma                 88.222806
_cell_volume                      3227.93295724

loop_
_atom_site_label
_atom_site_type_symbol
_atom_type_description
_atom_site_fract_x
_atom_site_fract_y
_atom_site_fract_z
_atom_type_partial_charge
Ba1   Ba    Ba6+2 0.849670 0.455410 0.524690 1.887050
Ba2   Ba    Ba6+2 0.340150 0.544510 0.475310 1.774225
C1    C     C_3   0.605529 0.143409 0.704290 -0.090860
C2    C     C_R   0.893023 0.576790 0.176189 0.585197
C3    C     C_2   0.736854 0.518026 0.269724 -0.101809
C4    C     C_3   0.137124 0.176786 0.665731 0.362163
C5    C     C_3   0.695649 0.511906 0.323600 -0.017414
C6    C     C_1   0.977895 0.479605 0.343228 0.006534
C7    C     C_2   0.016492 0.480957 0.295882 -0.124089
C8    C     C_2   0.889297 0.501305 0.255937 0.199030
C9    C     C_R   0.003322 0.496399 0.102195 -0.082951
C10   C     C_R   0.026272 0.416129 0.129142 -0.036992
C11   C     C_R   0.077763 0.333333 0.103945 -0.052357
C12   C     C_3   0.617231 0.207471 0.661248 0.471674
C13   C     C_R   0.935691 0.577161 0.125996 -0.030353
C14   C     C_2   0.841978 0.516854 0.358504 -0.281539
C15   C     C_2   0.352680 0.481053 0.642323 0.393540
C16   C     C_3   0.065391 0.133955 0.710686 0.639996
C17   C     C_R   0.164870 0.413171 0.977773 0.024618
C18   C     C_R   0.049582 0.572431 0.972162 -0.052787
C19   C     C_R   0.123673 0.491361 0.949333 0.038024
C20   C     C_R   0.260703 0.339749 0.954874 0.117416
C21   C     C_R   0.281883 0.335998 0.903728 0.009619
C22   C     C_R   0.230638 0.409064 0.874600 -0.058653
C23   C     C_3   0.565373 0.688523 0.627661 0.867087
C24   C     C_R   0.159271 0.489057 0.897704 -0.158550
C25   C     C_R   0.123983 0.566545 0.869156 -0.119715
C26   C     C_R   0.166753 0.563427 0.818523 0.657514
C27   C     C_R   0.258151 0.405045 0.823181 0.722269
C28   C     C_3   0.170048 0.262009 0.426657 0.320916
C29   C     C_2   0.422857 0.442330 0.730070 0.509092
C30   C     C_3   0.443650 0.415927 0.675518 -0.191977
C31   C     C_1   0.213688 0.518398 0.656282 0.029035
C32   C     C_2   0.166677 0.515996 0.702948 -0.278803
C33   C     C_2   0.279172 0.480117 0.743773 0.124174
C34   C     C_3   0.642825 0.707961 0.680434 0.085247
C35   C     C_R   0.111801 0.412800 0.027581 0.018783
C36   C     C_R   0.044770 0.495179 0.051107 0.060368
C37   C     C_R   0.015606 0.575590 0.023853 0.044698
C38   C     C_R   0.113477 0.331146 0.053909 -0.110389
C39   C     C_R   0.911100 0.656622 0.099063 -0.049029
C40   C     C_3   0.223328 0.160939 0.414843 0.624796
C41   C     C_R   0.011772 0.647929 0.942190 -0.136750
C42   C     C_R   0.048994 0.645580 0.892218 0.654333
C43   C     C_R   0.950800 0.656207 0.049403 -0.095390
C44   C     C_R   0.697209 0.066665 0.479495 0.047915
C45   C     C_3   0.189099 0.754819 0.339925 0.331454
C46   C     C_R   0.521310 0.202451 0.506961 -0.015598
C47   C     C_R   0.390553 0.235169 0.534449 0.253348
C48   C     C_R   0.290616 0.172973 0.554417 -0.131210
C49   C     C_R   0.330312 0.078683 0.552546 0.528834
C50   C     C_R   0.469451 0.044205 0.529451 -0.102237
C51   C     C_R   0.563692 0.105145 0.504756 -0.262785
C52   C     C_3   0.026940 0.741851 0.577845 0.370228
C53   C     C_R   0.643784 0.910676 0.503974 -0.169917
C54   C     C_R   0.741685 0.971530 0.480619 -0.152833
C55   C     C_R   0.683605 0.813710 0.500794 0.041472
C56   C     C_3   0.211271 0.788257 0.287681 -0.146999
C57   C     C_R   0.818472 0.780242 0.476282 -0.423529
C58   C     C_R   0.923406 0.840648 0.457984 -0.015247
C59   C     C_R   0.884070 0.936222 0.459072 0.578604
C60   C     C_R   0.510736 0.949017 0.529483 0.697307
C61   C     C_3   0.018001 0.846331 0.591011 0.500815
C62   C     C_3   0.650300 0.291573 0.369102 0.354706
C63   C     C_3   0.721915 0.220556 0.328883 0.757504
C64   C     C_3   0.640709 0.770490 0.346766 0.426621
C65   C     C_3   0.611901 0.869474 0.326804 0.077766
C66   C     C_R   0.991031 0.419314 0.180149 0.595854
F1    F     F_    0.111053 0.115053 0.383656 -0.550349
F2    F     F_    0.985211 0.994461 0.439843 -0.638390
F3    F     F_    0.982367 0.201087 0.739118 -0.656552
F4    F     F_    0.421029 0.895645 0.555951 -0.655231
F5    F     F_    0.901787 0.867229 0.625031 -0.720520
F6    F     F_    0.826573 0.161062 0.353521 -0.597835
F7    F     F_    0.401867 0.683469 0.630232 -0.728385
F8    F     F_    0.537628 0.416456 0.764581 -0.656970
F9    F     F_    0.008854 0.721535 0.866487 -0.638518
F10   F     F_    0.410913 0.496598 0.597523 -0.644670
F11   F     F_    0.350973 0.327203 0.537749 -0.669243
F12   F     F_    0.226841 0.020623 0.571059 -0.685707
H1    H     H_    0.337666 0.157875 0.395900 -0.028590
H2    H     H_    0.615843 0.620975 0.612449 0.018455
H3    H     H_    0.775210 0.707600 0.677289 0.118096
H4    H     H_    0.546232 0.183089 0.735389 0.136838
H5    H     H_    0.308272 0.742883 0.358312 0.061489
H6    H     H_    0.124451 0.688243 0.336576 0.031780
H7    H     H_    0.304720 0.744500 0.269049 0.136606
H8    H     H_    0.251061 0.861276 0.290489 0.148792
H9    H     H_    0.601646 0.773876 0.385752 0.010331
H10   H     H_    0.549462 0.861571 0.289259 0.139826
H11   H     H_    0.138197 0.464170 0.285579 0.127751
H12   H     H_    0.240199 0.124175 0.449625 -0.078094
H13   H     H_    0.086744 0.268845 0.122528 0.132299
H14   H     H_    0.350665 0.277691 0.887407 0.142681
H15   H     H_    0.136566 0.263457 0.036072 0.086610
H16   H     H_    0.640929 0.528962 0.241731 0.108771
H17   H     H_    0.861048 0.720286 0.116452 0.133916
H18   H     H_    0.951247 0.710608 0.956094 0.111434
H19   H     H_    0.236606 0.130363 0.652429 0.030589
H20   H     H_    0.047364 0.541165 0.712001 0.175551
H21   H     H_    0.929900 0.721127 0.032287 0.081452
H22   H     H_    0.830348 0.542472 0.397069 0.069375
H23   H     H_    0.906506 0.717031 0.565799 -0.119118
H24   H     H_    0.847875 0.706407 0.474214 0.067710
H25   H     H_    0.768867 0.109658 0.458761 0.209993
H26   H     H_    0.979695 0.079935 0.696129 0.052060
H27   H     H_    0.273646 0.300268 0.444113 -0.062532
H28   H     H_    0.072834 0.263973 0.453131 0.057068
H29   H     H_    0.763543 0.107548 0.625970 0.217941
H30   H     H_    0.716587 0.200724 0.592871 0.207147
H31   H     H_    0.534787 0.364150 0.312526 0.095742
H32   H     H_    0.413721 0.303868 0.344398 0.191453
H33   H     H_    0.738885 0.310019 0.271948 0.118943
H34   H     H_    0.110397 0.727725 0.547337 -0.010348
H35   H     H_    0.902570 0.304405 0.311361 0.183476
H36   H     H_    0.531011 0.132115 0.327735 0.208767
H37   H     H_    0.520829 0.204421 0.280545 0.134862
H38   H     H_    0.510626 0.021424 0.720073 0.197040
H39   H     H_    0.577767 0.018887 0.663044 0.228444
H40   H     H_    0.636930 0.851286 0.683344 0.242573
H41   H     H_    0.466253 0.805384 0.700283 0.233887
H42   H     H_    0.484714 0.641287 0.720884 0.203912
H43   H     H_    0.672932 0.644324 0.746115 0.240977
H44   H     H_    0.279027 0.134460 0.752926 0.198446
H45   H     H_    0.988661 0.884632 0.557331 -0.013416
H46   H     H_    0.232198 0.030010 0.723197 0.157838
H47   H     H_    0.975791 0.824149 0.272254 0.258325
H48   H     H_    0.028877 0.713226 0.254041 0.209190
H49   H     H_    0.836151 0.699047 0.375107 0.103094
H50   H     H_    0.833217 0.706086 0.312963 0.189913
H51   H     H_    0.735446 0.978342 0.303823 0.253940
H52   H     H_    0.816256 0.934033 0.355892 0.263912
H53   H     H_    0.567493 0.938929 0.394388 0.168383
H54   H     H_    0.403614 0.896238 0.363940 0.198209
H55   H     H_    0.277444 0.266263 0.710523 0.173437
H56   H     H_    0.135625 0.869745 0.607613 0.152396
H57   H     H_    0.101706 0.314596 0.689635 0.240885
H58   H     H_    0.308261 0.213013 0.983025 0.188524
H59   H     H_    0.394180 0.305928 0.018301 0.189246
H60   H     H_    0.745146 0.339189 0.384775 -0.030212
H61   H     H_    0.726407 0.121680 0.718668 0.168339
H62   H     H_    0.493758 0.234208 0.652310 -0.049540
N1    N     N_R   0.926965 0.499627 0.203470 -0.425951
N2    N     N_3   0.186165 0.089020 0.742855 -0.449410
N3    N     N_3   0.064926 0.782079 0.255922 -0.463843
N4    N     N_3   0.810353 0.743407 0.346586 -0.478582
N5    N     N_3   0.762239 0.916185 0.320794 -0.449983
N6    N     N_3   0.510166 0.929348 0.359108 -0.492123
N7    N     N_3   0.197131 0.269707 0.679652 -0.537499
N8    N     N_3   0.362332 0.277334 0.982564 -0.499120
N9    N     N_R   0.233752 0.483110 0.795871 -0.415276
N10   N     N_3   0.671340 0.154741 0.616597 -0.518922
N11   N     N_3   0.514514 0.345520 0.348290 -0.491795
N12   N     N_3   0.812659 0.265441 0.292583 -0.411650
N13   N     N_3   0.598418 0.163345 0.302170 -0.449784
N14   N     N_3   0.514044 0.060627 0.688882 -0.536119
N15   N     N_3   0.591377 0.798810 0.703067 -0.449746
N16   N     N_3   0.605405 0.634396 0.712423 -0.494936
O1    O     O_2   0.918080 0.549800 0.616640 -0.516176
O2    O     O_2   0.259861 0.835029 0.455594 -0.451140
O3    O     O_3   0.105778 0.823025 0.368619 -0.568462
O4    O     O_3   0.150070 0.549720 0.556460 -0.393848
O5    O     O_3   0.546340 0.387390 0.478340 -0.385082
O6    O     O_2   0.398940 0.728800 0.517420 -0.386329
O7    O     O_3   0.597566 0.762010 0.598630 -0.600057
O8    O     O_2   0.372219 0.565228 0.324914 -0.499623
O9    O     O_3   0.550687 0.705562 0.316010 -0.640154
O10   O     O_2   0.014849 0.349970 0.203525 -0.577937
O11   O     O_2   0.303057 0.331294 0.802663 -0.550418
O12   O     O_3   0.593756 0.238406 0.405741 -0.659040
O13   O     O_2   0.825007 0.645213 0.195485 -0.597729
O14   O     O_2   0.146497 0.632676 0.794941 -0.500786
O15   O     O_3   0.658250 0.379560 0.591530 -0.408702
O16   O     O_2   0.774598 0.458271 0.677621 -0.451215
O17   O     O_3   0.082245 0.698406 0.620421 -0.569985
O18   O     O_3   0.726280 0.278745 0.676520 -0.527837
O19   O     O_2   0.790750 0.271170 0.482550 -0.479942
O20   O     O_3   0.062300 0.331660 0.568480 -0.417873
O21   O     O_2   0.969683 0.167902 0.532244 -0.458510
O22   O     O_3   0.014714 0.182196 0.628102 -0.586760
O23   O     O_2   0.271610 0.450170 0.383330 -0.440775
O24   O     O_3   0.039630 0.450200 0.443530 -0.490274
O25   O     O_3   0.531440 0.620360 0.408460 -0.489315
O26   O     O_3   0.113969 0.300789 0.382482 -0.613611
O27   O     O_3   0.643350 0.612530 0.521650 -0.481329
O28   O     O_3   0.127390 0.668260 0.431510 -0.517940
P1    P     P_3+3 0.090020 0.577590 0.608380 1.155621
P2    P     P_3+3 0.614340 0.285150 0.467650 1.065101
P3    P     P_3+3 0.088895 0.212315 0.571959 1.089366
P4    P     P_3+3 0.099670 0.422330 0.391610 1.012896
P5    P     P_3+3 0.107173 0.790721 0.430361 1.023593
P6    P     P_3+3 0.651881 0.385860 0.656373 1.147630
P7    P     P_3+3 0.581972 0.728614 0.534690 1.115552
P8    P     P_3+3 0.539776 0.599124 0.343838 0.942273

loop_
_geom_bond_atom_site_label_1
_geom_bond_atom_site_label_2
_ccdc_geom_bond_type
C59   F2    S    
C53   C54   A    
C12   H62   S    
H39   N14   S    
C2    O13   D    
C28   H27   S    
H50   N4    S    
C1    H61   S    
C41   H18   S    
H33   N12   S    
O3    P5    S    
C56   H7    S    
Ba2   O4    S    
C2    N1    Am   
C20   N8    S    
C56   N3    S    
C55   P7    S    
H58   N8    S    
C10   C66   A    
Ba1   O15   S    
C24   C25   A    
C63   N12   S    
O19   P2    D    
C33   N9    S    
C64   O9    S    
C57   H24   S    
C45   H5    S    
C42   F9    S    
C17   C19   A    
C22   C24   A    
C32   C33   S    
C35   C38   A    
H30   N10   S    
O22   P3    S    
O4    P1    S    
H48   N3    S    
O18   P6    S    
C52   C61   S    
C34   H3    S    
C44   H25   S    
O25   P8    S    
C30   P6    S    
C66   N1    Am   
Ba1   Ba2   S    
Ba2   O24   S    
O1    P1    D    
O28   P5    S    
C48   P3    S    
C22   C27   A    
C15   F10   S    
H36   N13   S    
C12   O18   S    
C17   C35   A    
C49   F12   S    
C4    N7    S    
Ba1   O19   S    
C25   C42   A    
C26   O14   D    
C6    P4    S    
C6    C7    D    
C11   C38   A    
H37   N13   S    
C32   H20   S    
C21   C22   A    
H38   N14   S    
C7    C8    S    
H44   N2    S    
C34   N16   S    
C37   C43   A    
C4    O22   S    
C64   C65   S    
C57   C58   A    
C6    C14   D    
H41   N15   S    
O23   P4    D    
H57   N7    S    
C40   H1    S    
C15   C31   D    
C19   C24   A    
C31   C32   D    
C64   H9    S    
Ba1   P1    S    
C46   C51   A    
C4    C16   S    
C49   C50   A    
C45   H6    S    
Ba2   P4    S    
C52   H23   S    
Ba1   O1    S    
C17   C20   A    
C36   C37   A    
C13   C39   A    
Ba2   O6    S    
C3    C5    S    
O20   P3    S    
O6    P7    D    
C61   F5    S    
C23   O7    S    
H55   N7    S    
C62   N11   S    
C65   H10   S    
C63   F6    S    
C47   F11   S    
C11   H13   S    
O5    P2    S    
C23   F7    S    
Ba2   O23   S    
C52   O17   S    
C9    C36   A    
C41   C42   A    
Ba2   O28   S    
C35   C36   A    
C27   N9    Am   
O15   P6    S    
Ba1   O20   S    
C29   C30   S    
O21   P3    D    
C9    C10   A    
H29   N10   S    
C44   C51   A    
C48   C49   A    
H42   N16   S    
C60   F4    S    
C31   P1    S    
H53   N6    S    
C18   C19   A    
C5    P8    S    
H51   N5    S    
H31   N11   S    
H49   N4    S    
C61   H45   S    
C1    C12   S    
C43   H21   S    
C34   N15   S    
H47   N3    S    
C66   O10   D    
C14   H22   S    
C46   C47   A    
Ba1   O4    S    
C9    C13   A    
H32   N11   S    
C53   C55   A    
H35   N12   S    
C65   N5    S    
C23   H2    S    
O9    P8    S    
C39   H17   S    
C7    H11   S    
O7    P7    S    
C38   H15   S    
O12   P2    S    
C65   N6    S    
C3    H16   S    
C50   C51   A    
C62   H60   S    
Ba1   P2    S    
C16   F3    S    
C18   C37   A    
C5    C14   S    
O26   P4    S    
H59   N8    S    
C28   H28   S    
C54   C59   A    
H52   N5    S    
C28   O26   S    
C28   C40   S    
O8    P8    D    
O2    P5    D    
O27   P7    S    
C56   H8    S    
Ba2   O5    S    
Ba1   O24   S    
C46   P2    S    
H43   N16   S    
Ba1   O27   S    
H54   N6    S    
C44   C54   A    
C21   H14   S    
C4    H19   S    
C2    C13   A    
C16   N2    S    
Ba2   O27   S    
C3    C8    D    
C63   N13   S    
C50   C60   A    
C61   H56   S    
C45   C56   S    
C29   F8    S    
H40   N15   S    
C16   H26   S    
C29   C33   D    
C58   P5    S    
C53   C60   A    
C52   H34   S    
C62   C63   S    
H46   N2    S    
C1    N14   S    
C40   H12   S    
C8    N1    S    
C40   F1    S    
C62   O12   S    
C18   C41   A    
C64   N4    S    
C55   C57   A    
C23   C34   S    
O17   P1    S    
C45   O3    S    
C10   C11   A    
Ba1   O5    S    
C26   N9    Am   
C47   C48   A    
C12   N10   S    
C1    H4    S    
C15   C30   S    
C39   C43   A    
C20   C21   A    
C58   C59   A    
O24   P4    S    
C27   O11   D    
Ba2   O25   S    
O16   P6    D    
C25   C26   A    
