data_mof_unit_35268.cif
_audit_creation_date              2012-12-10T19:00:42-0500
_audit_creation_method            fapswitch 2.2
_symmetry_space_group_name_H-M    P1
_symmetry_Int_Tables_number       1
_space_group_crystal_system       triclinic
_cell_length_a                    15.086625
_cell_length_b                    10.823947
_cell_length_c                    9.531588
_cell_angle_alpha                 89.923478
_cell_angle_beta                  90.004747
_cell_angle_gamma                 90.165448
_cell_volume                      1556.47021743

loop_
_atom_site_label
_atom_site_type_symbol
_atom_type_description
_atom_site_fract_x
_atom_site_fract_y
_atom_site_fract_z
_atom_type_partial_charge
C1    C     C_R   0.501560 0.262262 0.500025 0.801433
C2    C     C_R   0.907228 0.496912 0.628513 0.109571
C3    C     C_R   0.953860 0.497241 0.244317 -0.209336
C4    C     C_R   0.046272 0.497708 0.244294 -0.210779
C5    C     C_R   0.092957 0.498002 0.371480 0.108046
C6    C     C_R   0.046557 0.497647 0.500017 0.062961
C7    C     C_R   0.092971 0.497764 0.628551 0.108714
C8    C     C_R   0.046298 0.497242 0.755739 -0.211369
C9    C     C_R   0.953884 0.496785 0.755723 -0.209437
C10   C     C_R   0.185307 0.498693 0.372382 -0.245947
C11   C     C_R   0.231696 0.499026 0.500009 -0.075854
C12   C     C_R   0.328574 0.499720 0.500007 0.814595
C13   C     C_R   0.185322 0.498449 0.627641 -0.250006
C14   C     C_R   0.513095 0.063354 0.625627 0.137926
C15   C     C_R   0.510406 0.129198 0.499674 -0.096785
C16   C     C_R   0.520444 0.064638 0.372689 -0.217443
C17   C     C_R   0.520417 0.935858 0.372580 -0.217825
C18   C     C_R   0.510435 0.870803 0.499454 -0.096842
C19   C     C_R   0.513061 0.936193 0.625492 0.120271
C20   C     C_3   0.453349 0.929089 0.750265 -0.461887
C21   C     C_3   0.453512 0.069369 0.750582 -0.483461
C22   C     C_R   0.531332 0.599886 0.073480 0.258299
C23   C     C_R   0.501621 0.737718 0.499866 0.803471
C24   C     C_R   0.460003 0.407932 0.074591 -0.086730
C25   C     C_R   0.459887 0.408031 0.925635 -0.086560
C26   C     C_R   0.531364 0.599822 0.926099 0.258532
C27   C     C_3   0.622530 0.652863 0.919932 -0.504546
C28   C     C_3   0.622534 0.652966 0.079228 -0.507251
C29   C     C_R   0.671469 0.499354 0.500000 0.815978
C30   C     C_R   0.814885 0.496923 0.627560 -0.243788
C31   C     C_R   0.768426 0.497868 0.500017 -0.074546
C32   C     C_R   0.814878 0.497145 0.372481 -0.243499
C33   C     C_R   0.907218 0.497139 0.371529 0.109571
C34   C     C_R   0.953639 0.497251 0.500020 0.060963
Cu1   Cu    Cu3+1 0.500000 0.499980 0.640670 0.940164
Cu2   Cu    Cu3+1 0.500000 0.500020 0.359330 0.939623
H1    H     H_    0.779428 0.496034 0.726298 0.146609
H2    H     H_    0.523668 0.888012 0.272997 0.158435
H3    H     H_    0.387516 0.888215 0.725138 0.200883
H4    H     H_    0.487034 0.888553 0.843205 0.191708
H5    H     H_    0.387742 0.110209 0.725936 0.195091
H6    H     H_    0.487554 0.109357 0.843552 0.193672
H7    H     H_    0.428935 0.332313 0.130382 0.139330
H8    H     H_    0.428487 0.332768 0.870028 0.138403
H9    H     H_    0.623384 0.747158 0.873664 0.193735
H10   H     H_    0.671548 0.588050 0.124749 0.211498
H11   H     H_    0.779416 0.496436 0.273743 0.146536
H12   H     H_    0.623422 0.747371 0.124859 0.190060
H13   H     H_    0.918885 0.497156 0.144994 0.136535
H14   H     H_    0.081210 0.497918 0.144950 0.136345
H15   H     H_    0.220915 0.498989 0.273568 0.155866
H16   H     H_    0.220944 0.498548 0.726453 0.155471
H17   H     H_    0.081247 0.497270 0.855079 0.136341
H18   H     H_    0.918919 0.496527 0.855049 0.136581
H19   H     H_    0.523852 0.112877 0.273152 0.162219
N1    N     N_R   0.500570 0.500930 0.147930 -0.184249
N2    N     N_R   0.500570 0.500890 0.852020 -0.183802
O1    O     O_R   0.500000 0.319640 0.618810 -0.583260
O2    O     O_R   0.500010 0.319680 0.381230 -0.591357
O3    O     O_R   0.370250 0.499950 0.618800 -0.587964
O4    O     O_R   0.370260 0.499990 0.381220 -0.584962
O5    O     O_R   0.499990 0.680320 0.618770 -0.579887
O6    O     O_R   0.500000 0.680360 0.381190 -0.585252
O7    O     O_R   0.629740 0.500010 0.618780 -0.585918
O8    O     O_R   0.629750 0.500050 0.381200 -0.585874
H20   H     H_    0.671509 0.587832 0.874746 0.210984

loop_
_geom_bond_atom_site_label_1
_geom_bond_atom_site_label_2
_ccdc_geom_bond_type
C8    H17   S    
C11   C12   S    
C6    C7    A    
C1    C15   S    
C24   N1    A    
Cu2   O6    S    
C19   C20   S    
Cu1   N2    S    
C30   C31   A    
C2    C30   A    
Cu2   O2    S    
C32   C33   A    
C27   H9    S    
C23   O6    A    
C17   C18   A    
C3    H13   S    
C16   H19   S    
C5    C10   A    
C29   C31   S    
C27   H20   S    
C22   C28   S    
C1    O1    A    
C24   C25   A    
C12   O4    A    
C11   C13   A    
C28   H10   S    
C26   C27   S    
Cu1   O7    S    
C25   N2    A    
Cu1   O1    S    
C29   O8    A    
C10   H15   S    
C14   C21   S    
Cu2   N1    S    
C32   H11   S    
C33   C34   A    
Cu1   O5    S    
C17   H2    S    
C1    O2    A    
Cu2   O4    S    
C5    C6    A    
C20   H4    S    
C26   N2    A    
C21   H5    S    
C29   O7    A    
C7    C8    A    
C10   C11   A    
C3    C33   A    
C18   C23   S    
C13   H16   S    
C6    C34   A    
C7    C13   A    
C20   C21   S    
C25   H8    S    
C9    H18   S    
C18   C19   A    
C22   C26   A    
C27   C28   S    
C24   H7    S    
C20   H3    S    
C30   H1    S    
Cu2   O8    S    
Cu1   O3    S    
C22   N1    A    
C21   H6    S    
C23   O5    A    
C2    C34   A    
C14   C15   A    
C2    C9    A    
C4    C5    A    
C14   C19   A    
C31   C32   A    
C28   H12   S    
C3    C4    A    
C15   C16   A    
C16   C17   A    
C4    H14   S    
C8    C9    A    
Cu1   Cu2   S    
C12   O3    A    
