data_mof_unit_11583.cif
_audit_creation_date              2013-03-05T15:50:26-0500
_audit_creation_method            fapswitch 2.2
_symmetry_space_group_name_H-M    P1
_symmetry_Int_Tables_number       1
_space_group_crystal_system       triclinic
_cell_length_a                    18.369712
_cell_length_b                    25.751763
_cell_length_c                    18.458772
_cell_angle_alpha                 89.631819
_cell_angle_beta                  90.080541
_cell_angle_gamma                 89.997542
_cell_volume                      8731.77876092

loop_
_atom_site_label
_atom_site_type_symbol
_atom_site_description
_atom_site_fract_x
_atom_site_fract_y
_atom_site_fract_z
_atom_type_partial_charge
Zn1   Zn    Zn3+2 0.249990 0.293780 0.913250 1.054060
Zn2   Zn    Zn3+2 0.249990 0.706220 0.086750 1.067534
Zn3   Zn    Zn3+2 0.249990 0.706220 0.913250 1.109423
Zn4   Zn    Zn3+2 0.249990 0.293780 0.086750 1.065488
Zn5   Zn    Zn3+2 0.749990 0.793780 0.413250 1.059620
Zn6   Zn    Zn3+2 0.749990 0.206220 0.586750 1.057317
Zn7   Zn    Zn3+2 0.749990 0.206220 0.413250 1.071612
Zn8   Zn    Zn3+2 0.749990 0.793780 0.586750 1.105836
Zn9   Zn    Zn3+2 0.336760 0.206240 0.000000 1.119538
Zn10  Zn    Zn3+2 0.336760 0.793760 0.000000 1.110996
Zn11  Zn    Zn3+2 0.836760 0.706240 0.500000 1.110295
Zn12  Zn    Zn3+2 0.836760 0.293760 0.500000 1.115075
Zn13  Zn    Zn3+2 0.163250 0.206230 0.000000 1.176291
Zn14  Zn    Zn3+2 0.163250 0.793770 0.000000 1.164300
Zn15  Zn    Zn3+2 0.663250 0.706230 0.500000 1.168005
Zn16  Zn    Zn3+2 0.663250 0.293770 0.500000 1.173690
O1    O     O_3   0.249990 0.250010 0.000000 -0.537478
O2    O     O_3   0.249990 0.749990 0.000000 -0.536861
O3    O     O_3   0.749990 0.750010 0.500000 -0.532767
O4    O     O_3   0.749990 0.249990 0.500000 -0.536417
O5    O     O_R   0.335430 0.280650 0.146160 -0.624608
O6    O     O_R   0.335430 0.719350 0.853840 -0.604821
O7    O     O_R   0.335430 0.719350 0.146160 -0.653203
O8    O     O_R   0.335430 0.280650 0.853840 -0.637573
O9    O     O_R   0.835430 0.780650 0.646160 -0.604935
O10   O     O_R   0.835430 0.219350 0.353840 -0.630391
O11   O     O_R   0.835430 0.219350 0.646160 -0.636667
O12   O     O_R   0.835430 0.780650 0.353840 -0.658493
O13   O     O_R   0.164550 0.280640 0.853840 -0.610303
O14   O     O_R   0.164550 0.719360 0.146160 -0.604649
O15   O     O_R   0.164550 0.719360 0.853840 -0.560919
O16   O     O_R   0.164550 0.280640 0.146160 -0.601268
O17   O     O_R   0.664550 0.780640 0.353840 -0.611251
O18   O     O_R   0.664550 0.219360 0.646160 -0.603832
O19   O     O_R   0.664550 0.219360 0.353840 -0.591628
O20   O     O_R   0.664550 0.780640 0.646160 -0.563082
O21   O     O_R   0.396160 0.219380 0.914560 -0.616031
O22   O     O_R   0.396160 0.780620 0.085440 -0.601948
O23   O     O_R   0.396160 0.780620 0.914560 -0.587105
O24   O     O_R   0.396160 0.219380 0.085440 -0.588390
O25   O     O_R   0.896160 0.719380 0.414560 -0.603875
O26   O     O_R   0.896160 0.280620 0.585440 -0.613953
O27   O     O_R   0.896160 0.280620 0.414560 -0.596662
O28   O     O_R   0.896160 0.719380 0.585440 -0.589935
O29   O     O_R   0.103840 0.219370 0.085450 -0.597200
O30   O     O_R   0.103840 0.780630 0.914550 -0.593597
O31   O     O_R   0.103840 0.780630 0.085450 -0.623197
O32   O     O_R   0.103840 0.219370 0.914550 -0.573510
O33   O     O_R   0.603840 0.719370 0.585450 -0.588950
O34   O     O_R   0.603840 0.280630 0.414550 -0.586816
O35   O     O_R   0.603840 0.280630 0.585450 -0.586168
O36   O     O_R   0.603840 0.719370 0.414550 -0.619276
O37   O     O_R   0.310730 0.133160 0.000000 -0.597606
O38   O     O_R   0.310730 0.866840 0.000000 -0.634017
O39   O     O_R   0.810730 0.633160 0.500000 -0.628143
O40   O     O_R   0.810730 0.366840 0.500000 -0.593117
O41   O     O_R   0.249970 0.366860 0.060720 -0.627192
O42   O     O_R   0.249970 0.633140 0.939280 -0.627810
O43   O     O_R   0.249970 0.633140 0.060720 -0.618207
O44   O     O_R   0.249970 0.366860 0.939280 -0.640394
O45   O     O_R   0.749970 0.866860 0.560720 -0.628011
O46   O     O_R   0.749970 0.133140 0.439280 -0.618275
O47   O     O_R   0.749970 0.133140 0.560720 -0.634282
O48   O     O_R   0.749970 0.866860 0.439280 -0.614411
O49   O     O_R   0.189290 0.133150 0.000000 -0.560952
O50   O     O_R   0.189290 0.866850 0.000000 -0.534078
O51   O     O_R   0.689290 0.633150 0.500000 -0.538884
O52   O     O_R   0.689290 0.366850 0.500000 -0.555305
C1    C     C_R   0.389792 0.249268 0.140279 0.848735
C2    C     C_R   0.388019 0.751871 0.858251 0.845232
C3    C     C_R   0.390101 0.750070 0.140141 0.874764
C4    C     C_R   0.392699 0.251719 0.862323 0.810094
C5    C     C_R   0.887987 0.748126 0.641657 0.841756
C6    C     C_R   0.890343 0.250260 0.359435 0.839448
C7    C     C_R   0.892359 0.248708 0.638091 0.805603
C8    C     C_R   0.890868 0.750729 0.360381 0.862985
C9    C     C_R   0.110254 0.249628 0.859859 0.930858
C10   C     C_R   0.109804 0.749912 0.139759 0.919868
C11   C     C_R   0.111122 0.751837 0.858947 0.914238
C12   C     C_R   0.106374 0.252569 0.136278 0.911006
C13   C     C_R   0.609174 0.750473 0.360678 0.908110
C14   C     C_R   0.610099 0.250217 0.640179 0.927237
C15   C     C_R   0.607410 0.249151 0.362177 0.896258
C16   C     C_R   0.611301 0.747941 0.641193 0.916339
C17   C     C_R   0.249618 0.109395 0.004858 0.917677
C18   C     C_R   0.250876 0.890668 0.001157 0.900739
C19   C     C_R   0.750565 0.609357 0.500347 0.889747
C20   C     C_R   0.749808 0.390606 0.495381 0.908602
C21   C     C_R   0.250201 0.391278 0.999748 0.802714
C22   C     C_R   0.250575 0.608787 0.000019 0.817822
C23   C     C_R   0.750191 0.891218 0.499777 0.812299
C24   C     C_R   0.750187 0.108727 0.500110 0.800141
C25   C     C_3   0.182477 0.470247 0.038699 -0.350315
C26   C     C_3   0.250040 0.530216 0.920674 -0.333900
C27   C     C_3   0.182917 0.530073 0.039417 -0.354330
C28   C     C_3   0.250394 0.470634 0.920600 -0.337079
C29   C     C_3   0.679895 0.969663 0.535462 -0.354850
C30   C     C_3   0.755252 0.030073 0.421414 -0.319797
C31   C     C_3   0.679580 0.029675 0.535196 -0.344864
C32   C     C_3   0.754045 0.970561 0.420910 -0.334435
H1    H     H_    0.181398 0.455745 0.095577 0.217738
H2    H     H_    0.298446 0.544707 0.890436 0.220063
H3    H     H_    0.182748 0.543623 0.096535 0.223094
H4    H     H_    0.299580 0.456727 0.891633 0.231844
H5    H     H_    0.675943 0.955203 0.592271 0.218649
H6    H     H_    0.806980 0.043670 0.396661 0.227446
H7    H     H_    0.674654 0.043896 0.591792 0.216978
H8    H     H_    0.803760 0.955973 0.393209 0.215702
H9    H     H_    0.132361 0.456533 0.010850 0.230249
H10   H     H_    0.200615 0.544408 0.891689 0.217377
H11   H     H_    0.132605 0.545058 0.012899 0.227915
H12   H     H_    0.201719 0.456319 0.890744 0.212914
H13   H     H_    0.631268 0.955146 0.505784 0.220842
H14   H     H_    0.709271 0.045116 0.387963 0.229362
H15   H     H_    0.631252 0.043971 0.504693 0.226017
H16   H     H_    0.706111 0.957204 0.389210 0.235419
H17   H     H_    0.321091 0.455282 0.095174 0.227168
H18   H     H_    0.369716 0.544243 0.009961 0.213132
H19   H     H_    0.322394 0.543960 0.094927 0.220457
H20   H     H_    0.369367 0.455178 0.010695 0.203880
H21   H     H_    0.816343 0.954760 0.598793 0.224758
H22   H     H_    0.868112 0.044789 0.519160 0.177073
H23   H     H_    0.814065 0.043274 0.599885 0.242444
H24   H     H_    0.868351 0.955734 0.516618 0.200924
C33   C     C_3   0.319626 0.469765 0.038261 -0.341223
C34   C     C_3   0.320055 0.529831 0.038112 -0.336717
C35   C     C_3   0.817125 0.969692 0.542081 -0.343887
C36   C     C_3   0.816598 0.029709 0.542992 -0.372588
C37   C     C_3   0.250661 0.449150 0.999294 0.073076
C38   C     C_3   0.250987 0.551041 0.999610 0.070912
C39   C     C_3   0.750340 0.948970 0.499505 0.078708
C40   C     C_3   0.750275 0.050869 0.500024 0.080303
C41   C     C_R   0.038721 0.344209 0.803880 0.247829
C42   C     C_R   0.066667 0.655770 0.226941 0.267014
C43   C     C_R   0.984710 0.682310 0.876322 0.201354
C44   C     C_R   0.056309 0.353403 0.199557 0.256099
C45   C     C_R   0.583451 0.840207 0.257424 0.279789
C46   C     C_R   0.542851 0.155483 0.702892 0.252060
C47   C     C_R   0.537439 0.148308 0.319467 0.242076
C48   C     C_R   0.483477 0.815852 0.621282 0.195028
C49   C     C_R   0.031395 0.388815 0.761420 -0.189958
C50   C     C_R   0.073886 0.620359 0.284021 -0.187497
C51   C     C_R   0.916853 0.663270 0.895840 -0.185673
C52   C     C_R   0.049897 0.395962 0.244771 -0.244621
C53   C     C_R   0.599951 0.867242 0.193818 -0.199026
C54   C     C_R   0.537278 0.111998 0.747839 -0.188663
C55   C     C_R   0.514967 0.102292 0.287699 -0.215197
C56   C     C_R   0.415611 0.835356 0.602619 -0.187680
C57   C     C_R   0.583745 0.845688 0.126532 0.215574
C58   C     C_R   0.525050 0.117666 0.821676 0.209276
C59   C     C_R   0.459644 0.102286 0.236915 0.256050
C60   C     C_R   0.355175 0.824486 0.644135 0.281639
C61   C     C_R   0.018766 0.385063 0.687341 0.209910
C62   C     C_R   0.060777 0.635878 0.355058 0.263838
C63   C     C_R   0.855832 0.675114 0.855424 0.276410
C64   C     C_R   0.998803 0.395631 0.299968 0.260913
C65   C     C_R   0.539304 0.800843 0.123054 0.267167
C66   C     C_R   0.508680 0.167183 0.849584 0.252480
C67   C     C_R   0.427657 0.149606 0.215371 0.281235
C68   C     C_R   0.362285 0.798756 0.710772 0.260591
C69   C     C_R   0.003626 0.336188 0.656629 0.248514
C70   C     C_R   0.028699 0.684882 0.367912 0.258990
C71   C     C_R   0.862420 0.701215 0.788995 0.259877
C72   C     C_R   0.952685 0.352040 0.308117 0.289649
C73   C     C_R   0.511362 0.779807 0.189030 -0.085967
C74   C     C_R   0.499233 0.209630 0.800116 -0.084338
C75   C     C_R   0.462120 0.197559 0.233513 -0.096387
C76   C     C_R   0.431430 0.778244 0.732783 -0.112834
C77   C     C_R   0.996202 0.292064 0.703574 -0.084593
C78   C     C_R   0.007011 0.715648 0.307058 -0.097106
C79   C     C_R   0.931523 0.721556 0.766732 -0.112711
C80   C     C_R   0.974323 0.303575 0.277523 -0.093875
C81   C     C_R   0.029870 0.294551 0.771702 -0.032614
C82   C     C_R   0.042864 0.707001 0.241488 -0.027474
C83   C     C_R   0.991443 0.717143 0.815786 -0.011426
C84   C     C_R   0.026304 0.304940 0.220439 -0.012997
C85   C     C_R   0.549042 0.791134 0.252816 -0.046322
C86   C     C_R   0.532589 0.205893 0.732077 -0.030827
C87   C     C_R   0.516200 0.197165 0.289135 -0.013678
C88   C     C_R   0.490961 0.782082 0.683108 -0.006307
C89   C     C_R   0.445809 0.750591 0.197072 -0.031392
C90   C     C_R   0.456435 0.254987 0.813368 -0.032396
C91   C     C_R   0.443144 0.245980 0.199732 -0.035428
C92   C     C_R   0.443063 0.751994 0.800479 -0.030521
C93   C     C_R   0.955595 0.246020 0.687716 -0.030293
C94   C     C_R   0.948947 0.752627 0.305491 -0.042208
C95   C     C_R   0.943053 0.747890 0.699239 -0.028976
C96   C     C_R   0.941853 0.254678 0.297389 -0.045363
C97   C     C_R   0.433919 0.723321 0.263304 -0.010477
C98   C     C_R   0.474888 0.301903 0.776566 0.024454
C99   C     C_R   0.469184 0.292931 0.228721 -0.011543
C100  C     C_R   0.503103 0.718242 0.808781 0.009725
C101  C     C_R   0.975408 0.198670 0.722736 0.024621
C102  C     C_R   0.947805 0.790435 0.248310 0.000083
C103  C     C_R   0.003464 0.781200 0.690695 0.006964
C104  C     C_R   0.951053 0.211452 0.250398 -0.006865
C105  C     C_R   0.034758 0.199041 0.771432 -0.055379
C106  C     C_R   0.011209 0.796162 0.207360 -0.058290
C107  C     C_R   0.049931 0.789599 0.749910 -0.059508
C108  C     C_R   0.987141 0.218811 0.184267 -0.045955
C109  C     C_R   0.494475 0.713368 0.306731 -0.047868
C110  C     C_R   0.534183 0.301359 0.727872 -0.058518
C111  C     C_R   0.503397 0.292058 0.296309 -0.047313
C112  C     C_R   0.549762 0.710014 0.749712 -0.060961
C113  C     C_R   0.056204 0.247558 0.801884 -0.055961
C114  C     C_R   0.054024 0.750837 0.196078 -0.063052
C115  C     C_R   0.051561 0.751484 0.806230 -0.052033
C116  C     C_R   0.038843 0.259604 0.179743 -0.060467
C117  C     C_R   0.550644 0.751656 0.306767 -0.067721
C118  C     C_R   0.556689 0.252574 0.698964 -0.063320
C119  C     C_R   0.540977 0.245524 0.316740 -0.059127
C120  C     C_R   0.551468 0.748183 0.693458 -0.052055
C121  C     C_R   0.365702 0.705500 0.288303 -0.224800
C122  C     C_R   0.440460 0.349939 0.790762 -0.272048
C123  C     C_R   0.459004 0.341188 0.193437 -0.251846
C124  C     C_R   0.512470 0.688183 0.872247 -0.225151
C125  C     C_R   0.941971 0.150497 0.706974 -0.276743
C126  C     C_R   0.888900 0.823878 0.231075 -0.246604
C127  C     C_R   0.013424 0.810669 0.626839 -0.234232
C128  C     C_R   0.922500 0.161575 0.265208 -0.248659
C129  C     C_R   0.361050 0.669018 0.344784 0.212596
C130  C     C_R   0.465023 0.396238 0.759728 0.234808
C131  C     C_R   0.468798 0.387909 0.230295 0.244611
C132  C     C_R   0.558855 0.645316 0.873891 0.236988
C133  C     C_R   0.967135 0.104034 0.736997 0.235616
C134  C     C_R   0.899295 0.869378 0.190461 0.190767
C135  C     C_R   0.059806 0.853557 0.625059 0.242873
C136  C     C_R   0.914462 0.124723 0.210451 0.239455
C137  C     C_R   0.033705 0.103549 0.774130 0.194745
C138  C     C_R   0.970242 0.882459 0.168639 0.166363
C139  C     C_R   0.093807 0.869350 0.689857 0.197591
C140  C     C_R   0.935469 0.137441 0.139364 0.156469
C141  C     C_R   0.425840 0.646606 0.371690 0.137569
C142  C     C_R   0.531583 0.396751 0.722709 0.191312
C143  C     C_R   0.483233 0.386211 0.305209 0.143129
C144  C     C_R   0.593524 0.630010 0.809398 0.197382
C145  C     C_R   0.069847 0.150932 0.787672 0.208207
C146  C     C_R   0.027147 0.846175 0.178569 0.218706
C147  C     C_R   0.088216 0.837794 0.752892 0.189331
C148  C     C_R   0.968946 0.185818 0.125123 0.208254
C149  C     C_R   0.493777 0.667011 0.349020 0.210894
C150  C     C_R   0.568515 0.349496 0.710515 0.207399
C151  C     C_R   0.497644 0.337880 0.339401 0.196586
C152  C     C_R   0.588140 0.661820 0.746611 0.186732
H25   H     H_    0.038760 0.426649 0.785651 0.219322
H26   H     H_    0.092678 0.581287 0.273392 0.212082
H27   H     H_    0.911100 0.639437 0.944075 0.230040
H28   H     H_    0.076802 0.432035 0.230525 0.206742
H29   H     H_    0.627266 0.904428 0.196710 0.243422
H30   H     H_    0.545373 0.073595 0.725656 0.219583
H31   H     H_    0.533805 0.065504 0.309538 0.217782
H32   H     H_    0.409179 0.858388 0.553697 0.227154
H33   H     H_    0.315701 0.721972 0.267704 0.230139
H34   H     H_    0.396138 0.353816 0.828210 0.205656
H35   H     H_    0.441411 0.342918 0.137464 0.176955
H36   H     H_    0.481737 0.696674 0.920654 0.206754
H37   H     H_    0.897789 0.146647 0.669253 0.203637
H38   H     H_    0.833514 0.814346 0.244297 0.237139
H39   H     H_    0.983190 0.801616 0.578222 0.201916
H40   H     H_    0.906384 0.150317 0.319327 0.193324
H41   H     H_    0.184590 0.036879 0.250317 0.201078
H42   H     H_    0.238107 0.950813 0.255301 0.211443
H43   H     H_    0.705397 0.553316 0.248694 0.217621
H44   H     H_    0.674331 0.462265 0.251445 0.206638
C153  C     C_R   0.297863 0.056091 0.880234 -0.149149
C154  C     C_R   0.301827 0.948528 0.878648 -0.154669
C155  C     C_R   0.803846 0.551310 0.620461 -0.155544
C156  C     C_R   0.798190 0.443916 0.619293 -0.146304
C157  C     C_R   0.323056 0.030661 0.818910 0.300011
C158  C     C_R   0.326504 0.976601 0.818643 0.341272
C159  C     C_R   0.827683 0.523216 0.680798 0.343619
C160  C     C_R   0.822824 0.469259 0.680945 0.300341
C161  C     C_R   0.276162 0.973931 0.941617 0.013033
C162  C     C_R   0.274438 0.028266 0.942728 0.035602
C163  C     C_R   0.775324 0.471772 0.556451 0.038699
C164  C     C_R   0.777187 0.526024 0.557589 0.014574
C165  C     C_R   0.256232 0.946260 0.004717 -0.055241
C166  C     C_R   0.248651 0.053589 0.005655 -0.045041
C167  C     C_R   0.749588 0.446395 0.493560 -0.037219
C168  C     C_R   0.754434 0.553923 0.495544 -0.054541
C169  C     C_R   0.247592 0.971719 0.071815 -0.021142
C170  C     C_R   0.231615 0.025486 0.070578 -0.012125
C171  C     C_R   0.729942 0.474293 0.429025 -0.003106
C172  C     C_R   0.739202 0.529155 0.428867 -0.019034
C173  C     C_R   0.255785 0.946072 0.140399 0.318390
C174  C     C_R   0.203714 0.048004 0.136044 0.330256
C175  C     C_R   0.704410 0.450469 0.363242 0.311049
C176  C     C_R   0.734577 0.557001 0.361323 0.279135
C177  C     C_R   0.233366 0.970413 0.203422 -0.077841
C178  C     C_R   0.204590 0.019790 0.200699 -0.115724
C179  C     C_R   0.693527 0.480163 0.300890 -0.108658
C180  C     C_R   0.710026 0.532235 0.299462 -0.080249
H45   H     H_    0.297573 0.097984 0.877770 0.188880
H46   H     H_    0.305774 0.906775 0.876150 0.207642
H47   H     H_    0.808093 0.593048 0.623217 0.205717
H48   H     H_    0.797243 0.402039 0.622092 0.187492
N1    N     N_R   0.926743 0.057194 0.724587 0.233080
O53   O     O_R   0.959154 0.015273 0.702601 -0.292629
O54   O     O_R   0.856207 0.057393 0.730802 -0.358700
N2    N     N_R   0.838535 0.903506 0.176914 0.250751
O55   O     O_R   0.836676 0.932917 0.119391 -0.219710
O56   O     O_R   0.782185 0.902755 0.219593 -0.374515
N3    N     N_R   0.066865 0.883082 0.558744 0.261878
O57   O     O_R   0.126140 0.908820 0.544537 -0.246083
O58   O     O_R   0.016231 0.881142 0.509417 -0.374317
N4    N     N_R   0.878118 0.076632 0.226377 0.242440
O59   O     O_R   0.896809 0.033922 0.194145 -0.236237
O60   O     O_R   0.823250 0.075926 0.270770 -0.389286
N5    N     N_R   0.290709 0.653595 0.371778 0.253531
O61   O     O_R   0.283019 0.637807 0.438437 -0.248302
O62   O     O_R   0.232726 0.660487 0.332298 -0.374976
N6    N     N_R   0.424209 0.443012 0.771211 0.235373
O63   O     O_R   0.456365 0.485454 0.791725 -0.285727
O64   O     O_R   0.353634 0.442349 0.765405 -0.362949
N7    N     N_R   0.456498 0.436130 0.192457 0.226516
O65   O     O_R   0.420372 0.473644 0.222694 -0.306862
O66   O     O_R   0.474772 0.440648 0.124625 -0.378698
N8    N     N_R   0.565094 0.615112 0.939632 0.267912
O67   O     O_R   0.625247 0.590886 0.955479 -0.237694
O68   O     O_R   0.512202 0.614395 0.986488 -0.351137
N9    N     N_R   0.144447 0.149680 0.810162 0.202354
O69   O     O_R   0.164558 0.118918 0.862296 -0.380701
O70   O     O_R   0.193556 0.175120 0.773634 -0.377317
N10   N     N_R   0.101262 0.862691 0.170551 0.219495
O71   O     O_R   0.119152 0.895175 0.119563 -0.346068
O72   O     O_R   0.150240 0.847787 0.217252 -0.384049
N11   N     N_R   0.099316 0.861901 0.821882 0.228359
O73   O     O_R   0.163228 0.878059 0.841614 -0.323292
O74   O     O_R   0.043218 0.872841 0.861966 -0.284748
N12   N     N_R   0.969860 0.206092 0.051927 0.242108
O75   O     O_R   0.980799 0.175876 0.996787 -0.287705
O76   O     O_R   0.958901 0.255358 0.040060 -0.316391
N13   N     N_R   0.558357 0.635229 0.352224 0.240569
O77   O     O_R   0.568763 0.601619 0.404090 -0.277573
O78   O     O_R   0.604728 0.637098 0.299062 -0.371507
N14   N     N_R   0.643370 0.350987 0.689012 0.205402
O79   O     O_R   0.663899 0.381765 0.637121 -0.380056
O80   O     O_R   0.692245 0.325704 0.726206 -0.373101
N15   N     N_R   0.490107 0.334018 0.416900 0.256694
O81   O     O_R   0.520192 0.368081 0.459293 -0.266545
O82   O     O_R   0.455103 0.295042 0.445547 -0.315983
N16   N     N_R   0.599523 0.637940 0.677529 0.227173
O83   O     O_R   0.663385 0.621397 0.658411 -0.323554
O84   O     O_R   0.543560 0.627160 0.637022 -0.265980
Br1   Br    Br    0.351799 0.071491 0.736582 -0.314047
Br2   Br    Br    0.368505 0.940046 0.739035 -0.325109
Br3   Br    Br    0.869511 0.559619 0.760737 -0.320211
Br4   Br    Br    0.847809 0.428532 0.764645 -0.306513
Br5   Br    Br    0.307488 0.882131 0.157597 -0.423533
Br6   Br    Br    0.156166 0.113708 0.147124 -0.399482
Br7   Br    Br    0.680804 0.378935 0.346424 -0.424984
Br8   Br    Br    0.772028 0.625726 0.341262 -0.452037
N17   N     N_R   0.065347 0.055079 0.796505 0.275256
O85   O     O_R   0.128093 0.040641 0.770953 -0.246100
O86   O     O_R   0.030328 0.024427 0.840603 -0.226908
N18   N     N_R   0.985481 0.933503 0.141530 0.284609
O87   O     O_R   0.018281 0.966808 0.183075 -0.299268
O88   O     O_R   0.980510 0.942940 0.072370 -0.209282
N19   N     N_R   0.125087 0.920371 0.694249 0.281584
O89   O     O_R   0.190757 0.926847 0.718841 -0.238248
O90   O     O_R   0.089406 0.960374 0.669582 -0.245444
N20   N     N_R   0.918089 0.102975 0.081286 0.276174
O91   O     O_R   0.969409 0.075904 0.051000 -0.218871
O92   O     O_R   0.850421 0.093792 0.064876 -0.243686
N21   N     N_R   0.422489 0.602028 0.418380 0.281185
O93   O     O_R   0.389116 0.560230 0.397166 -0.218809
O94   O     O_R   0.445094 0.605286 0.485028 -0.224894
N22   N     N_R   0.562394 0.445173 0.699092 0.275167
O95   O     O_R   0.624556 0.460748 0.724909 -0.242318
O96   O     O_R   0.526985 0.474774 0.653818 -0.228444
N23   N     N_R   0.479984 0.432849 0.347034 0.277608
O97   O     O_R   0.525754 0.470398 0.334702 -0.291247
O98   O     O_R   0.426811 0.439897 0.392400 -0.220368
N24   N     N_R   0.625059 0.579069 0.804913 0.281320
O99   O     O_R   0.691106 0.572879 0.781360 -0.237917
O100  O     O_R   0.589419 0.538909 0.829052 -0.241256
Br9   Br    Br    0.047524 0.355369 0.906428 -0.390486
Br10  Br    Br    0.070970 0.627859 0.130892 -0.475465
Br11  Br    Br    0.061799 0.654624 0.935875 -0.473813
Br12  Br    Br    0.078332 0.370011 0.100621 -0.451589
Br13  Br    Br    0.588682 0.878557 0.346419 -0.443471
Br14  Br    Br    0.549611 0.141452 0.601308 -0.419070
Br15  Br    Br    0.576798 0.137748 0.414731 -0.457346
Br16  Br    Br    0.558671 0.839998 0.556359 -0.492417
Br17  Br    Br    0.623907 0.879591 0.042762 -0.218965
Br18  Br    Br    0.533070 0.056422 0.881003 -0.293629
Br19  Br    Br    0.421745 0.035502 0.209994 -0.352413
Br20  Br    Br    0.262743 0.845998 0.607109 -0.259935
Br21  Br    Br    0.025470 0.447929 0.631227 -0.291301
Br22  Br    Br    0.088968 0.588667 0.430937 -0.181183
Br23  Br    Br    0.763592 0.653698 0.892915 -0.262821
Br24  Br    Br    0.985718 0.459930 0.350750 -0.298932
N25   N     N_R   0.533818 0.771846 0.056808 0.228638
O101  O     O_R   0.528587 0.795225 0.994365 -0.310053
O102  O     O_R   0.533097 0.721327 0.058983 -0.360195
N26   N     N_R   0.518932 0.176720 0.925769 0.251837
O103  O     O_R   0.494081 0.144531 0.974413 -0.283839
O104  O     O_R   0.549397 0.219687 0.946901 -0.345011
N27   N     N_R   0.354552 0.148776 0.188502 0.204720
O105  O     O_R   0.336249 0.116456 0.138152 -0.375439
O106  O     O_R   0.303927 0.174488 0.222064 -0.379401
N28   N     N_R   0.297391 0.790100 0.751494 0.199913
O107  O     O_R   0.279388 0.822697 0.801756 -0.412786
O108  O     O_R   0.249807 0.756429 0.728956 -0.334645
N29   N     N_R   0.014347 0.329292 0.580003 0.251005
O109  O     O_R   0.987045 0.361935 0.533205 -0.281739
O110  O     O_R   0.048228 0.288331 0.556513 -0.348876
N30   N     N_R   0.031990 0.707509 0.439076 0.245005
O111  O     O_R   0.020072 0.679695 0.496925 -0.291750
O112  O     O_R   0.043809 0.757069 0.446012 -0.347280
N31   N     N_R   0.797255 0.710198 0.748655 0.200830
O113  O     O_R   0.778686 0.677817 0.698264 -0.411915
O114  O     O_R   0.750031 0.743921 0.771654 -0.337313
N32   N     N_R   0.877399 0.360582 0.325321 0.220091
O115  O     O_R   0.858298 0.396697 0.370136 -0.350251
O116  O     O_R   0.827465 0.339154 0.285340 -0.372542

loop_
_geom_bond_atom_site_label_1
_geom_bond_atom_site_label_2
_geom_bond_distance
_ccdc_geom_bond_type
C13   C117  1.464168 S    
C48   Br16  1.930274 S    
C106  C114  1.424021 A    
C121  H33   1.079395 S    
C179  C180  1.374876 A    
C83   C115  1.425281 A    
C138  N18   1.431273 S    
N3    O58   1.301872 A    
N13   O77   1.300407 A    
O26   C7    1.270709 A    
N26   O104  1.301788 A    
O30   C11   1.277194 A    
C30   H14   1.113636 S    
N1    O53   1.300320 A    
C23   C39   1.487192 S    
C159  C160  1.392344 A    
C21   C37   1.490300 S    
C18   C165  1.436878 S    
Zn12  O26   1.944400 S    
C122  C130  1.394736 A    
C104  C128  1.412634 A    
C54   C58   1.390226 A    
C105  C145  1.426446 A    
C164  C168  1.410871 A    
N10   O71   1.297834 A    
C50   H26   1.082930 S    
C148  N12   1.445472 S    
C60   Br20  1.910197 S    
C47   C87   1.427918 A    
C29   H5    1.113006 S    
C59   Br19  1.923408 S    
C108  C116  1.418347 A    
N32   O116  1.301517 A    
C99   C111  1.396208 A    
O11   C7    1.298625 A    
N22   O95   1.301095 A    
N17   O86   1.301054 A    
O34   C15   1.267375 A    
C56   H32   1.083518 S    
N12   O75   1.300976 A    
C29   C39   1.551125 S    
Zn1   O44   1.945296 S    
C25   H1    1.112277 S    
N16   O83   1.298187 A    
C76   C88   1.431112 A    
Zn5   O48   1.945296 S    
C61   C69   1.411250 A    
Zn6   O47   1.945296 S    
C124  C132  1.394623 A    
Zn7   O46   1.939313 S    
C9    C113  1.460002 S    
O16   C12   1.303503 A    
N3    O57   1.300903 A    
Zn16  O4    1.951867 S    
C55   H31   1.083697 S    
H41   C178  1.083320 S    
C112  C120  1.425575 A    
Zn1   O13   1.944335 S    
N4    O59   1.300189 A    
C100  C112  1.404974 A    
C131  N7    1.438494 S    
C26   C28   1.534380 S    
C143  C151  1.416651 A    
Zn4   O16   1.944371 S    
N12   O76   1.301667 A    
H24   C35   1.113106 S    
C176  Br8   1.932598 S    
N30   O112  1.301698 A    
C160  Br4   1.916971 S    
C28   H4    1.110998 S    
C137  C145  1.412695 A    
Zn6   O4    1.952289 S    
N2    O55   1.300692 A    
N11   O74   1.301360 A    
C78   C82   1.397846 A    
N27   O106  1.301508 A    
C130  C142  1.401521 A    
C42   C82   1.417266 A    
C157  Br1   1.917160 S    
N14   O79   1.295830 A    
C47   Br15  1.918121 S    
N25   O101  1.300385 A    
C30   H6    1.110649 S    
Zn10  O22   1.944400 S    
C134  N2    1.441169 S    
C84   C116  1.411416 A    
N29   O109  1.301445 A    
O25   C8    1.284779 A    
Zn13  O29   1.950660 S    
C130  N6    1.435811 S    
Zn10  O2    1.952251 S    
C11   C115  1.463280 S    
C48   C88   1.436790 A    
C67   C75   1.429204 A    
O29   C12   1.274168 A    
C19   C168  1.432601 S    
C68   C76   1.432879 A    
C20   C167  1.436843 S    
C35   C39   1.552490 S    
C68   N28   1.426943 S    
H19   C34   1.113038 S    
C33   C37   1.551299 S    
C66   N26   1.441215 S    
C26   H2    1.113649 S    
N9    O69   1.295858 A    
N19   O89   1.299459 A    
C82   C114  1.416783 A    
C141  N21   1.432407 S    
O37   C17   1.281587 A    
C90   C98   1.423426 A    
O48   C23   1.284318 A    
N21   O93   1.300988 A    
C41   C81   1.422680 A    
C126  C134  1.400191 A    
C43   Br11  1.925485 S    
C28   C37   1.551066 S    
C135  C139  1.410784 A    
C44   C84   1.415769 A    
C156  H48   1.079464 S    
C73   C85   1.397370 A    
C3    C89   1.465918 S    
C74   C90   1.430502 A    
Zn16  O35   1.947157 S    
C72   N32   1.436650 S    
C103  C127  1.409923 A    
C125  H37   1.073632 S    
Zn15  O33   1.950660 S    
C101  C125  1.416001 A    
C26   C38   1.555941 S    
Zn7   O10   1.944329 S    
C94   C102  1.431485 A    
O33   C16   1.276009 A    
C53   H29   1.082697 S    
C24   C40   1.489970 S    
C97   C109  1.393032 A    
O40   C20   1.277988 A    
N20   O91   1.301416 A    
C154  C161  1.418635 A    
N27   O105  1.295602 A    
C110  C150  1.425677 A    
C173  C177  1.387985 A    
N6    O63   1.300627 A    
C86   C118  1.416341 A    
C137  N17   1.434937 S    
C132  N8    1.441599 S    
C88   C120  1.425199 A    
N24   O99   1.299543 A    
C158  Br2   1.913550 S    
N8    O68   1.301749 A    
C46   Br14  1.916076 S    
C129  N5    1.440480 S    
C156  C160  1.390650 A    
C150  N14   1.432178 S    
Zn5   O17   1.944335 S    
C27   C38   1.546798 S    
C49   H25   1.083075 S    
C151  N15   1.440205 S    
C99   C123  1.411647 A    
C140  N20   1.431874 S    
C25   C27   1.540799 S    
N1    O54   1.300963 A    
C111  C119  1.431129 A    
C121  C129  1.401620 A    
C109  C117  1.427212 A    
C27   H3    1.112715 S    
C103  C107  1.403762 A    
N5    O62   1.301240 A    
N31   O114  1.301016 A    
C32   H8    1.113698 S    
Zn8   O3    1.964135 S    
C135  N3    1.442859 S    
C65   C73   1.425958 A    
O38   C18   1.259393 A    
C98   C110  1.413307 A    
C63   C71   1.399944 A    
C134  C138  1.404999 A    
O5    C1    1.289753 A    
C149  N13   1.442131 S    
O32   C9    1.276889 A    
C52   C64   1.386245 A    
C55   C59   1.381627 A    
C51   C63   1.378677 A    
Zn15  O51   1.941760 S    
C123  H35   1.082763 S    
C177  C178  1.377610 A    
Zn11  O28   1.947941 S    
C50   C62   1.394541 A    
C155  H47   1.079178 S    
C76   C92   1.432651 A    
C97   C121  1.411681 A    
C1    C91   1.472344 S    
C2    C92   1.470594 S    
C12   C116  1.489995 S    
C142  C150  1.412689 A    
C167  C171  1.432881 A    
C72   C80   1.429744 A    
O8    C4    1.297796 A    
N28   O107  1.298307 A    
Zn9   O1    1.952172 S    
C147  N11   1.434618 S    
C62   C70   1.414271 A    
C45   Br13  1.924486 S    
C56   C60   1.377621 A    
C107  C147  1.427895 A    
O50   C18   1.287133 A    
Zn1   O1    1.952290 S    
H42   C177  1.083029 S    
Zn13  O1    1.951946 S    
Zn2   O14   1.946799 S    
C174  Br6   1.916344 S    
C67   N27   1.431130 S    
C49   C61   1.390590 A    
C102  C106  1.396684 A    
C46   C54   1.393247 A    
O9    C5    1.281242 A    
O39   C19   1.263843 A    
O36   C13   1.276733 A    
C159  Br3   1.913402 S    
O13   C9    1.282248 A    
Zn1   O8    1.946755 S    
N10   O72   1.301309 A    
C30   C40   1.552751 S    
Zn2   O7    1.944291 S    
C77   C81   1.402452 A    
Zn3   O6    1.944329 S    
O18   C14   1.281629 A    
O31   C10   1.277588 A    
H17   C33   1.112817 S    
O6    C2    1.281383 A    
C80   C84   1.423251 A    
C125  C133  1.393956 A    
C14   C118  1.465479 S    
C46   C86   1.421341 A    
C75   C87   1.427631 A    
C122  H34   1.073860 S    
C61   Br21  1.920354 S    
C105  C113  1.428519 A    
C163  C164  1.397807 A    
C32   H16   1.112315 S    
C136  N4    1.435905 S    
N22   O96   1.301083 A    
N17   O85   1.301150 A    
Zn14  O30   1.948195 S    
Zn15  O3    1.951946 S    
Zn11  O3    1.952172 S    
O41   C21   1.285684 A    
C31   C40   1.550392 S    
C101  C105  1.412098 A    
C176  C180  1.386367 A    
C45   C53   1.394829 A    
C128  H40   1.080163 S    
Zn16  O34   1.948195 S    
H21   C35   1.113020 S    
C31   H15   1.112024 S    
N16   O84   1.301361 A    
C34   C38   1.550989 S    
N23   O97   1.300575 A    
C128  C136  1.398544 A    
Zn8   O20   1.944371 S    
C153  C157  1.391169 A    
C106  C146  1.420763 A    
C5    C95   1.466253 S    
C89   C97   1.423110 A    
N4    O60   1.299933 A    
C92   C100  1.411766 A    
C145  N9    1.431630 S    
C74   C86   1.402049 A    
C71   C79   1.432972 A    
C129  C141  1.410983 A    
N7    O65   1.301209 A    
C124  H36   1.081128 S    
C142  N22   1.434938 S    
C157  C158  1.393606 A    
Zn8   O9    1.941815 S    
C57   Br17  1.919237 S    
C25   C37   1.549403 S    
C112  C152  1.428819 A    
N2    O56   1.301770 A    
C6    C96   1.490421 S    
N13   O78   1.301023 A    
C169  C173  1.431874 A    
C155  C164  1.420858 A    
C174  C178  1.393311 A    
C171  C175  1.441811 A    
C126  H38   1.074671 S    
C41   Br9   1.923014 S    
C172  C176  1.436695 A    
N26   O103  1.301294 A    
N14   O80   1.301476 A    
C107  C115  1.425420 A    
C155  C159  1.394212 A    
O19   C15   1.309935 A    
O44   C21   1.284622 A    
C26   H10   1.113645 S    
Zn9   O24   1.947941 S    
C161  C165  1.410320 A    
Zn6   O18   1.946799 S    
C91   C99   1.408783 A    
Zn10  O23   1.950408 S    
H44   C179  1.083661 S    
C163  C167  1.416509 A    
C108  C148  1.427010 A    
O7    C3    1.282973 A    
C42   C50   1.395181 A    
C28   H12   1.113706 S    
N15   O81   1.301883 A    
C70   C78   1.426695 A    
C78   C94   1.429972 A    
C69   N29   1.440468 S    
Zn15  O36   1.944655 S    
O15   C11   1.293384 A    
O42   C22   1.281159 A    
Zn4   O1    1.964135 S    
C30   C32   1.532778 S    
C33   C34   1.546816 S    
Zn9   O37   1.941757 S    
C35   C36   1.545766 S    
C71   N31   1.426941 S    
C136  C140  1.404948 A    
Zn11  O39   1.941757 S    
C66   C74   1.430209 A    
C165  C169  1.414216 A    
C44   Br12  1.916703 S    
C58   C66   1.410915 A    
Zn2   O43   1.945296 S    
C16   C120  1.463519 S    
Zn5   O3    1.952290 S    
C31   H7    1.113040 S    
C41   C49   1.392824 A    
C154  H46   1.078948 S    
N21   O94   1.301092 A    
C132  C144  1.409356 A    
N11   O73   1.298062 A    
C44   C52   1.386935 A    
C64   Br24  1.923184 S    
N20   O92   1.301049 A    
H20   C33   1.112945 S    
N6    O64   1.300827 A    
H22   C36   1.113024 S    
O28   C5    1.287491 A    
N24   O100  1.300657 A    
C77   C93   1.432463 A    
C22   C38   1.487145 S    
Zn3   O42   1.939313 S    
N30   O111  1.300782 A    
C152  N16   1.434845 S    
Zn7   O4    1.964136 S    
O21   C4    1.271544 A    
N31   O113  1.298444 A    
C17   C166  1.437192 S    
C81   C113  1.413997 A    
C127  C135  1.395159 A    
C57   C65   1.416017 A    
C53   C57   1.395410 A    
C60   C68   1.399330 A    
Zn2   O2    1.952289 S    
H43   C180  1.083210 S    
Zn14  O2    1.951867 S    
C104  C108  1.401708 A    
C48   C56   1.386244 A    
C10   C114  1.461003 S    
C32   C39   1.551908 S    
C109  C149  1.422201 A    
C102  C126  1.417467 A    
Zn13  O49   1.941760 S    
N5    O61   1.301276 A    
C58   Br18  1.919810 S    
N25   O102  1.301378 A    
C47   C55   1.388055 A    
C54   H30   1.083121 S    
O20   C16   1.294255 A    
Zn12  O27   1.950408 S    
N29   O110  1.301760 A    
N18   O88   1.301078 A    
C111  C151  1.431278 A    
C87   C119  1.423108 A    
C59   C67   1.407619 A    
C133  N1    1.435676 S    
Zn3   O2    1.964136 S    
C139  C147  1.418784 A    
C85   C117  1.418813 A    
C70   N30   1.441645 S    
C75   C91   1.433369 A    
N9    O70   1.301433 A    
O46   C24   1.283334 A    
O47   C24   1.286847 A    
Zn16  O52   1.941800 S    
Zn8   O45   1.939313 S    
O27   C6    1.291495 A    
Zn12  O4    1.952251 S    
C7    C93   1.479676 S    
C110  C118  1.429390 A    
C36   C40   1.549833 S    
C4    C90   1.482060 S    
C29   C31   1.545396 S    
N28   O108  1.301024 A    
N7    O66   1.301255 A    
O24   C1    1.281051 A    
C154  C158  1.395016 A    
N23   O98   1.300958 A    
C169  C170  1.415395 A    
C79   C83   1.428381 A    
O43   C22   1.287590 A    
C43   C83   1.433905 A    
C153  H45   1.079495 S    
Zn4   O41   1.939313 S    
Zn3   O15   1.941857 S    
N8    O67   1.300947 A    
Zn5   O12   1.946755 S    
C65   N25   1.440300 S    
Zn6   O11   1.944291 S    
C63   Br23  1.911188 S    
Zn9   O21   1.946905 S    
C161  C162  1.399865 A    
Zn14  O50   1.941800 S    
N19   O90   1.300460 A    
C98   C122  1.415417 A    
O35   C14   1.279327 A    
C96   C104  1.425778 A    
Zn12  O40   1.941717 S    
C131  C143  1.408055 A    
C62   Br22  1.919394 S    
C141  C149  1.416806 A    
N15   O82   1.301792 A    
C170  C174  1.438735 A    
C52   H28   1.083345 S    
C146  N10   1.433954 S    
O52   C20   1.271639 A    
C175  C179  1.391896 A    
C138  C146  1.413004 A    
C127  H39   1.081413 S    
C29   H13   1.113128 S    
C51   H27   1.083453 S    
C144  N24   1.436919 S    
C171  C172  1.423002 A    
C8    C94   1.472983 S    
O22   C3    1.281000 A    
C95   C103  1.411023 A    
C162  C166  1.417764 A    
Zn7   O19   1.941857 S    
C168  C172  1.417411 A    
C93   C101  1.423484 A    
C123  C131  1.397490 A    
Zn13  O32   1.944655 S    
O49   C17   1.268602 A    
Zn14  O31   1.947157 S    
O51   C19   1.281537 A    
C79   C95   1.430640 A    
C73   C89   1.427322 A    
C144  C152  1.418270 A    
C69   C77   1.431189 A    
C27   H11   1.113084 S    
C173  Br5   1.925206 S    
Zn4   O5    1.941815 S    
C143  N23   1.433206 S    
H23   C36   1.109914 S    
N32   O115  1.297312 A    
C80   C96   1.438947 A    
C175  Br7   1.919603 S    
C156  C163  1.422837 A    
C43   C51   1.386728 A    
N18   O87   1.301511 A    
O10   C6    1.289440 A    
O23   C2    1.288510 A    
Zn11  O25   1.946905 S    
C139  N19   1.436782 S    
Zn10  O38   1.941717 S    
C42   Br10  1.919100 S    
O14   C10   1.281688 A    
C153  C162  1.421308 A    
C45   C85   1.415985 A    
C64   C72   1.413768 A    
C133  C137  1.401040 A    
C166  C170  1.431005 A    
C25   H9    1.112457 S    
C140  C148  1.412660 A    
H18   C34   1.113048 S    
O17   C13   1.285839 A    
C100  C124  1.410317 A    
C15   C119  1.483097 S    
O45   C23   1.284486 A    
O12   C8    1.282089 A    
