data_mof_unit_7990.cif
_audit_creation_date              2012-10-26T19:39:34-0400
_audit_creation_method            fapswitch 2.2
_symmetry_space_group_name_H-M    P1
_symmetry_Int_Tables_number       1
_space_group_crystal_system       triclinic
_cell_length_a                    10.941577
_cell_length_b                    8.694179
_cell_length_c                    7.48313
_cell_angle_alpha                 102.102117
_cell_angle_beta                  96.456616
_cell_angle_gamma                 91.887231
_cell_volume                      690.449234709

loop_
_atom_site_label
_atom_site_type_symbol
_atom_type_description
_atom_site_fract_x
_atom_site_fract_y
_atom_site_fract_z
_atom_type_partial_charge
C1    C     C_R   0.498422 0.200497 0.454949 0.534031
C2    C     C_2   0.489622 0.033727 0.434105 -0.170157
C3    C     C_R   0.935436 0.525985 0.706149 0.004014
C4    C     C_R   0.932219 0.676825 0.818654 -0.073476
C5    C     C_R   0.009258 0.720097 0.984931 -0.095673
C6    C     C_R   0.089944 0.613206 0.040041 -0.052474
C7    C     C_R   0.089375 0.460208 0.933753 -0.049044
C8    C     C_R   0.010749 0.415566 0.768791 -0.063447
C9    C     C_R   0.630265 0.039815 0.723420 0.057256
C10   C     C_R   0.604445 0.059860 0.906445 -0.043219
C11   C     C_R   0.700492 0.091555 0.051388 -0.050803
C12   C     C_2   0.535212 0.965172 0.568839 -0.058324
C13   C     C_R   0.822380 0.102602 0.014617 -0.036869
C14   C     C_R   0.848359 0.088091 0.833693 -0.099308
C15   C     C_R   0.752761 0.057692 0.688249 -0.096202
C16   C     C_R   0.266760 0.506687 0.498921 0.543669
C17   C     C_R   0.509198 0.799575 0.545512 0.531510
C18   C     C_R   0.734928 0.499579 0.502107 0.566144
C19   C     C_2   0.925184 0.455305 0.362518 0.314226
C20   C     C_2   0.868194 0.492352 0.515475 -0.026404
C21   C     C_2   0.057604 0.435906 0.370376 -0.143057
C22   C     C_2   0.138588 0.533177 0.492729 -0.162039
Cu1   Cu    Cu3+1 0.513740 0.517380 0.684380 0.980001
Cu2   Cu    Cu3+1 0.486260 0.482620 0.315620 0.958765
F1    F     F_    0.860071 0.428151 0.192131 -0.622617
H1    H     H_    0.088873 0.339467 0.271809 0.128926
H2    H     H_    0.015106 0.299511 0.683132 0.079129
H3    H     H_    0.510830 0.043234 0.935930 0.110597
H4    H     H_    0.681154 0.102332 0.191862 0.118375
H5    H     H_    0.896873 0.121527 0.126388 0.116286
H6    H     H_    0.943052 0.093176 0.805903 0.087517
H7    H     H_    0.774751 0.038242 0.547948 0.083648
H8    H     H_    0.112264 0.637040 0.584523 0.100650
H9    H     H_    0.434698 0.966360 0.310500 0.108174
H10   H     H_    0.404494 0.376638 0.947650 0.227942
H11   H     H_    0.595683 0.623180 0.052298 0.252987
H12   H     H_    0.873998 0.762761 0.773098 0.106704
H13   H     H_    0.008877 0.837843 0.068476 0.086127
H14   H     H_    0.152917 0.649516 0.165114 0.128576
H15   H     H_    0.151925 0.377379 0.976750 0.096523
N1    N     N_2   0.465540 0.456420 0.038510 -0.257771
N2    N     N_2   0.534460 0.543580 0.961490 -0.235491
O1    O     O_R   0.508930 0.286130 0.619780 -0.488094
O2    O     O_R   0.485720 0.256780 0.308360 -0.518424
O3    O     O_R   0.333540 0.514670 0.655670 -0.503494
O4    O     O_R   0.310330 0.485320 0.344250 -0.516921
O5    O     O_R   0.514280 0.743220 0.691640 -0.510390
O6    O     O_R   0.491070 0.713870 0.380220 -0.521389
O7    O     O_R   0.689670 0.514680 0.655750 -0.493197
O8    O     O_R   0.666460 0.485330 0.344330 -0.433496

loop_
_geom_bond_atom_site_label_1
_geom_bond_atom_site_label_2
_ccdc_geom_bond_type
C12   C17   S    
C16   O3    A    
C7    H15   S    
H10   N1    S    
C6    C7    A    
Cu1   O3    S    
N1    N2    D    
C1    O2    A    
H11   N2    S    
C19   C20   D    
C17   O6    A    
C14   H6    S    
C21   H1    S    
Cu2   O4    S    
C2    H9    S    
C9    C15   A    
C2    C12   D    
C3    C20   S    
C13   C14   A    
Cu2   N1    S    
C11   C13   A    
C11   H4    S    
Cu1   N2    S    
C22   H8    S    
Cu2   O2    S    
C21   C22   D    
C19   C21   S    
C1    C2    S    
C18   C20   S    
Cu2   O8    S    
C5    C6    A    
C19   F1    S    
C9    C12   S    
Cu1   O7    S    
C6    H14   S    
Cu1   O5    S    
C10   C11   A    
Cu1   Cu2   S    
C10   H3    S    
C3    C4    A    
Cu2   O6    S    
C13   H5    S    
C15   H7    S    
Cu1   O1    S    
C4    H12   S    
C18   O8    A    
C3    C8    A    
C9    C10   A    
C16   O4    A    
C8    H2    S    
C7    C8    A    
C14   C15   A    
C16   C22   S    
C5    H13   S    
C1    O1    A    
C17   O5    A    
C18   O7    A    
C4    C5    A    
