data_mof_unit_13285.cif
_audit_creation_date              2012-10-26T21:05:42-0400
_audit_creation_method            fapswitch 2.2
_symmetry_space_group_name_H-M    P1
_symmetry_Int_Tables_number       1
_space_group_crystal_system       triclinic
_cell_length_a                    13.159638
_cell_length_b                    9.088928
_cell_length_c                    7.842588
_cell_angle_alpha                 89.986957
_cell_angle_beta                  93.202032
_cell_angle_gamma                 90.027627
_cell_volume                      936.5638479

loop_
_atom_site_label
_atom_site_type_symbol
_atom_type_description
_atom_site_fract_x
_atom_site_fract_y
_atom_site_fract_z
_atom_type_partial_charge
C1    C     C_R   0.500027 0.220271 0.500012 0.549571
C2    C     C_R   0.861571 0.535738 0.700995 0.216757
C3    C     C_R   0.130356 0.516843 0.601691 -0.057599
C4    C     C_R   0.869643 0.483148 0.398308 -0.057602
C5    C     C_R   0.023876 0.502323 0.582737 -0.051134
C6    C     C_R   0.976123 0.497664 0.417262 -0.051135
C7    C     C_1   0.500009 0.065437 0.500014 -0.008592
C8    C     C_1   0.499991 0.934563 0.499986 -0.008592
C9    C     C_1   0.824673 0.414650 0.245169 0.289449
C10   C     C_1   0.175323 0.585351 0.754825 0.289452
C11   C     C_1   0.013238 0.611484 0.146982 0.275245
C12   C     C_R   0.499973 0.779729 0.499988 0.549573
C13   C     C_1   0.986761 0.388508 0.853018 0.275246
C14   C     C_R   0.300737 0.495424 0.472075 0.556801
C15   C     C_R   0.699262 0.504574 0.527925 0.556803
C16   C     C_R   0.811015 0.511304 0.540560 -0.015836
C17   C     C_R   0.188985 0.488689 0.459439 -0.015838
C18   C     C_R   0.036601 0.502120 0.276206 0.019697
C19   C     C_R   0.963398 0.497868 0.723792 0.019696
C20   C     C_R   0.138428 0.464252 0.299003 0.216758
Cl1   Cl    Cl    0.801097 0.612489 0.876018 -0.533157
Cl2   Cl    Cl    0.198905 0.387518 0.123972 -0.533159
Cu1   Cu    Cu3+1 0.500010 0.500000 0.669080 1.134452
Cu2   Cu    Cu3+1 0.499990 0.500000 0.330920 1.134451
N1    N     N_1   0.499980 0.500000 0.076820 -0.039219
N2    N     N_1   0.500020 0.500000 0.923180 -0.039219
N3    N     N_1   0.788427 0.356600 0.125330 -0.194384
N4    N     N_1   0.211568 0.643410 0.874660 -0.194383
N5    N     N_1   0.997769 0.703668 0.047223 -0.193099
N6    N     N_1   0.002229 0.296328 0.952781 -0.193107
O1    O     O_R   0.500000 0.288400 0.642760 -0.500255
O2    O     O_R   0.500000 0.711600 0.357240 -0.500254
O3    O     O_R   0.500000 0.288400 0.357240 -0.492138
O4    O     O_R   0.500000 0.711600 0.642760 -0.492136
O5    O     O_R   0.349000 0.500000 0.619590 -0.509885
O6    O     O_R   0.651000 0.500000 0.380410 -0.509887
O7    O     O_R   0.348990 0.500000 0.334020 -0.446670
O8    O     O_R   0.651010 0.500000 0.665980 -0.446671

loop_
_geom_bond_atom_site_label_1
_geom_bond_atom_site_label_2
_ccdc_geom_bond_type
C4    C16   A    
Cu1   Cu2   S    
Cu2   O2    S    
C15   O8    A    
C5    C19   A    
Cu1   O8    S    
C2    C16   A    
C13   N6    T    
Cu1   O5    S    
Cu2   O3    S    
C8    C12   S    
Cu1   O4    S    
C2    Cl1   S    
Cu2   O7    S    
C2    C19   A    
C1    O3    A    
C7    C8    T    
C11   C18   S    
C3    C10   S    
C12   O2    A    
C14   O7    A    
C14   C17   S    
C11   N5    T    
Cu2   O6    S    
N1    N2    T    
C20   Cl2   S    
C3    C17   A    
C18   C20   A    
C5    C6    A    
C6    C18   A    
C13   C19   S    
C12   O4    A    
C15   C16   S    
C15   O6    A    
C1    O1    A    
C17   C20   A    
Cu2   N1    S    
C9    N3    T    
C4    C6    A    
Cu1   N2    S    
C10   N4    T    
C14   O5    A    
C4    C9    S    
C1    C7    S    
C3    C5    A    
Cu1   O1    S    
