data_mof_unit_38670.cif
_audit_creation_date              2012-12-10T20:31:58-0500
_audit_creation_method            fapswitch 2.2
_symmetry_space_group_name_H-M    P1
_symmetry_Int_Tables_number       1
_space_group_crystal_system       triclinic
_cell_length_a                    9.885426
_cell_length_b                    10.698846
_cell_length_c                    15.385005
_cell_angle_alpha                 90.14754
_cell_angle_beta                  67.662385
_cell_angle_gamma                 89.065915
_cell_volume                      1504.78987768

loop_
_atom_site_label
_atom_site_type_symbol
_atom_type_description
_atom_site_fract_x
_atom_site_fract_y
_atom_site_fract_z
_atom_type_partial_charge
C1    C     C_R   0.501560 0.740292 0.496398 0.896464
C2    C     C_R   0.704338 0.362370 0.045482 -0.025676
C3    C     C_R   0.570246 0.427159 0.093693 0.047144
C4    C     C_R   0.408559 0.496972 0.676422 0.905306
C5    C     C_R   0.806300 0.347270 0.089210 0.385539
C6    C     C_R   0.775978 0.399912 0.178166 -0.252759
C7    C     C_R   0.549948 0.488272 0.177985 -0.226021
C8    C     C_R   0.403007 0.939019 0.463379 0.122870
C9    C     C_R   0.513217 0.871740 0.479156 -0.104199
C10   C     C_R   0.640905 0.933371 0.473575 -0.202294
C11   C     C_R   0.642418 0.062647 0.473223 -0.199783
C12   C     C_R   0.398890 0.432133 0.918293 0.088325
C13   C     C_R   0.516433 0.129060 0.478032 -0.103072
C14   C     C_R   0.404707 0.066792 0.463016 0.130149
C15   C     C_3   0.242857 0.079370 0.512520 -0.439442
C16   C     C_R   0.503478 0.260075 0.495952 0.880338
C17   C     C_3   0.240713 0.938098 0.513022 -0.482047
C18   C     C_R   0.882575 0.544719 0.575858 0.175546
C19   C     C_R   0.971075 0.445109 0.429015 -0.134001
C20   C     C_R   0.114792 0.444867 0.429093 -0.142064
C21   C     C_R   0.025307 0.545438 0.575930 0.190651
C22   C     C_3   0.002235 0.677718 0.610606 0.168726
C23   C     C_R   0.253335 0.469643 0.973991 0.205793
C24   C     C_3   0.847479 0.673832 0.613897 -0.507857
C25   C     C_R   0.591573 0.497152 0.323582 0.882590
C26   C     C_R   0.351007 0.482647 0.778518 -0.094519
C27   C     C_R   0.646573 0.469258 0.222970 -0.119278
C28   C     C_R   0.154769 0.500109 0.931307 -0.121639
C29   C     C_R   0.202677 0.502369 0.833738 -0.133229
C30   C     C_R   0.447601 0.446979 0.821068 -0.263809
C31   C     C_R   0.496061 0.394629 0.961788 -0.058677
C32   C     C_R   0.459877 0.430670 0.056392 0.055905
C33   C     C_R   0.313240 0.465972 0.111499 -0.197469
C34   C     C_R   0.210103 0.480256 0.071035 -0.172388
C35   C     C_R   0.628189 0.324434 0.914927 0.398758
C36   C     C_R   0.730294 0.310579 0.956827 -0.147009
Cl1   Cl    Cl    0.964859 0.251964 0.040351 -0.649927
Cl2   Cl    Cl    0.008785 0.697389 0.723778 -0.630151
H1    H     H_    0.098640 0.506886 0.115036 0.147732
H2    H     H_    0.455601 0.548585 0.211908 0.157087
H3    H     H_    0.071794 0.741623 0.556934 0.116401
H4    H     H_    0.761109 0.675372 0.685875 0.242249
H5    H     H_    0.827804 0.739379 0.563941 0.182332
H6    H     H_    0.849337 0.380984 0.214139 0.175280
H7    H     H_    0.829279 0.256824 0.919461 0.227237
H8    H     H_    0.041741 0.524494 0.973244 0.159391
H9    H     H_    0.125089 0.523625 0.801912 0.220037
H10   H     H_    0.562699 0.435855 0.778173 0.210888
H11   H     H_    0.274633 0.478834 0.186757 0.137129
H12   H     H_    0.734812 0.883298 0.476871 0.166535
H13   H     H_    0.560464 0.230724 0.832245 0.346450
H14   H     H_    0.736542 0.109306 0.476956 0.177635
H15   H     H_    0.209411 0.121452 0.584005 0.225140
H16   H     H_    0.189941 0.121785 0.467211 0.205255
H17   H     H_    0.206177 0.899089 0.584983 0.246531
H18   H     H_    0.186792 0.900242 0.467257 0.195616
H19   H     H_    0.952112 0.402815 0.370801 0.145281
H20   H     H_    0.203661 0.401895 0.371015 0.155751
N1    N     N_R   0.856900 0.500860 0.500610 -0.102658
N2    N     N_R   0.142540 0.500820 0.500610 -0.126784
O1    O     O_R   0.385310 0.683210 0.499990 -0.607783
O2    O     O_R   0.614650 0.683240 0.500000 -0.624166
O3    O     O_R   0.319830 0.499970 0.632240 -0.582786
O4    O     O_R   0.549170 0.500000 0.632250 -0.610653
O5    O     O_R   0.385350 0.316760 0.500000 -0.615200
O6    O     O_R   0.614690 0.316790 0.500010 -0.616394
O7    O     O_R   0.450830 0.500000 0.367750 -0.622772
O8    O     O_R   0.680170 0.500030 0.367760 -0.619817
O9    O     O_3   0.655517 0.257233 0.833183 -0.759459
Zn1   Zn    Zn3+2 0.346870 0.499980 0.499990 0.967864
Zn2   Zn    Zn3+2 0.653130 0.500020 0.500010 0.953856

loop_
_geom_bond_atom_site_label_1
_geom_bond_atom_site_label_2
_ccdc_geom_bond_type
O1    Zn1   S    
C4    C26   S    
C7    H2    S    
C23   C28   A    
C6    C27   A    
C16   O5    A    
C5    Cl1   S    
C20   N2    A    
C18   C21   A    
C24   H4    S    
C9    C10   A    
C4    O4    A    
O6    Zn2   S    
C12   C23   A    
O3    Zn1   S    
N2    Zn1   S    
C23   C34   A    
C12   C30   A    
C1    O2    A    
O7    Zn1   S    
C19   C20   A    
C2    C3    A    
C1    C9    S    
C36   H7    S    
C6    H6    S    
C21   C22   S    
C32   C33   A    
C11   C13   A    
C17   H18   S    
C28   H8    S    
C21   N2    A    
C3    C32   A    
C25   O8    A    
C35   C36   A    
C29   H9    S    
O8    Zn2   S    
C18   C24   S    
C15   H15   S    
C22   C24   S    
C4    O3    A    
C28   C29   A    
C25   O7    A    
C33   C34   A    
O2    Zn2   S    
C26   C30   A    
C3    C7    A    
C2    C36   A    
C12   C31   A    
C5    C6    A    
C31   C35   A    
C13   C16   S    
C22   H3    S    
C16   O6    A    
C10   C11   A    
C20   H20   S    
O5    Zn1   S    
C10   H12   S    
C15   H16   S    
C18   N1    A    
C7    C27   A    
C35   O9    S    
C26   C29   A    
O4    Zn2   S    
C30   H10   S    
C15   C17   S    
C24   H5    S    
C17   H17   S    
C14   C15   S    
C8    C14   A    
C11   H14   S    
H13   O9    S    
C19   N1    A    
C13   C14   A    
C33   H11   S    
C34   H1    S    
C19   H19   S    
C31   C32   A    
C2    C5    A    
C8    C17   S    
N1    Zn2   S    
C8    C9    A    
C1    O1    A    
C25   C27   S    
C22   Cl2   S    
