data_mof_unit_56918.cif
_audit_creation_date              2013-03-05T16:49:09-0500
_audit_creation_method            fapswitch 2.2
_symmetry_space_group_name_H-M    P1
_symmetry_Int_Tables_number       1
_space_group_crystal_system       triclinic
_cell_length_a                    10.934852
_cell_length_b                    10.666149
_cell_length_c                    9.417842
_cell_angle_alpha                 88.892084
_cell_angle_beta                  92.800993
_cell_angle_gamma                 87.535456
_cell_volume                      1095.84884972

loop_
_atom_site_label
_atom_site_type_symbol
_atom_site_description
_atom_site_fract_x
_atom_site_fract_y
_atom_site_fract_z
_atom_type_partial_charge
O1    O     O_R   0.500060 0.316850 0.620870 -0.557733
O2    O     O_R   0.499940 0.683150 0.379130 -0.557681
O3    O     O_R   0.500000 0.316860 0.379090 -0.590485
O4    O     O_R   0.500000 0.683140 0.620910 -0.590522
C1    C     C_R   0.503485 0.259497 0.501246 0.841784
C2    C     C_R   0.496500 0.740502 0.498753 0.841726
O5    O     O_R   0.319670 0.500010 0.620890 -0.601571
O6    O     O_R   0.680330 0.499990 0.379110 -0.601561
O7    O     O_R   0.319620 0.500010 0.379110 -0.569350
O8    O     O_R   0.680380 0.499990 0.620890 -0.569357
C3    C     C_R   0.262082 0.503146 0.496558 0.790060
C4    C     C_R   0.737920 0.496871 0.503442 0.790087
Cu1   Cu    Cu3+1 0.500030 0.499990 0.643150 0.967566
Cu2   Cu    Cu3+1 0.499970 0.500010 0.356850 0.967605
H1    H     H_    0.110910 0.773522 0.877834 0.138254
H2    H     H_    0.889055 0.226632 0.122228 0.138294
C5    C     C_R   0.083687 0.804802 0.099450 -0.005482
C6    C     C_R   0.916329 0.195314 0.900628 -0.005485
H3    H     H_    0.069387 0.905375 0.085196 0.154511
H4    H     H_    0.930631 0.094741 0.914903 0.154437
C7    C     C_R   0.076357 0.748899 0.234236 -0.084089
C8    C     C_R   0.923694 0.251197 0.765837 -0.083928
H5    H     H_    0.052238 0.806479 0.322989 0.154573
H6    H     H_    0.947870 0.193613 0.677110 0.154753
C9    C     C_R   0.092499 0.618220 0.252663 0.098356
C10   C     C_R   0.907515 0.381869 0.747368 0.098331
C11   C     C_R   0.113630 0.544404 0.134410 -0.121747
C12   C     C_R   0.886363 0.455707 0.865598 -0.121808
H7    H     H_    0.117486 0.443023 0.145206 0.135816
H8    H     H_    0.882496 0.557087 0.854774 0.135784
C13   C     C_R   0.120552 0.600397 0.999931 -0.190275
C14   C     C_R   0.879430 0.399738 0.000089 -0.190294
H9    H     H_    0.134752 0.542429 0.908707 0.141870
H10   H     H_    0.865209 0.457724 0.091295 0.141884
C15   C     C_R   0.106325 0.730547 0.982382 -0.134856
C16   C     C_R   0.893660 0.269589 0.017672 -0.134883
C17   C     C_R   0.924174 0.555608 0.392104 -0.242745
C18   C     C_R   0.075828 0.444448 0.607905 -0.242774
H11   H     H_    0.865642 0.599858 0.307366 0.152183
H12   H     H_    0.134358 0.400200 0.692645 0.152198
C19   C     C_R   0.871915 0.498543 0.507918 -0.064864
C20   C     C_R   0.128087 0.501503 0.492087 -0.064854
C21   C     C_R   0.949395 0.442405 0.617922 -0.004407
C22   C     C_R   0.050610 0.557661 0.382093 -0.004423
C23   C     C_3   0.587209 0.030787 0.591392 0.435602
C24   C     C_3   0.412753 0.969207 0.408605 0.435645
C25   C     C_3   0.609043 0.950733 0.460293 -0.271077
C26   C     C_3   0.390918 0.049264 0.539703 -0.271135
H13   H     H_    0.698455 0.909033 0.429506 0.171510
H14   H     H_    0.301503 0.090961 0.570486 0.171482
C27   C     C_3   0.496454 0.877017 0.497572 -0.144890
C28   C     C_3   0.503509 0.122980 0.502427 -0.144788
C29   C     C_3   0.476796 0.955869 0.631115 -0.245436
C30   C     C_3   0.523167 0.044126 0.368885 -0.245123
H15   H     H_    0.459818 0.918972 0.739125 0.180087
H16   H     H_    0.540146 0.081023 0.260874 0.180064
C31   C     C_3   0.507669 0.612534 0.048193 -0.021548
C32   C     C_3   0.492330 0.387465 0.951807 -0.021549
C33   C     C_3   0.408472 0.567526 0.942235 -0.011493
C34   C     C_3   0.591527 0.432474 0.057765 -0.011487
H17   H     H_    0.336258 0.628642 0.886541 0.134526
H18   H     H_    0.663741 0.371359 0.113460 0.134536
H19   H     H_    0.515417 0.707441 0.092985 0.168710
H20   H     H_    0.484592 0.292557 0.907014 0.168680
N1    N     N_3   0.500090 0.499970 0.858290 -0.170412
N2    N     N_3   0.499910 0.500030 0.141710 -0.170411
C35   C     C_3   0.599390 0.545189 0.954305 -0.045623
C36   C     C_3   0.400609 0.454811 0.045695 -0.045584
H21   H     H_    0.679006 0.590385 0.910774 0.126128
H22   H     H_    0.320984 0.409629 0.089226 0.126153
N3    N     N_R   0.683041 0.063187 0.694598 0.107114
O9    O     O_R   0.790895 0.007080 0.691896 -0.425783
O10   O     O_R   0.655401 0.130207 0.803249 -0.395051
N4    N     N_R   0.316944 0.936809 0.305367 0.106961
O11   O     O_R   0.209284 0.993451 0.307576 -0.425663
O12   O     O_R   0.344656 0.869601 0.196850 -0.395048

loop_
_geom_bond_atom_site_label_1
_geom_bond_atom_site_label_2
_geom_bond_distance
_ccdc_geom_bond_type
N2    C36   1.481653 S    
C11   H7    1.082971 S    
C31   N2    1.482581 S    
C25   H13   1.110455 S    
Cu1   N1    2.026118 S    
O5    C3    1.301295 A    
N4    O12   1.300034 A    
O1    C1    1.293698 A    
C14   C16   1.395971 A    
C18   C20   1.397060 A    
C31   C33   1.536343 S    
C23   N3    1.451512 S    
C32   C34   1.536347 S    
C3    C20   1.464624 S    
C34   H18   1.107083 S    
C23   C25   1.537053 S    
O4    Cu1   1.960656 S    
C34   C35   1.540756 S    
N1    C35   1.481645 S    
C13   H9    1.081586 S    
C1    C28   1.455924 S    
C2    C27   1.455893 S    
C26   H14   1.110456 S    
C23   C29   1.533540 S    
Cu1   Cu2   2.696292 S    
C19   C21   1.412885 A    
O2    C2    1.293694 A    
C20   C22   1.412883 A    
C31   C35   1.533948 S    
C9    C22   1.470527 S    
H1    C15   1.082334 S    
C28   C30   1.545035 S    
C10   C21   1.470515 S    
C31   H19   1.109165 S    
C30   H16   1.110566 S    
C29   H15   1.110566 S    
C32   H20   1.109173 S    
C26   C29   1.556503 S    
C24   C26   1.537064 S    
C33   H17   1.107085 S    
N4    O11   1.301172 A    
C11   C13   1.396581 A    
C12   C14   1.396594 A    
O4    C2    1.290661 A    
N3    O10   1.299741 A    
C25   C27   1.540130 S    
C23   C28   1.523956 S    
C24   C27   1.523954 S    
C5    C7    1.399318 A    
C18   C21   1.391402 A    
C27   C29   1.545035 S    
C14   H10   1.081589 S    
O7    Cu2   1.993374 S    
C4    C19   1.464649 S    
C33   C36   1.540756 S    
C32   N1    1.482586 S    
O5    Cu1   1.973098 S    
O6    C4    1.301305 A    
C24   C30   1.533551 S    
Cu2   N2    2.026118 S    
O7    C3    1.299267 A    
O3    Cu2   1.960656 S    
O8    C4    1.299268 A    
C25   C30   1.556458 S    
C32   C36   1.533958 S    
C7    H5    1.082992 S    
C8    H6    1.082987 S    
O1    Cu1   1.968652 S    
C24   N4    1.451518 S    
C7    C9    1.403774 A    
O6    Cu2   1.973098 S    
C6    C8    1.399323 A    
O3    C1    1.290668 A    
O8    Cu1   1.993374 S    
C9    C11   1.398927 A    
C10   C12   1.398925 A    
C17   C22   1.391432 A    
C12   H8    1.082982 S    
N3    O9    1.300960 A    
C17   H11   1.085739 S    
C33   N1    1.478253 S    
C18   H12   1.085742 S    
C13   C15   1.395947 A    
C5    H3    1.082212 S    
C6    H4    1.082226 S    
C17   C19   1.397083 A    
O2    Cu2   1.968652 S    
C34   N2    1.478248 S    
C26   C28   1.540149 S    
C36   H22   1.105328 S    
C8    C10   1.403759 A    
C5    C15   1.395605 A    
C35   H21   1.105320 S    
C6    C16   1.395612 A    
H2    C16   1.082344 S    
