data_mof_unit_16655.cif
_audit_creation_date              2012-12-11T17:02:14-0500
_audit_creation_method            fapswitch 2.2
_symmetry_space_group_name_H-M    P1
_symmetry_Int_Tables_number       1
_space_group_crystal_system       triclinic
_cell_length_a                    21.695478
_cell_length_b                    7.057903
_cell_length_c                    15.032591
_cell_angle_alpha                 90.001604
_cell_angle_beta                  107.297249
_cell_angle_gamma                 89.999191
_cell_volume                      2197.75776638

loop_
_atom_site_label
_atom_site_type_symbol
_atom_type_description
_atom_site_fract_x
_atom_site_fract_y
_atom_site_fract_z
_atom_type_partial_charge
O1    O     O_R   0.585850 0.505770 0.002130 -0.537021
O2    O     O_R   0.414150 0.005770 0.997870 -0.536933
O3    O     O_R   0.467530 0.173560 0.861970 -0.526938
O4    O     O_R   0.532470 0.673560 0.138030 -0.526985
C1    C     C_R   0.457707 0.344382 0.824928 0.717787
C2    C     C_R   0.542301 0.844383 0.175073 0.717667
O5    O     O_R   0.588690 0.175900 0.993250 -0.539171
O6    O     O_R   0.411310 0.675900 0.006750 -0.539241
O7    O     O_R   0.536170 0.007950 0.130090 -0.547142
O8    O     O_R   0.463830 0.507950 0.869910 -0.547142
C3    C     C_R   0.614827 0.345408 0.996240 0.699464
C4    C     C_R   0.385173 0.845410 0.003760 0.699468
O9    O     O_3   0.482630 0.339970 0.044740 -0.379991
O10   O     O_3   0.517370 0.839970 0.955260 -0.379993
V1    V     V_3+5 0.503220 0.064200 0.991700 1.455937
V2    V     V_3+5 0.496780 0.564200 0.008300 1.455820
C5    C     C_R   0.275396 0.000973 0.955598 0.116415
C6    C     C_R   0.724604 0.500962 0.044415 0.116366
C7    C     C_R   0.316518 0.856123 0.003292 -0.097845
C8    C     C_R   0.683482 0.356116 0.996711 -0.097786
C9    C     C_R   0.288431 0.712074 0.043710 -0.133374
C10   C     C_R   0.711568 0.212080 0.956275 -0.133356
H1    H     H_    0.317533 0.594568 0.079247 0.114501
H2    H     H_    0.682465 0.094579 0.920728 0.114539
C11   C     C_R   0.222810 0.720554 0.040830 -0.117459
C12   C     C_R   0.777188 0.220569 0.959153 -0.117532
H3    H     H_    0.203635 0.609936 0.074914 0.118388
H4    H     H_    0.796362 0.109961 0.925057 0.118399
C13   C     C_R   0.183468 0.875020 0.998780 -0.102185
C14   C     C_R   0.816530 0.375032 0.001215 -0.102187
C15   C     C_R   0.210727 0.009242 0.953624 0.048135
C16   C     C_R   0.789271 0.509247 0.046382 0.048258
C17   C     C_3   0.209786 0.219764 0.959001 -0.267329
C18   C     C_3   0.790203 0.719773 0.041013 -0.267373
C19   C     C_3   0.281679 0.212653 0.964870 -0.255454
C20   C     C_3   0.718314 0.712631 0.035153 -0.255537
H5    H     H_    0.201672 0.271587 0.024484 0.109330
H6    H     H_    0.798312 0.771607 0.975532 0.109334
H7    H     H_    0.313754 0.255706 0.034417 0.087847
H8    H     H_    0.686231 0.755661 0.965610 0.087905
C21   C     C_R   0.926006 0.888791 0.724279 -0.038393
C22   C     C_R   0.074011 0.388796 0.275716 -0.038364
C23   C     C_R   0.567153 0.846372 0.277345 -0.040079
C24   C     C_R   0.432852 0.346413 0.722660 -0.039943
C25   C     C_R   0.931919 0.972718 0.571544 -0.156509
C26   C     C_R   0.068088 0.472309 0.428478 -0.156532
C27   C     C_R   0.961855 0.949001 0.666373 -0.167532
C28   C     C_R   0.038153 0.448729 0.333643 -0.167534
C29   C     C_R   0.859998 0.850759 0.687265 -0.214480
C30   C     C_R   0.140027 0.350978 0.312712 -0.214448
C31   C     C_R   0.827963 0.876957 0.591205 0.084676
C32   C     C_R   0.172066 0.377113 0.408775 0.084721
C33   C     C_R   0.865387 0.940768 0.533910 0.122040
C34   C     C_R   0.134627 0.440539 0.466099 0.121987
C35   C     C_R   0.760110 0.846520 0.550632 0.058989
C36   C     C_R   0.239930 0.346925 0.449332 0.059066
C37   C     C_R   0.730548 0.890569 0.454492 0.044678
C38   C     C_R   0.269473 0.390700 0.545504 0.044680
C39   C     C_R   0.770269 0.952093 0.400756 -0.141565
C40   C     C_R   0.229738 0.451803 0.599271 -0.141687
C41   C     C_R   0.836215 0.975174 0.439659 -0.167562
C42   C     C_R   0.163790 0.474729 0.560369 -0.167616
C43   C     C_R   0.721101 0.769643 0.602186 -0.188735
C44   C     C_R   0.278977 0.270597 0.397725 -0.188765
C45   C     C_R   0.655872 0.733333 0.560874 -0.203250
C46   C     C_R   0.344212 0.234386 0.439030 -0.203316
C47   C     C_R   0.626546 0.775304 0.467262 0.137602
C48   C     C_R   0.373509 0.275950 0.532685 0.137625
C49   C     C_R   0.662721 0.861939 0.413880 0.078764
C50   C     C_R   0.337304 0.362200 0.586110 0.078720
C51   C     C_R   0.561624 0.725869 0.425536 -0.165728
C52   C     C_R   0.438432 0.226520 0.574406 -0.165765
C53   C     C_R   0.532987 0.754528 0.330382 -0.185346
C54   C     C_R   0.467044 0.254847 0.669585 -0.185501
C55   C     C_R   0.629869 0.909761 0.320497 -0.144012
C56   C     C_R   0.370131 0.409783 0.679528 -0.144008
H9    H     H_    0.864639 0.022014 0.395390 0.141665
H10   H     H_    0.135355 0.521258 0.604658 0.141797
H11   H     H_    0.652549 0.988961 0.278489 0.102413
H12   H     H_    0.347431 0.488816 0.721571 0.102436
H13   H     H_    0.484449 0.703046 0.297786 0.105721
H14   H     H_    0.515588 0.203396 0.702166 0.105701
H15   H     H_    0.628339 0.668646 0.602374 0.120261
H16   H     H_    0.371775 0.170103 0.397485 0.120280
H17   H     H_    0.960513 0.021313 0.527886 0.123963
H18   H     H_    0.039485 0.520647 0.472156 0.123981
H19   H     H_    0.012724 0.981768 0.695077 0.133127
H20   H     H_    0.987276 0.481346 0.304953 0.133105
H21   H     H_    0.834644 0.811678 0.736234 0.089803
H22   H     H_    0.165373 0.312034 0.263727 0.089766
H23   H     H_    0.752295 0.978556 0.327183 0.148231
H24   H     H_    0.247706 0.478069 0.672862 0.148331
H25   H     H_    0.739943 0.728889 0.674206 0.118242
H26   H     H_    0.260169 0.230217 0.325657 0.118221
H27   H     H_    0.533995 0.656550 0.465576 0.118585
H28   H     H_    0.466079 0.157461 0.534337 0.118614
O11   O     O_R   0.036080 0.231270 0.130120 -0.541474
O12   O     O_R   0.963920 0.731270 0.869880 -0.541481
O13   O     O_R   0.911300 0.558970 0.006750 -0.549835
O14   O     O_R   0.088700 0.058970 0.993250 -0.549824
C57   C     C_R   0.884647 0.389594 0.000597 0.694834
C58   C     C_R   0.115353 0.889590 0.999401 0.694823
O15   O     O_R   0.032450 0.561140 0.138040 -0.541542
O16   O     O_R   0.967550 0.061140 0.861960 -0.541553
O17   O     O_R   0.085870 0.728910 0.002130 -0.521901
O18   O     O_R   0.914130 0.228910 0.997870 -0.521910
C59   C     C_R   0.045003 0.392789 0.174845 0.688932
C60   C     C_R   0.955001 0.892785 0.825153 0.688910
O19   O     O_3   0.017320 0.394650 0.955270 -0.360823
O20   O     O_3   0.982680 0.894650 0.044730 -0.360855
V3    V     V_3+5 0.996780 0.670490 0.008300 1.463847
V4    V     V_3+5 0.003220 0.170490 0.991700 1.463835
C61   C     C_2   0.163833 0.305840 0.872044 0.842312
O21   O     O_2   0.158410 0.237906 0.795142 -0.565984
O22   O     O_R   0.127470 0.464325 0.880314 -0.645747
H29   H     H_    0.098625 0.510437 0.817933 0.282853
C62   C     C_2   0.836152 0.805868 0.127969 0.842268
O23   O     O_2   0.841620 0.737847 0.204860 -0.565914
O24   O     O_R   0.872459 0.964474 0.119712 -0.645796
H30   H     H_    0.901309 0.010584 0.182091 0.282860
C63   C     C_2   0.298681 0.311546 0.886772 0.833381
O25   O     O_2   0.318589 0.222891 0.831119 -0.563758
O26   O     O_R   0.290213 0.507390 0.878695 -0.663272
H31   H     H_    0.304582 0.566170 0.827115 0.268788
C64   C     C_2   0.701307 0.811532 0.113250 0.833542
O27   O     O_2   0.681532 0.722862 0.169010 -0.563730
O28   O     O_R   0.709641 0.007415 0.121216 -0.663300
H32   H     H_    0.695330 0.066240 0.172839 0.268805

loop_
_geom_bond_atom_site_label_1
_geom_bond_atom_site_label_2
_ccdc_geom_bond_type
C23   C53   A    
C46   C48   A    
C43   C45   A    
C21   C60   S    
C25   H17   S    
C20   C64   S    
O1    C3    A    
O2    C4    A    
C2    O7    A    
O26   H31   S    
O18   V4    S    
O5    C3    A    
O15   V3    S    
C7    C9    A    
C61   O21   D    
C62   O24   S    
C52   H28   S    
C37   C39   A    
C47   C51   A    
C51   H27   S    
C38   C40   A    
O22   H29   S    
O12   C60   A    
C14   C57   S    
C58   O17   A    
C40   C42   A    
C21   C29   A    
C24   C56   A    
O20   V3    S    
O19   V3    S    
C17   C19   S    
C33   C41   A    
C30   H22   S    
C41   H9    S    
C45   C47   A    
C35   C43   A    
C30   C32   A    
C28   H20   S    
C22   C59   S    
C18   C20   S    
C48   C52   A    
C18   C62   S    
O5    V1    S    
O17   V3    S    
C25   C33   A    
O6    V2    S    
C23   C55   A    
C54   H14   S    
C53   H13   S    
C32   C34   A    
C25   C27   A    
C11   C13   A    
C26   C28   A    
C3    C8    S    
C39   C41   A    
C15   C17   S    
C20   H8    S    
C52   C54   A    
O19   V4    S    
C51   C53   A    
O11   V4    S    
C38   C50   A    
C22   C28   A    
C34   C42   A    
C31   C35   A    
C29   C31   A    
C17   H5    S    
C61   O22   S    
C31   C33   A    
C16   C18   S    
O4    V2    S    
C19   H7    S    
C19   C63   S    
O6    C4    A    
O13   V3    S    
C26   C34   A    
C36   C44   A    
C21   C27   A    
O1    V2    S    
C39   H23   S    
C24   C54   A    
O2    V1    S    
C63   O25   D    
C22   C30   A    
O4    C2    A    
O13   C57   A    
C1    C24   S    
C8    C10   A    
O14   V4    S    
C2    C23   S    
C9    H1    S    
C50   C56   A    
C64   O27   D    
C5    C15   A    
C10   H2    S    
C6    C16   A    
O28   H32   S    
O16   C60   A    
O3    V1    S    
O16   V4    S    
O14   C58   A    
C57   O18   A    
C9    C11   A    
O12   V3    S    
C18   H6    S    
C17   C61   S    
C42   H10   S    
C56   H12   S    
C29   H21   S    
O3    C1    A    
O24   H30   S    
C12   C14   A    
C11   H3    S    
C43   H25   S    
C12   H4    S    
C37   C49   A    
C35   C37   A    
O7    V1    S    
C44   H26   S    
C1    O8    A    
C13   C15   A    
O8    V2    S    
C62   O23   D    
C14   C16   A    
C6    C20   S    
C4    C7    S    
C5    C7    A    
C36   C38   A    
C13   C58   S    
C49   C55   A    
C6    C8    A    
O20   V4    S    
C63   O26   S    
C45   H15   S    
C46   H16   S    
O11   C59   A    
C48   C50   A    
C10   C12   A    
O9    V2    S    
C64   O28   S    
O10   V1    S    
O15   C59   A    
C5    C19   S    
C47   C49   A    
C40   H24   S    
C55   H11   S    
C32   C36   A    
C44   C46   A    
C26   H18   S    
C27   H19   S    
