data_mof_unit_62692.cif
_audit_creation_date              2012-12-10T17:53:36-0500
_audit_creation_method            fapswitch 2.2
_symmetry_space_group_name_H-M    P1
_symmetry_Int_Tables_number       1
_space_group_crystal_system       triclinic
_cell_length_a                    19.646909
_cell_length_b                    19.646919
_cell_length_c                    51.654263
_cell_angle_alpha                 90.000251
_cell_angle_beta                  90.00026
_cell_angle_gamma                 89.999898
_cell_volume                      19938.609038

loop_
_atom_site_label
_atom_site_type_symbol
_atom_type_description
_atom_site_fract_x
_atom_site_fract_y
_atom_site_fract_z
_atom_type_partial_charge
C1    C     C_R   0.624495 0.003608 0.013657 0.365940
C2    C     C_R   0.375505 0.003573 0.986343 0.365940
C3    C     C_R   0.996219 0.624489 0.013659 0.365939
C4    C     C_R   0.996600 0.375500 0.986345 0.365941
C5    C     C_R   0.375506 0.996391 0.013657 0.365939
C6    C     C_R   0.624496 0.996428 0.986344 0.365940
C7    C     C_R   0.003781 0.375511 0.013658 0.365938
C8    C     C_R   0.003400 0.624500 0.986345 0.365940
C9    C     C_R   0.124498 0.503477 0.513656 0.365943
C10   C     C_R   0.875507 0.503705 0.486342 0.365942
C11   C     C_R   0.496051 0.124484 0.513660 0.365936
C12   C     C_R   0.496767 0.875494 0.486346 0.365945
C13   C     C_R   0.875501 0.496522 0.513656 0.365944
C14   C     C_R   0.124492 0.496296 0.486342 0.365939
C15   C     C_R   0.503947 0.875515 0.513660 0.365939
C16   C     C_R   0.503231 0.124505 0.486347 0.365947
C17   C     C_R   0.439525 0.995333 0.054852 0.596640
C18   C     C_R   0.560477 0.995352 0.945148 0.596636
C19   C     C_R   0.004745 0.439531 0.054854 0.596633
C20   C     C_R   0.004572 0.560483 0.945150 0.596642
C21   C     C_R   0.560476 0.004665 0.054852 0.596637
C22   C     C_R   0.439523 0.004650 0.945148 0.596638
C23   C     C_R   0.995254 0.560469 0.054854 0.596635
C24   C     C_R   0.995430 0.439517 0.945149 0.596642
C25   C     C_R   0.939520 0.495393 0.554851 0.596642
C26   C     C_R   0.060471 0.495290 0.445147 0.596634
C27   C     C_R   0.504821 0.939536 0.554855 0.596631
C28   C     C_R   0.504491 0.060488 0.445151 0.596646
C29   C     C_R   0.060480 0.504605 0.554851 0.596639
C30   C     C_R   0.939527 0.504711 0.445147 0.596635
C31   C     C_R   0.495178 0.060463 0.554855 0.596631
C32   C     C_R   0.495510 0.939511 0.445151 0.596644
C33   C     C_R   0.562293 0.002583 0.027468 -0.088584
C34   C     C_R   0.437707 0.002566 0.972532 -0.088582
C35   C     C_R   0.997332 0.562289 0.027470 -0.088581
C36   C     C_R   0.997519 0.437703 0.972534 -0.088586
C37   C     C_R   0.437707 0.997416 0.027468 -0.088584
C38   C     C_R   0.562294 0.997435 0.972532 -0.088581
C39   C     C_R   0.002668 0.437711 0.027470 -0.088580
C40   C     C_R   0.002482 0.562297 0.972534 -0.088584
C41   C     C_R   0.062295 0.502519 0.527467 -0.088585
C42   C     C_R   0.937708 0.502631 0.472531 -0.088582
C43   C     C_R   0.497249 0.062285 0.527471 -0.088579
C44   C     C_R   0.497602 0.937699 0.472535 -0.088586
C45   C     C_R   0.937704 0.497480 0.527467 -0.088586
C46   C     C_R   0.062290 0.497370 0.472531 -0.088581
C47   C     C_R   0.502749 0.937713 0.527471 -0.088580
C48   C     C_R   0.502398 0.062300 0.472535 -0.088588
C49   C     C_R   0.500000 1.000000 0.013727 -0.164582
C50   C     C_R   0.500000 0.000000 0.986273 -0.164583
C51   C     C_R   1.000000 0.500000 0.013729 -0.164583
C52   C     C_R   0.000000 0.500000 0.986275 -0.164582
C53   C     C_R   1.000000 0.500000 0.513726 -0.164582
C54   C     C_R   1.000000 0.500000 0.486272 -0.164582
C55   C     C_R   0.499999 0.999999 0.513731 -0.164582
C56   C     C_R   0.500000 0.999999 0.486276 -0.164583
C57   C     C_R   0.973695 0.443562 0.390314 0.476331
C58   C     C_R   0.026230 0.443526 0.609684 0.476317
C59   C     C_R   0.556515 0.973860 0.390317 0.476292
C60   C     C_R   0.556402 0.026381 0.609688 0.476350
C61   C     C_R   0.026303 0.556440 0.390314 0.476331
C62   C     C_R   0.973769 0.556472 0.609684 0.476316
C63   C     C_R   0.443486 0.026140 0.390317 0.476292
C64   C     C_R   0.443596 0.973618 0.609688 0.476351
C65   C     C_R   0.473744 0.943540 0.890315 0.476318
C66   C     C_R   0.526273 0.943546 0.109685 0.476327
C67   C     C_R   0.056485 0.473795 0.890316 0.476306
C68   C     C_R   0.056427 0.526329 0.109687 0.476338
C69   C     C_R   0.526256 0.056462 0.890315 0.476319
C70   C     C_R   0.473727 0.056452 0.109685 0.476324
C71   C     C_R   0.943516 0.526205 0.890316 0.476306
C72   C     C_R   0.943572 0.473671 0.109686 0.476339
C73   C     C_R   0.999999 0.500001 0.404155 -0.163781
C74   C     C_R   1.000000 0.499999 0.595843 -0.163792
C75   C     C_R   0.500001 1.000000 0.404159 -0.163786
C76   C     C_R   0.499999 0.999999 0.595846 -0.163774
C77   C     C_R   0.500000 0.000001 0.904157 -0.163777
C78   C     C_R   0.500000 0.999999 0.095844 -0.163788
C79   C     C_R   0.000001 0.500000 0.904158 -0.163791
C80   C     C_R   0.999999 0.500000 0.095845 -0.163781
C81   C     C_R   1.000000 0.500000 0.179670 0.846060
C82   C     C_R   0.000000 0.500000 0.820331 0.846188
C83   C     C_R   0.500000 1.000000 0.179669 0.846117
C84   C     C_R   0.500000 0.000000 0.820331 0.846135
C85   C     C_R   0.500000 1.000000 0.679670 0.846003
C86   C     C_R   0.500000 1.000000 0.320331 0.846261
C87   C     C_R   1.000000 0.500000 0.679669 0.846164
C88   C     C_R   1.000000 0.500000 0.320330 0.846082
C89   C     C_R   0.870515 0.629484 0.250000 0.833012
C90   C     C_R   0.129484 0.370516 0.750000 0.828182
C91   C     C_R   0.370515 0.870515 0.250000 0.833015
C92   C     C_R   0.629483 0.129484 0.750000 0.828191
C93   C     C_R   0.129484 0.370515 0.250000 0.833008
C94   C     C_R   0.870516 0.629483 0.750000 0.828179
C95   C     C_R   0.629485 0.129484 0.250000 0.833015
C96   C     C_R   0.370516 0.870516 0.750000 0.828191
C97   C     C_R   0.870515 0.370515 0.750000 0.833015
C98   C     C_R   0.129483 0.629484 0.250000 0.828190
C99   C     C_R   0.370515 0.129485 0.750000 0.833012
C100  C     C_R   0.629484 0.870516 0.250000 0.828181
C101  C     C_R   0.129485 0.629484 0.750000 0.833014
C102  C     C_R   0.870516 0.370516 0.250000 0.828191
C103  C     C_R   0.629484 0.870515 0.750000 0.833009
C104  C     C_R   0.370516 0.129484 0.250000 0.828177
C105  C     C_R   0.969644 0.445658 0.363239 0.382785
C106  C     C_R   0.030290 0.445621 0.636759 0.382744
C107  C     C_R   0.554424 0.969792 0.363243 0.382689
C108  C     C_R   0.554303 0.030425 0.636762 0.382836
C109  C     C_R   0.030354 0.554343 0.363240 0.382784
C110  C     C_R   0.969710 0.554377 0.636759 0.382746
C111  C     C_R   0.445577 0.030208 0.363243 0.382689
C112  C     C_R   0.445695 0.969575 0.636762 0.382833
C113  C     C_R   0.469688 0.945634 0.863241 0.382758
C114  C     C_R   0.530328 0.945642 0.136760 0.382770
C115  C     C_R   0.054392 0.469734 0.863242 0.382728
C116  C     C_R   0.054329 0.530378 0.136761 0.382804
C117  C     C_R   0.530311 0.054367 0.863241 0.382757
C118  C     C_R   0.469672 0.054356 0.136760 0.382770
C119  C     C_R   0.945610 0.530267 0.863242 0.382728
C120  C     C_R   0.945669 0.469623 0.136761 0.382803
C121  C     C_1   0.181165 0.681165 0.250000 -0.113830
C122  C     C_1   0.818833 0.318832 0.750000 -0.116270
C123  C     C_1   0.318835 0.181165 0.250000 -0.113853
C124  C     C_1   0.681167 0.818832 0.750000 -0.116278
C125  C     C_1   0.818835 0.318835 0.250000 -0.113830
C126  C     C_1   0.181168 0.681167 0.750000 -0.116271
C127  C     C_1   0.681165 0.818835 0.250000 -0.113855
C128  C     C_1   0.318832 0.181167 0.750000 -0.116281
C129  C     C_1   0.181165 0.318835 0.750000 -0.113852
C130  C     C_1   0.818832 0.681167 0.250000 -0.116281
C131  C     C_1   0.318835 0.818835 0.750000 -0.113829
C132  C     C_1   0.681168 0.181167 0.250000 -0.116270
C133  C     C_1   0.818835 0.681165 0.750000 -0.113850
C134  C     C_1   0.181167 0.318832 0.250000 -0.116279
C135  C     C_1   0.681165 0.181165 0.750000 -0.113829
C136  C     C_1   0.318833 0.818832 0.250000 -0.116270
C137  C     C_1   0.224575 0.724575 0.250000 0.032079
C138  C     C_1   0.775423 0.275422 0.750000 0.031288
C139  C     C_1   0.275425 0.224575 0.250000 0.032064
C140  C     C_1   0.724577 0.775423 0.750000 0.031278
C141  C     C_1   0.775425 0.275425 0.250000 0.032079
C142  C     C_1   0.224577 0.724577 0.750000 0.031288
C143  C     C_1   0.724575 0.775425 0.250000 0.032064
C144  C     C_1   0.275423 0.224577 0.750000 0.031278
C145  C     C_1   0.224575 0.275425 0.750000 0.032066
C146  C     C_1   0.775423 0.724577 0.250000 0.031277
C147  C     C_1   0.275425 0.775425 0.750000 0.032079
C148  C     C_1   0.724578 0.224577 0.250000 0.031288
C149  C     C_1   0.775425 0.724575 0.750000 0.032066
C150  C     C_1   0.224577 0.275423 0.250000 0.031277
C151  C     C_1   0.724575 0.224575 0.750000 0.032079
C152  C     C_1   0.275423 0.775422 0.250000 0.031288
C153  C     C_R   0.999999 0.500001 0.349212 -0.447591
C154  C     C_R   1.000000 0.499999 0.650787 -0.447617
C155  C     C_R   0.500000 0.000000 0.349214 -0.447643
C156  C     C_R   0.499999 1.000000 0.650790 -0.447566
C157  C     C_R   0.500000 0.000001 0.849212 -0.447607
C158  C     C_R   0.500000 0.999999 0.150788 -0.447603
C159  C     C_R   0.000000 0.500000 0.849213 -0.447625
C160  C     C_R   0.999999 0.500000 0.150789 -0.447583
N1    N     N_R   0.500000 0.999999 0.067821 -0.380258
N2    N     N_R   0.500000 0.000001 0.932180 -0.380258
N3    N     N_R   0.999999 0.500000 0.067822 -0.380263
N4    N     N_R   0.000001 0.500000 0.932181 -0.380252
N5    N     N_R   1.000000 0.499999 0.567819 -0.380254
N6    N     N_R   0.999999 0.500001 0.432179 -0.380260
N7    N     N_R   0.499999 0.999999 0.567823 -0.380269
N8    N     N_R   0.500001 1.000000 0.432183 -0.380248
O1    O     O_3   0.000000 0.500000 0.250000 -0.499816
O2    O     O_3   0.000000 0.500000 0.750000 -0.499819
O3    O     O_3   0.500000 0.000000 0.250000 -0.499819
O4    O     O_3   0.500000 0.000000 0.750000 -0.499816
O5    O     O_R   0.055830 0.500000 0.192320 -0.615248
O6    O     O_R   0.944170 0.500000 0.807680 -0.615248
O7    O     O_R   0.500000 0.055830 0.192320 -0.615247
O8    O     O_R   0.500000 0.944170 0.807680 -0.615247
O9    O     O_R   0.944170 0.500000 0.192320 -0.615250
O10   O     O_R   0.055830 0.500000 0.807680 -0.615248
O11   O     O_R   0.500000 0.944170 0.192320 -0.615249
O12   O     O_R   0.500000 0.055830 0.807680 -0.615248
O13   O     O_R   0.555830 0.000000 0.692320 -0.615248
O14   O     O_R   0.444170 0.000000 0.307680 -0.615246
O15   O     O_R   0.000000 0.555830 0.692320 -0.615246
O16   O     O_R   0.000000 0.444170 0.307680 -0.615249
O17   O     O_R   0.444170 0.000000 0.692320 -0.615251
O18   O     O_R   0.555830 0.000000 0.307680 -0.615247
O19   O     O_R   0.000000 0.444170 0.692320 -0.615248
O20   O     O_R   0.000000 0.555830 0.307680 -0.615248
O21   O     O_R   0.865940 0.578550 0.235150 -0.625106
O22   O     O_R   0.134060 0.421450 0.764850 -0.627192
O23   O     O_R   0.421450 0.865940 0.235150 -0.625104
O24   O     O_R   0.578550 0.134060 0.764850 -0.627192
O25   O     O_R   0.134060 0.421450 0.235150 -0.625106
O26   O     O_R   0.865940 0.578550 0.764850 -0.627192
O27   O     O_R   0.578550 0.134060 0.235150 -0.625103
O28   O     O_R   0.421450 0.865940 0.764850 -0.627190
O29   O     O_R   0.865940 0.421450 0.764850 -0.625091
O30   O     O_R   0.134060 0.578550 0.235150 -0.627182
O31   O     O_R   0.421450 0.134060 0.764850 -0.625093
O32   O     O_R   0.578550 0.865940 0.235150 -0.627184
O33   O     O_R   0.134060 0.578550 0.764850 -0.625092
O34   O     O_R   0.865940 0.421450 0.235150 -0.627184
O35   O     O_R   0.578550 0.865940 0.764850 -0.625093
O36   O     O_R   0.421450 0.134060 0.235150 -0.627184
O37   O     O_R   0.365940 0.078550 0.735150 -0.625114
O38   O     O_R   0.634060 0.921450 0.264850 -0.627201
O39   O     O_R   0.921450 0.365940 0.735150 -0.625097
O40   O     O_R   0.078550 0.634060 0.264850 -0.627184
O41   O     O_R   0.634060 0.921450 0.735150 -0.625114
O42   O     O_R   0.365940 0.078550 0.264850 -0.627201
O43   O     O_R   0.078550 0.634060 0.735150 -0.625095
O44   O     O_R   0.921450 0.365940 0.264850 -0.627182
O45   O     O_R   0.365940 0.921450 0.264850 -0.625081
O46   O     O_R   0.634060 0.078550 0.735150 -0.627174
O47   O     O_R   0.921450 0.634060 0.264850 -0.625101
O48   O     O_R   0.078550 0.365940 0.735150 -0.627191
O49   O     O_R   0.634060 0.078550 0.264850 -0.625082
O50   O     O_R   0.365940 0.921450 0.735150 -0.627176
O51   O     O_R   0.078550 0.365940 0.264850 -0.625101
O52   O     O_R   0.921450 0.634060 0.735150 -0.627191
O53   O     O_2   0.381467 0.989297 0.068608 -0.426668
O54   O     O_2   0.618536 0.989333 0.931392 -0.426676
O55   O     O_2   0.010853 0.381481 0.068610 -0.426673
O56   O     O_2   0.010519 0.618550 0.931394 -0.426668
O57   O     O_2   0.618533 0.010700 0.068608 -0.426668
O58   O     O_2   0.381464 0.010669 0.931392 -0.426676
O59   O     O_2   0.989145 0.618519 0.068610 -0.426673
O60   O     O_2   0.989483 0.381451 0.931394 -0.426668
O61   O     O_2   0.881456 0.489413 0.568606 -0.426664
O62   O     O_2   0.118524 0.489215 0.431391 -0.426678
O63   O     O_2   0.510998 0.881494 0.568611 -0.426678
O64   O     O_2   0.510362 0.118563 0.431396 -0.426668
O65   O     O_2   0.118543 0.510585 0.568607 -0.426664
O66   O     O_2   0.881474 0.510787 0.431391 -0.426677
O67   O     O_2   0.489001 0.118505 0.568612 -0.426678
O68   O     O_2   0.489639 0.881436 0.431395 -0.426669
Zn1   Zn    Zn3+2 0.000000 0.579740 0.272110 1.014328
Zn2   Zn    Zn3+2 0.000000 0.420260 0.727890 1.014337
Zn3   Zn    Zn3+2 0.420260 0.000000 0.272110 1.014345
Zn4   Zn    Zn3+2 0.579740 0.000000 0.727890 1.014321
Zn5   Zn    Zn3+2 0.000000 0.420260 0.272110 1.014327
Zn6   Zn    Zn3+2 0.000000 0.579740 0.727890 1.014336
Zn7   Zn    Zn3+2 0.579740 0.000000 0.272110 1.014345
Zn8   Zn    Zn3+2 0.420260 0.000000 0.727890 1.014321
Zn9   Zn    Zn3+2 0.500000 0.079740 0.772110 1.014333
Zn10  Zn    Zn3+2 0.500000 0.920260 0.227890 1.014333
Zn11  Zn    Zn3+2 0.920260 0.500000 0.772110 1.014338
Zn12  Zn    Zn3+2 0.079740 0.500000 0.227890 1.014326
Zn13  Zn    Zn3+2 0.500000 0.920260 0.772110 1.014332
Zn14  Zn    Zn3+2 0.500000 0.079740 0.227890 1.014332
Zn15  Zn    Zn3+2 0.079740 0.500000 0.772110 1.014339
Zn16  Zn    Zn3+2 0.920260 0.500000 0.227890 1.014325
O69   O     O_3   0.684848 0.011629 0.027062 -0.673047
H1    H     H_    0.717860 0.035896 0.015876 0.356304
O70   O     O_3   0.315149 0.011577 0.972938 -0.673051
H2    H     H_    0.282129 0.035833 0.984125 0.356305
O71   O     O_3   0.988110 0.684831 0.027063 -0.673048
H3    H     H_    0.963794 0.717807 0.015877 0.356302
O72   O     O_3   0.988684 0.315133 0.972940 -0.673050
H4    H     H_    0.964477 0.282077 0.984126 0.356308
O73   O     O_3   0.315153 0.988370 0.027061 -0.673048
H5    H     H_    0.282140 0.964103 0.015875 0.356304
O74   O     O_3   0.684851 0.988424 0.972939 -0.673053
H6    H     H_    0.717871 0.964167 0.984125 0.356305
O75   O     O_3   0.011889 0.315169 0.027063 -0.673049
H7    H     H_    0.036206 0.282193 0.015877 0.356302
O76   O     O_3   0.011317 0.684867 0.972941 -0.673050
H8    H     H_    0.035524 0.717923 0.984127 0.356308
O77   O     O_3   0.184860 0.511432 0.527061 -0.673047
H9    H     H_    0.217901 0.535660 0.515874 0.356304
O78   O     O_3   0.815161 0.511775 0.472937 -0.673054
H10   H     H_    0.782167 0.536068 0.484124 0.356303
O79   O     O_3   0.487859 0.184814 0.527065 -0.673049
H11   H     H_    0.463493 0.217755 0.515879 0.356298
O80   O     O_3   0.488935 0.815117 0.472941 -0.673052
H12   H     H_    0.464776 0.782025 0.484127 0.356308
O81   O     O_3   0.815139 0.488567 0.527060 -0.673047
H13   H     H_    0.782098 0.464339 0.515873 0.356304
O82   O     O_3   0.184838 0.488226 0.472938 -0.673052
H14   H     H_    0.217831 0.463932 0.484124 0.356301
O83   O     O_3   0.512139 0.815184 0.527064 -0.673049
H15   H     H_    0.536503 0.782242 0.515879 0.356298
O84   O     O_3   0.511063 0.184882 0.472942 -0.673053
H16   H     H_    0.535220 0.217974 0.484129 0.356310
O85   O     O_3   0.949111 0.386005 0.402555 -0.642383
H17   H     H_    0.964180 0.385594 0.420825 0.343124
O86   O     O_3   0.050736 0.385936 0.597443 -0.642364
H18   H     H_    0.035650 0.385537 0.579175 0.343124
O87   O     O_3   0.614146 0.949450 0.402558 -0.642357
H19   H     H_    0.614526 0.964548 0.420825 0.343122
O88   O     O_3   0.613924 0.051048 0.597446 -0.642395
H20   H     H_    0.614348 0.035994 0.579174 0.343126
O89   O     O_3   0.050887 0.613997 0.402556 -0.642382
H21   H     H_    0.035818 0.614407 0.420826 0.343124
O90   O     O_3   0.949263 0.614062 0.597443 -0.642362
H22   H     H_    0.964349 0.614461 0.579175 0.343122
O91   O     O_3   0.385855 0.050550 0.402558 -0.642357
H23   H     H_    0.385475 0.035451 0.420825 0.343121
O92   O     O_3   0.386075 0.948952 0.597446 -0.642395
H24   H     H_    0.385651 0.964005 0.579174 0.343127
O93   O     O_3   0.449210 0.885961 0.902556 -0.642377
H25   H     H_    0.464286 0.885561 0.920826 0.343124
O94   O     O_3   0.550824 0.885975 0.097444 -0.642371
H26   H     H_    0.535747 0.885569 0.079175 0.343123
O95   O     O_3   0.114088 0.449318 0.902557 -0.642362
H27   H     H_    0.114482 0.464408 0.920825 0.343123
O96   O     O_3   0.113972 0.550939 0.097445 -0.642385
H28   H     H_    0.114387 0.535874 0.079175 0.343125
O97   O     O_3   0.550789 0.114040 0.902556 -0.642378
H29   H     H_    0.535714 0.114441 0.920826 0.343125
O98   O     O_3   0.449176 0.114023 0.097444 -0.642371
H30   H     H_    0.464254 0.114429 0.079175 0.343123
O99   O     O_3   0.885914 0.550683 0.902557 -0.642361
H31   H     H_    0.885520 0.535592 0.920825 0.343122
O100  O     O_3   0.886026 0.449061 0.097445 -0.642385
H32   H     H_    0.885611 0.464125 0.079174 0.343126
O101  O     O_3   0.935371 0.393165 0.351199 -0.643613
H33   H     H_    0.909835 0.412335 0.336367 0.339154
O102  O     O_3   0.064502 0.393088 0.648798 -0.643582
H34   H     H_    0.090092 0.412240 0.663620 0.339185
O103  O     O_3   0.607005 0.935656 0.351204 -0.643547
H35   H     H_    0.587878 0.909998 0.336394 0.339218
O104  O     O_3   0.606755 0.064761 0.648803 -0.643641
H36   H     H_    0.587565 0.090241 0.663645 0.339124
O105  O     O_3   0.064626 0.606837 0.351200 -0.643611
H37   H     H_    0.090164 0.587667 0.336368 0.339153
O106  O     O_3   0.935497 0.606910 0.648798 -0.643582
H38   H     H_    0.909907 0.587759 0.663620 0.339185
O107  O     O_3   0.392995 0.064344 0.351204 -0.643547
H39   H     H_    0.412123 0.090002 0.336395 0.339218
O108  O     O_3   0.393243 0.935238 0.648802 -0.643642
H40   H     H_    0.412433 0.909760 0.663644 0.339125
O109  O     O_3   0.435456 0.893115 0.851201 -0.643592
H41   H     H_    0.409883 0.912272 0.836376 0.339172
O110  O     O_3   0.564576 0.893132 0.148800 -0.643598
H42   H     H_    0.590134 0.912295 0.163627 0.339168
O111  O     O_3   0.106938 0.435542 0.851202 -0.643572
H43   H     H_    0.087793 0.409933 0.836384 0.339192
O112  O     O_3   0.106810 0.564671 0.148801 -0.643620
H44   H     H_    0.087633 0.590189 0.163636 0.339145
O113  O     O_3   0.564543 0.106887 0.851201 -0.643591
H45   H     H_    0.590116 0.087729 0.836376 0.339172
O114  O     O_3   0.435423 0.106866 0.148799 -0.643597
H46   H     H_    0.409865 0.087704 0.163627 0.339167
O115  O     O_3   0.893063 0.564459 0.851202 -0.643572
H47   H     H_    0.912208 0.590067 0.836384 0.339193
O116  O     O_3   0.893189 0.435330 0.148801 -0.643620
H48   H     H_    0.912365 0.409812 0.163636 0.339145

loop_
_geom_bond_atom_site_label_1
_geom_bond_atom_site_label_2
_ccdc_geom_bond_type
C98   C121  S    
C4    C36   A    
C5    C37   A    
C130  C146  T    
C100  C127  S    
C68   O96   S    
O88   H20   S    
O41   Zn4   S    
C102  C125  S    
C90   O48   A    
O111  H43   S    
C104  C123  S    
O109  H41   S    
C26   O62   S    
C104  O36   A    
C8    O76   S    
C20   C40   A    
C64   C112  A    
C21   C33   A    
C115  O111  S    
O78   H10   S    
C84   O12   A    
C11   O79   S    
C82   O6    A    
O15   Zn6   S    
O37   Zn8   S    
C129  C145  T    
C2    C34   A    
O2    Zn2   S    
C5    O73   S    
C98   O40   A    
C24   N4    A    
C136  C152  T    
C66   O94   S    
C65   C77   A    
C57   C105  A    
O104  H36   S    
C67   C79   A    
C114  O110  S    
C3    C8    A    
O7    Zn14  S    
O93   H25   S    
C91   O23   A    
C60   C76   A    
O51   Zn5   S    
O46   Zn4   S    
C80   N3    S    
O94   H26   S    
C82   O10   A    
C20   O56   S    
C127  C143  T    
C128  C144  T    
C29   O65   S    
C71   O99   S    
O13   Zn4   S    
C31   N7    A    
C10   O78   S    
C32   N8    A    
C35   C51   A    
C95   C132  S    
C118  C158  A    
C92   C135  S    
C70   O98   S    
C32   O68   S    
C77   N2    S    
C119  O115  S    
C94   O26   A    
C65   C113  A    
C144  C145  S    
C113  O109  S    
O40   Zn1   S    
C72   O100  S    
C99   C128  S    
C59   O87   S    
C138  C151  S    
C139  C150  S    
C9    C41   A    
C71   C119  A    
C65   O93   S    
C18   C38   A    
O48   Zn2   S    
C12   C44   A    
C101  O33   A    
C13   C45   A    
O4    Zn9   S    
C95   O49   A    
C63   C111  A    
C17   O53   S    
C28   N8    A    
O110  H42   S    
C60   O88   S    
C91   O45   A    
O103  H35   S    
C120  C160  A    
C7    C39   A    
C8    C40   A    
C113  C157  A    
C111  C155  A    
C74   N5    S    
C107  C155  A    
C105  C153  A    
C69   C77   A    
O38   Zn7   S    
C104  O42   A    
C71   C79   A    
C53   C54   A    
O44   Zn5   S    
C31   C43   A    
C99   O37   A    
O21   Zn16  S    
C87   O15   A    
O73   H5    S    
C88   O16   A    
C123  C139  T    
O4    Zn13  S    
O71   H3    S    
C121  C137  T    
O39   Zn2   S    
C90   C129  S    
C91   C136  S    
C125  C141  T    
C6    C38   A    
C131  C147  T    
O47   Zn1   S    
O50   Zn8   S    
C28   O64   S    
C36   C52   A    
C45   C53   A    
C81   C160  S    
O81   H13   S    
O43   Zn6   S    
C4    C7    A    
C12   O80   S    
O14   Zn3   S    
O79   H11   S    
O17   Zn8   S    
C85   O17   A    
C22   C34   A    
C97   O29   A    
C107  O103  S    
C57   O85   S    
C87   O19   A    
C106  C154  A    
C3    O71   S    
O9    Zn16  S    
C31   O67   S    
O29   Zn11  S    
C59   C107  A    
C81   O5    A    
O89   H21   S    
C3    C35   A    
C72   C120  A    
O87   H19   S    
C86   C155  S    
C19   N3    A    
C41   C53   A    
C17   N1    A    
C120  O116  S    
C100  O32   A    
O5    Zn12  S    
C43   C55   A    
C96   C131  S    
C2    C5    A    
C25   C45   A    
O19   Zn2   S    
C58   C74   A    
C67   O95   S    
C27   C47   A    
C9    O77   S    
C28   C48   A    
C85   O13   A    
C29   C41   A    
C142  C147  S    
C30   C42   A    
O1    Zn5   S    
O76   H8    S    
C22   O58   S    
O4    Zn4   S    
C83   O11   A    
C93   O51   A    
O42   Zn3   S    
C111  O107  S    
C81   O9    A    
C72   C80   A    
C63   C75   A    
C70   C118  A    
O22   Zn15  S    
O25   Zn12  S    
O1    Zn12  S    
O4    Zn8   S    
C78   N1    S    
C49   C50   A    
C112  C156  A    
O84   H16   S    
C110  O106  S    
C140  C149  S    
O70   H2    S    
C14   O82   S    
C143  C146  S    
C55   C56   A    
C59   C75   A    
C10   C42   A    
C39   C51   A    
O80   H12   S    
C79   N4    S    
O98   H30   S    
C2    O70   S    
C103  O41   A    
O74   H6    S    
C14   C46   A    
C101  O43   A    
C25   O61   S    
C116  C160  A    
C90   O22   A    
O18   Zn7   S    
C22   N2    A    
C33   C49   A    
C20   N4    A    
O27   Zn14  S    
C94   C133  S    
O91   H23   S    
C29   N5    A    
C7    O75   S    
C114  C158  A    
O20   Zn1   S    
C112  O108  S    
O35   Zn13  S    
O10   Zn15  S    
O30   Zn12  S    
O33   Zn15  S    
O82   H14   S    
C137  C152  S    
C92   O46   A    
C75   N8    S    
C109  C153  A    
C109  O105  S    
C60   C108  A    
O3    Zn7   S    
O12   Zn9   S    
O100  H32   S    
O1    Zn1   S    
O77   H9    S    
C108  O104  S    
C103  C124  S    
C1    O69   S    
O6    Zn11  S    
C66   C78   A    
C63   O91   S    
C1    C33   A    
O96   H28   S    
C19   O55   S    
C122  C138  T    
C69   O97   S    
O8    Zn13  S    
C25   N5    A    
O97   H29   S    
O52   Zn6   S    
C126  C142  T    
C89   C130  S    
C51   C52   A    
C115  C159  A    
C85   C156  S    
C9    C14   A    
C118  O114  S    
C37   C49   A    
C11   C16   A    
C44   C56   A    
O112  H44   S    
C108  C156  A    
C12   C15   A    
C46   C54   A    
C64   O92   S    
C94   O52   A    
C62   O90   S    
C87   C154  S    
C24   C36   A    
C30   O66   S    
C106  O102  S    
C86   O18   A    
C4    O72   S    
C23   C35   A    
O26   Zn11  S    
O2    Zn11  S    
O90   H22   S    
O11   Zn10  S    
C95   O27   A    
C66   C114  A    
C124  C140  T    
C119  C159  A    
C93   O25   A    
C61   C73   A    
C16   O84   S    
C102  O34   A    
O106  H38   S    
O108  H40   S    
C42   C54   A    
C117  O113  S    
C82   C159  S    
C18   N2    A    
C102  O44   A    
O99   H31   S    
O69   H1    S    
C83   C158  S    
C135  C151  T    
C116  O112  S    
O105  H37   S    
C18   O54   S    
C26   C46   A    
O102  H34   S    
C96   O28   A    
O95   H27   S    
C99   O31   A    
C86   O14   A    
O23   Zn10  S    
C89   O21   A    
C62   C74   A    
C84   O8    A    
C92   O24   A    
C68   C80   A    
O34   Zn16  S    
O114  H46   S    
C83   O7    A    
C70   C78   A    
O107  H39   S    
C15   C47   A    
O92   H24   S    
C61   C109  A    
C16   C48   A    
C13   O81   S    
O113  H45   S    
O3    Zn14  S    
O85   H17   S    
O1    Zn16  S    
C57   C73   A    
C134  C150  T    
C76   N7    S    
C67   C115  A    
C141  C148  S    
O86   H18   S    
O28   Zn13  S    
O16   Zn5   S    
C11   C43   A    
C6    O74   S    
O75   H7    S    
C89   O47   A    
O36   Zn14  S    
C23   N3    A    
C58   O86   S    
C34   C50   A    
C21   N1    A    
C98   O30   A    
O3    Zn10  S    
C117  C157  A    
C132  C148  T    
C133  C149  T    
C30   N6    A    
C93   C134  S    
O32   Zn10  S    
C100  O38   A    
O83   H15   S    
C40   C52   A    
O24   Zn9   S    
C58   C106  A    
O49   Zn7   S    
C97   C122  S    
C110  C154  A    
C62   C110  A    
C101  C126  S    
C64   C76   A    
C17   C37   A    
C97   O39   A    
C19   C39   A    
C27   O63   S    
C68   C116  A    
C15   O83   S    
O72   H4    S    
C105  O101  S    
C47   C55   A    
C48   C56   A    
C26   N6    A    
O2    Zn6   S    
C73   N6    S    
O45   Zn3   S    
C10   C13   A    
C23   O59   S    
C84   C157  S    
C38   C50   A    
C21   O57   S    
C61   O89   S    
C88   C153  S    
O116  H48   S    
O3    Zn3   S    
C96   O50   A    
C69   C117  A    
O2    Zn15  S    
O101  H33   S    
C103  O35   A    
O31   Zn9   S    
C88   O20   A    
C32   C44   A    
C1    C6    A    
O115  H47   S    
C24   O60   S    
C27   N7    A    
