data_mof_unit_34186.cif
_audit_creation_date              2012-10-26T18:40:23-0400
_audit_creation_method            fapswitch 2.2
_symmetry_space_group_name_H-M    P1
_symmetry_Int_Tables_number       1
_space_group_crystal_system       triclinic
_cell_length_a                    8.726346
_cell_length_b                    15.142915
_cell_length_c                    13.949087
_cell_angle_alpha                 91.708095
_cell_angle_beta                  98.716569
_cell_angle_gamma                 91.541197
_cell_volume                      1820.2448534

loop_
_atom_site_label
_atom_site_type_symbol
_atom_type_description
_atom_site_fract_x
_atom_site_fract_y
_atom_site_fract_z
_atom_type_partial_charge
C1    C     C_R   0.501728 0.330471 0.498811 0.543747
C2    C     C_R   0.634505 0.527243 0.907316 0.001457
C3    C     C_R   0.499470 0.499216 0.054344 0.023714
C4    C     C_R   0.501174 0.500195 0.945677 0.023400
C5    C     C_R   0.203617 0.499707 0.474845 0.546160
C6    C     C_R   0.796361 0.500029 0.525152 0.544905
C7    C     C_2   0.037134 0.499448 0.461319 -0.159107
C8    C     C_2   0.962807 0.499939 0.538699 -0.163452
C9    C     C_R   0.383814 0.097238 0.535317 -0.129429
C10   C     C_R   0.527933 0.902903 0.418490 -0.130943
C11   C     C_R   0.387689 0.188852 0.536133 -0.144899
C12   C     C_R   0.497990 0.670345 0.501332 0.545417
C13   C     C_R   0.528669 0.811471 0.421368 -0.142535
C14   C     C_R   0.502368 0.234553 0.495754 0.034328
C15   C     C_R   0.495648 0.767736 0.503744 0.024645
C16   C     C_R   0.616070 0.188153 0.454608 -0.013571
C17   C     C_R   0.460034 0.818350 0.584662 -0.010893
C18   C     C_R   0.612523 0.095800 0.455691 -0.098896
C19   C     C_R   0.462386 0.910582 0.580895 -0.097461
C20   C     C_R   0.496817 0.050052 0.495875 0.017058
C21   C     C_R   0.495625 0.953084 0.498310 0.017794
C22   C     C_3   0.744149 0.235692 0.413300 -0.392653
C23   C     C_R   0.549864 0.574021 0.114788 -0.167819
C24   C     C_3   0.416332 0.777387 0.674545 -0.381128
C25   C     C_3   0.340708 0.356126 0.236462 -0.331856
C26   C     C_3   0.751525 0.591710 0.771109 -0.336985
C27   C     C_3   0.421723 0.335895 0.042495 -0.420698
C28   C     C_3   0.788208 0.543832 0.973424 -0.418185
C29   C     C_R   0.369617 0.471963 0.878984 -0.169381
C30   C     C_R   0.556484 0.571552 0.216299 0.023788
C31   C     C_R   0.374051 0.468211 0.778296 0.020643
C32   C     C_R   0.436657 0.428564 0.199586 0.161862
C33   C     C_R   0.625216 0.536128 0.805245 0.164114
C34   C     C_R   0.451597 0.423341 0.099270 0.000971
Cu1   Cu    Cu3+1 0.500000 0.499990 0.596430 0.914197
Cu2   Cu    Cu3+1 0.500000 0.500010 0.403570 0.915573
H1    H     H_    0.291921 0.063272 0.565175 0.106909
H2    H     H_    0.316460 0.730006 0.654457 0.155004
H3    H     H_    0.516926 0.743516 0.713937 0.146345
H4    H     H_    0.380994 0.827761 0.725752 0.104649
H5    H     H_    0.701737 0.059526 0.426884 0.103868
H6    H     H_    0.439488 0.949721 0.643176 0.104045
H7    H     H_    0.587906 0.633932 0.083766 0.100480
H8    H     H_    0.264211 0.450658 0.904821 0.100245
H9    H     H_    0.603547 0.628548 0.260546 0.122354
H10   H     H_    0.273780 0.441851 0.729858 0.122299
H11   H     H_    0.281256 0.378909 0.296059 0.184120
H12   H     H_    0.551537 0.934351 0.353312 0.104077
H13   H     H_    0.243862 0.333039 0.179491 0.080033
H14   H     H_    0.413298 0.298708 0.257491 0.125654
H15   H     H_    0.711575 0.624833 0.703413 0.181521
H16   H     H_    0.789671 0.647415 0.823577 0.076945
H17   H     H_    0.853679 0.551186 0.764228 0.123568
H18   H     H_    0.296183 0.326316 0.014579 0.121731
H19   H     H_    0.488650 0.331846 0.981032 0.145180
H20   H     H_    0.460694 0.280090 0.089017 0.122081
H21   H     H_    0.805718 0.615325 0.993111 0.121264
H22   H     H_    0.795130 0.505644 0.040503 0.143671
H23   H     H_    0.299782 0.224300 0.567311 0.109738
H24   H     H_    0.885840 0.521383 0.937213 0.123134
H25   H     H_    0.555542 0.774987 0.358375 0.118714
H26   H     H_    0.975600 0.498945 0.387452 0.128747
H27   H     H_    0.024283 0.500432 0.612571 0.113516
H28   H     H_    0.807622 0.283013 0.468714 0.136920
H29   H     H_    0.829110 0.189016 0.390748 0.110674
H30   H     H_    0.694823 0.272093 0.348482 0.152187
N1    N     N_R   0.500000 0.500020 0.258690 -0.219408
N2    N     N_R   0.500000 0.499980 0.741310 -0.219175
O1    O     O_R   0.500010 0.371450 0.581430 -0.491004
O2    O     O_R   0.499990 0.628550 0.418570 -0.510160
O3    O     O_R   0.500010 0.371460 0.418560 -0.521442
O4    O     O_R   0.499990 0.628540 0.581440 -0.519026
O5    O     O_R   0.274840 0.499990 0.562640 -0.508748
O6    O     O_R   0.725160 0.500010 0.437360 -0.494451
O7    O     O_R   0.274840 0.500000 0.399770 -0.508427
O8    O     O_R   0.725160 0.500000 0.600230 -0.511716

loop_
_geom_bond_atom_site_label_1
_geom_bond_atom_site_label_2
_ccdc_geom_bond_type
C30   H9    S    
C3    C23   A    
Cu1   Cu2   S    
C27   H18   S    
C7    C8    D    
C22   H29   S    
C28   H21   S    
C1    O3    A    
C19   C21   A    
C11   C14   A    
C27   H19   S    
C24   H3    S    
C23   H7    S    
C25   H14   S    
C22   H30   S    
C9    C20   A    
C17   C19   A    
C31   H10   S    
C24   H2    S    
C25   H11   S    
C30   N1    A    
C19   H6    S    
C25   C32   S    
C12   O4    A    
C27   C34   S    
C11   H23   S    
Cu2   O2    S    
C6    O6    A    
C28   H24   S    
C10   C21   A    
C31   N2    A    
Cu1   O8    S    
Cu2   N1    S    
C17   C24   S    
C23   C30   A    
C18   H5    S    
C5    C7    S    
C27   H20   S    
C6    C8    S    
C3    C34   A    
C1    O1    A    
C32   C34   A    
C5    O7    A    
C2    C4    A    
C7    H26   S    
Cu2   O7    S    
C26   H16   S    
C26   C33   S    
C12   C15   S    
C9    H1    S    
C9    C11   A    
Cu2   O6    S    
C32   N1    A    
C2    C33   A    
Cu1   O4    S    
C13   C15   A    
C29   H8    S    
C10   H12   S    
C14   C16   A    
C3    C4    S    
C26   H17   S    
C15   C17   A    
C12   O2    A    
Cu1   O5    S    
C16   C22   S    
C4    C29   A    
C10   C13   A    
Cu2   O3    S    
C6    O8    A    
C28   H22   S    
C29   C31   A    
C26   H15   S    
Cu1   N2    S    
C24   H4    S    
C18   C20   A    
C5    O5    A    
C25   H13   S    
C8    H27   S    
C22   H28   S    
C13   H25   S    
C20   C21   S    
Cu1   O1    S    
C16   C18   A    
C2    C28   S    
C1    C14   S    
C33   N2    A    
