data_mof_unit_8780.cif
_audit_creation_date              2012-12-10T17:31:06-0500
_audit_creation_method            fapswitch 2.2
_symmetry_space_group_name_H-M    P1
_symmetry_Int_Tables_number       1
_space_group_crystal_system       triclinic
_cell_length_a                    12.105231
_cell_length_b                    12.93316
_cell_length_c                    15.404704
_cell_angle_alpha                 84.973878
_cell_angle_beta                  117.224353
_cell_angle_gamma                 94.513822
_cell_volume                      2134.2976539

loop_
_atom_site_label
_atom_site_type_symbol
_atom_type_description
_atom_site_fract_x
_atom_site_fract_y
_atom_site_fract_z
_atom_type_partial_charge
C1    C     C_R   0.476374 0.299337 0.496028 0.901895
C2    C     C_R   0.667076 0.962446 0.568299 0.215121
C3    C     C_R   0.352167 0.135504 0.478821 -0.271196
C4    C     C_R   0.653288 0.856218 0.558288 -0.283938
C5    C     C_R   0.566408 0.129169 0.505460 0.128250
C6    C     C_R   0.429224 0.870256 0.458886 0.151705
C7    C     C_R   0.559577 0.022115 0.522794 0.058942
C8    C     C_R   0.439960 0.972461 0.484955 0.057726
C9    C     C_R   0.996678 0.587886 0.395715 0.119397
C10   C     C_R   0.003116 0.412181 0.604694 0.122189
C11   C     C_R   0.121064 0.585324 0.412844 -0.073014
C12   C     C_R   0.522050 0.700139 0.499260 0.905381
C13   C     C_R   0.878136 0.413467 0.586257 -0.081460
C14   C     C_R   0.158180 0.451790 0.536717 0.265688
C15   C     C_R   0.842787 0.549770 0.464961 0.264902
C16   C     C_R   0.578595 0.494975 0.681331 0.898037
C17   C     C_R   0.421050 0.503775 0.318485 0.886188
C18   C     C_R   0.041902 0.466085 0.537066 -0.018128
C19   C     C_R   0.958768 0.535166 0.464265 -0.019949
C20   C     C_R   0.631894 0.490142 0.788397 -0.105363
C21   C     C_R   0.367182 0.505439 0.211110 -0.106745
C22   C     C_R   0.770243 0.419310 0.950318 -0.204037
C23   C     C_R   0.637241 0.464273 0.117621 -0.221330
C24   C     C_R   0.224573 0.569016 0.047500 -0.202708
C25   C     C_R   0.735686 0.430464 0.850089 0.149400
C26   C     C_R   0.256238 0.555603 0.147129 0.151056
C27   C     C_R   0.569793 0.540218 0.829344 0.093440
C28   C     C_R   0.434390 0.460166 0.171666 0.106416
C29   C     C_R   0.582942 0.503758 0.922231 0.043523
C30   C     C_R   0.420271 0.497135 0.078518 0.039695
C31   C     C_R   0.693108 0.453063 0.987164 0.064171
C32   C     C_R   0.307342 0.543664 0.012553 0.062686
C33   C     C_R   0.488778 0.513468 0.951230 0.025197
C34   C     C_R   0.366902 0.539429 0.883129 -0.221354
C35   C     C_R   0.515079 0.489755 0.049689 0.025892
C36   C     C_3   0.845993 0.396952 0.162330 -0.943511
C37   C     C_3   0.155245 0.600953 0.837324 -0.940547
C38   C     C_3   0.907504 0.634868 0.297146 -0.940823
C39   C     C_3   0.091524 0.364855 0.703373 -0.937481
C40   C     C_3   0.494276 0.357548 0.218472 -0.902225
C41   C     C_3   0.514080 0.644452 0.783339 -0.888310
C42   C     C_3   0.168581 0.592525 0.181411 -0.898068
C43   C     C_3   0.811293 0.379198 0.812093 -0.895055
C44   C     C_3   0.313984 0.832351 0.371280 -0.880065
C45   C     C_R   0.723320 0.438614 0.087115 0.197096
C46   C     C_3   0.665803 0.174159 0.476463 -0.829460
C47   C     C_3   0.214966 0.976871 0.460065 -0.910308
C48   C     C_3   0.793929 0.006462 0.636802 -0.920464
C49   C     C_3   0.784481 0.653743 0.431084 -0.810711
C50   C     C_3   0.216793 0.348418 0.571229 -0.821529
C51   C     C_R   0.278756 0.560921 0.913016 0.197843
C52   C     C_R   0.536235 0.811194 0.501436 -0.122633
C53   C     C_R   0.464274 0.186846 0.492510 -0.137427
C54   C     C_R   0.336499 0.028645 0.470718 0.218102
H1    H     H_    0.856120 0.396212 0.237806 0.251939
H2    H     H_    0.809436 0.610583 0.277283 0.259573
H3    H     H_    0.919773 0.720875 0.295990 0.242872
H4    H     H_    0.069944 0.389939 0.760822 0.249309
H5    H     H_    0.080622 0.278798 0.703782 0.242066
H6    H     H_    0.189565 0.390656 0.724586 0.261841
H7    H     H_    0.506078 0.312407 0.165417 0.248731
H8    H     H_    0.585857 0.369405 0.282741 0.252213
H9    H     H_    0.433170 0.308467 0.243112 0.231089
H10   H     H_    0.422962 0.635178 0.717966 0.257482
H11   H     H_    0.502314 0.689729 0.836332 0.246245
H12   H     H_    0.853184 0.315963 0.147429 0.243157
H13   H     H_    0.578066 0.691983 0.760672 0.232338
H14   H     H_    0.135379 0.526081 0.215264 0.251770
H15   H     H_    0.216400 0.652498 0.234859 0.239661
H16   H     H_    0.085385 0.627493 0.120358 0.230626
H17   H     H_    0.750358 0.326068 0.754415 0.240093
H18   H     H_    0.857400 0.439459 0.782366 0.248837
H19   H     H_    0.885376 0.332361 0.870606 0.230315
H20   H     H_    0.853464 0.378554 0.997985 0.165745
H21   H     H_    0.137683 0.604130 0.998566 0.165525
H22   H     H_    0.666270 0.462077 0.195100 0.173245
H23   H     H_    0.923758 0.446173 0.159603 0.240721
H24   H     H_    0.338889 0.543502 0.805708 0.173531
H25   H     H_    0.339284 0.778474 0.331777 0.220775
H26   H     H_    0.246639 0.792532 0.394444 0.250445
H27   H     H_    0.269563 0.897754 0.317457 0.238614
H28   H     H_    0.623573 0.225374 0.408836 0.245238
H29   H     H_    0.740226 0.217419 0.536405 0.246098
H30   H     H_    0.709151 0.113039 0.457466 0.232232
H31   H     H_    0.733618 0.808558 0.595592 0.171638
H32   H     H_    0.274359 0.178673 0.469218 0.169112
H33   H     H_    0.231306 0.901463 0.503508 0.250088
H34   H     H_    0.147247 0.605248 0.762318 0.251545
H35   H     H_    0.168001 0.025304 0.488346 0.233919
H36   H     H_    0.150830 0.965457 0.381967 0.242758
H37   H     H_    0.789079 0.084118 0.659883 0.248317
H38   H     H_    0.835482 0.955346 0.704734 0.239506
H39   H     H_    0.856179 0.011108 0.601382 0.242285
H40   H     H_    0.792061 0.690580 0.495735 0.243451
H41   H     H_    0.836128 0.711383 0.404877 0.217691
H42   H     H_    0.687146 0.646021 0.373493 0.255302
H43   H     H_    0.208171 0.313095 0.505969 0.237491
H44   H     H_    0.314313 0.356124 0.628412 0.258788
H45   H     H_    0.078069 0.548730 0.837535 0.239783
H46   H     H_    0.165477 0.290126 0.597089 0.217369
H47   H     H_    0.144542 0.680338 0.853829 0.242441
H48   H     H_    0.846842 0.368136 0.633884 0.149266
H49   H     H_    0.150952 0.628210 0.363408 0.150473
H50   H     H_    0.926933 0.607965 0.239192 0.252838
N1    N     N_R   0.799120 0.480200 0.517090 -0.111751
N2    N     N_R   0.200880 0.519800 0.482910 -0.112457
O1    O     O_R   0.580150 0.341050 0.504560 -0.612378
O2    O     O_R   0.419850 0.658950 0.495440 -0.603486
O3    O     O_R   0.388090 0.353760 0.493600 -0.626665
O4    O     O_R   0.611910 0.646240 0.506400 -0.629939
O5    O     O_R   0.650890 0.490020 0.640860 -0.605895
O6    O     O_R   0.349110 0.509980 0.359140 -0.608162
O7    O     O_R   0.458830 0.502730 0.629890 -0.608188
O8    O     O_R   0.541170 0.497270 0.370110 -0.608500
Zn1   Zn    Zn3+2 0.628240 0.491510 0.507320 0.916965
Zn2   Zn    Zn3+2 0.371760 0.508490 0.492680 0.921966

loop_
_geom_bond_atom_site_label_1
_geom_bond_atom_site_label_2
_ccdc_geom_bond_type
C43   H19   S    
C37   H47   S    
C21   C26   A    
C43   H18   S    
C23   C45   A    
C27   C29   A    
C14   C18   A    
C37   H34   S    
C2    C7    A    
O6    Zn2   S    
C23   H22   S    
C16   O7    A    
C25   C43   S    
C12   O4    A    
O8    Zn1   S    
C7    C8    A    
C41   H13   S    
C15   C19   A    
C34   C51   A    
C40   H9    S    
C30   C35   A    
C4    C52   A    
C5    C53   A    
C24   C26   A    
C36   H23   S    
C37   C51   S    
C3    C54   A    
C36   H12   S    
C20   C25   A    
C28   C40   S    
C29   C33   A    
C42   H16   S    
C40   H8    S    
C18   C19   A    
C1    C53   S    
C38   H50   S    
O3    Zn2   S    
C1    O3    A    
C46   H28   S    
C9    C19   A    
C22   C25   A    
C49   H40   S    
O7    Zn2   S    
C6    C44   S    
C3    H32   S    
C42   H14   S    
C47   H35   S    
C12   C52   S    
C17   O8    A    
C50   H44   S    
C48   H39   S    
C44   H26   S    
C13   N1    A    
C44   H27   S    
C22   C31   A    
C8    C54   A    
C12   O2    A    
C6    C8    A    
C4    H31   S    
C2    C48   S    
C39   H4    S    
C48   H37   S    
C42   H15   S    
C17   C21   S    
C40   H7    S    
N2    Zn2   S    
C10   C39   S    
C47   H33   S    
C2    C4    A    
C24   C32   A    
C32   C51   A    
C38   H3    S    
O5    Zn1   S    
C27   C41   S    
C16   C20   S    
C39   H5    S    
C11   N2    A    
C33   C34   A    
C36   C45   S    
C49   H41   S    
C9    C11   A    
O1    Zn1   S    
C1    O1    A    
C47   C54   S    
C46   H30   S    
C21   C28   A    
C23   C35   A    
C31   C45   A    
C47   H36   S    
C22   H20   S    
C17   O6    A    
C37   H45   S    
C26   C42   S    
C5    C7    A    
C50   H43   S    
C43   H17   S    
N1    Zn1   S    
C44   H25   S    
C10   C13   A    
C41   H11   S    
C24   H21   S    
C20   C27   A    
C5    C46   S    
C50   H46   S    
O2    Zn2   S    
C28   C30   A    
C29   C31   A    
C36   H1    S    
C34   H24   S    
C30   C32   A    
C3    C53   A    
C15   N1    A    
C14   C50   S    
C10   C18   A    
C39   H6    S    
C9    C38   S    
C33   C35   A    
C15   C49   S    
C49   H42   S    
C46   H29   S    
C14   N2    A    
C38   H2    S    
C48   H38   S    
C11   H49   S    
C41   H10   S    
C6    C52   A    
C13   H48   S    
O4    Zn1   S    
C16   O5    A    
