data_mof_unit_20607.cif
_audit_creation_date              2012-12-11T16:31:25-0500
_audit_creation_method            fapswitch 2.2
_symmetry_space_group_name_H-M    P1
_symmetry_Int_Tables_number       1
_space_group_crystal_system       triclinic
_cell_length_a                    7.185087
_cell_length_b                    18.82976
_cell_length_c                    19.818589
_cell_angle_alpha                 68.391702
_cell_angle_beta                  92.807934
_cell_angle_gamma                 91.395264
_cell_volume                      2489.8399443

loop_
_atom_site_label
_atom_site_type_symbol
_atom_type_description
_atom_site_fract_x
_atom_site_fract_y
_atom_site_fract_z
_atom_type_partial_charge
O1    O     O_R   0.488990 0.443920 0.942160 -0.530676
O2    O     O_R   0.823840 0.406530 0.087600 -0.539272
O3    O     O_R   0.999650 0.556080 0.057840 -0.507103
C1    C     C_R   0.657013 0.384526 0.115393 0.736119
O4    O     O_R   0.818390 0.434590 0.944530 -0.509160
O5    O     O_R   0.994160 0.584350 0.913750 -0.487545
C2    C     C_R   0.647430 0.424380 0.921601 0.768950
O6    O     O_R   0.494480 0.415650 0.086250 -0.543684
O7    O     O_3   0.662600 0.549100 0.990070 -0.347604
V1    V     V_3+5 0.935320 0.490890 0.001840 1.624274
O8    O     O_R   0.324240 0.593470 0.912400 -0.535706
C3    C     C_R   0.151441 0.618366 0.887311 0.831628
O9    O     O_R   0.329690 0.565410 0.055470 -0.547255
C4    C     C_R   0.165791 0.579189 0.075240 0.728219
V2    V     V_3+5 0.435990 0.509110 0.998160 1.581641
O10   O     O_3   0.158840 0.450900 0.009930 -0.378648
C5    C     C_3   0.018348 0.674115 0.259359 0.541552
C6    C     C_3   0.353823 0.722297 0.241537 0.289766
C7    C     C_3   0.329512 0.779289 0.285544 0.423501
C8    C     C_1   0.095784 0.880910 0.372664 -0.074255
C9    C     C_3   0.161854 0.716142 0.199071 -0.293816
C10   C     C_3   0.001159 0.721897 0.310889 0.574196
C11   C     C_3   0.117001 0.800913 0.282300 -0.359718
C12   C     C_3   0.053372 0.849231 0.199082 0.600526
C13   C     C_3   0.090919 0.801390 0.148581 0.388269
C14   C     C_1   0.095822 0.846330 0.331004 0.312986
C15   C     C_1   0.176709 0.667876 0.153650 0.215623
C16   C     C_1   0.172054 0.627472 0.117849 -0.041958
C17   C     C_R   0.026077 0.772214 0.880520 0.256482
C18   C     C_R   0.026656 0.844366 0.883744 -0.065861
C19   C     C_R   0.073911 0.908132 0.825112 0.166827
C20   C     C_R   0.111940 0.901071 0.758633 0.118819
C21   C     C_R   0.109612 0.827136 0.753353 0.015216
C22   C     C_R   0.088011 0.760558 0.818068 -0.050017
C23   C     C_R   0.132672 0.818100 0.685983 -0.062940
C24   C     C_R   0.168102 0.744540 0.685942 -0.052732
C25   C     C_R   0.148641 0.677692 0.749786 -0.058346
C26   C     C_R   0.125910 0.686106 0.817626 -0.088262
C27   C     C_R   0.230837 0.736676 0.622832 -0.248512
C28   C     C_R   0.250729 0.665293 0.619126 0.387719
C29   C     C_R   0.184755 0.600702 0.674247 0.182179
C30   C     C_R   0.144607 0.605149 0.741216 0.296096
H1    H     H_    0.982937 0.851746 0.932358 0.221822
H2    H     H_    0.269823 0.785726 0.576211 0.167512
C31   C     C_R   0.628644 0.224973 0.116497 0.147808
C32   C     C_R   0.601079 0.151121 0.117212 -0.135291
C33   C     C_R   0.572647 0.090435 0.181667 0.251311
C34   C     C_R   0.575798 0.102460 0.246602 -0.157974
C35   C     C_R   0.607429 0.175586 0.248812 -0.029936
C36   C     C_R   0.629523 0.239632 0.182324 0.076246
C37   C     C_R   0.614972 0.184504 0.316621 -0.114340
C38   C     C_R   0.631765 0.258430 0.318381 0.082022
C39   C     C_R   0.643710 0.323684 0.252531 -0.031830
C40   C     C_R   0.648242 0.314849 0.184119 -0.123636
C41   C     C_R   0.632518 0.268620 0.385503 -0.210708
C42   C     C_R   0.636425 0.341078 0.388120 -0.139504
C43   C     C_R   0.640603 0.404766 0.324443 0.515723
C44   C     C_R   0.647742 0.396901 0.257180 -0.204905
H3    H     H_    0.600062 0.141436 0.066549 0.143412
H4    H     H_    0.553503 0.053101 0.295482 0.118943
H5    H     H_    0.626049 0.220859 0.436684 0.115968
H6    H     H_    0.633052 0.347781 0.439939 0.163203
H7    H     H_    0.653038 0.448394 0.209067 0.142294
O11   O     O_R   0.770890 0.084490 0.414040 -0.536658
O12   O     O_R   0.445980 0.065450 0.555510 -0.518306
O13   O     O_R   0.270670 0.915620 0.586180 -0.530574
C45   C     C_R   0.617453 0.078795 0.575955 0.699176
O14   O     O_R   0.441480 0.093500 0.412450 -0.540830
O15   O     O_R   0.266140 0.943870 0.442100 -0.535115
C46   C     C_R   0.608392 0.116073 0.385804 0.664969
O16   O     O_R   0.775410 0.056240 0.558120 -0.543090
O17   O     O_3   0.602660 0.950990 0.510100 -0.368970
V3    V     V_3+5 0.329740 0.009100 0.498130 1.510041
O18   O     O_R   0.936120 0.934420 0.444240 -0.529350
C47   C     C_R   0.100249 0.922389 0.422534 0.685054
O19   O     O_R   0.940610 0.906370 0.587310 -0.532957
C48   C     C_R   0.112415 0.884353 0.614797 0.755233
V4    V     V_3+5 0.829110 0.990690 0.501470 1.511184
O20   O     O_3   0.106080 0.049010 0.489880 -0.373163
C49   C     C_3   0.831745 0.249895 0.705504 0.244528
C50   C     C_3   0.491286 0.280817 0.670718 0.448741
C51   C     C_3   0.472217 0.323863 0.727009 0.479911
C52   C     C_1   0.635944 0.380213 0.874904 -0.108561
C53   C     C_3   0.635135 0.212400 0.704324 -0.041736
C54   C     C_3   0.825792 0.304854 0.750977 0.037868
C55   C     C_3   0.635175 0.296895 0.788437 -0.052693
C56   C     C_3   0.613327 0.209563 0.836909 -0.168835
C57   C     C_3   0.590675 0.160731 0.786896 0.665185
C58   C     C_1   0.635109 0.342914 0.836172 0.164614
C59   C     C_1   0.635247 0.163185 0.658883 0.153549
C60   C     C_1   0.631167 0.124512 0.621277 -0.129288
H8    H     H_    0.934602 0.286817 0.795498 0.168382
H9    H     H_    0.488418 0.201753 0.869571 0.182711
Cl1   Cl    Cl    0.045785 0.663724 0.405323 -0.373656
Cl2   Cl    Cl    0.810570 0.653680 0.217990 -0.578385
Cl3   Cl    Cl    0.773510 0.742270 0.319671 -0.437940
Cl4   Cl    Cl    0.143043 0.945891 0.165578 -0.534628
N1    N     N_3   0.145020 0.531238 0.661943 -0.526836
H10   H     H_    0.184594 0.534377 0.611004 0.318235
H11   H     H_    0.999885 0.526295 0.659923 0.272792
Cl5   Cl    Cl    0.899655 0.706117 0.949691 -0.653501
N2    N     N_3   0.075441 0.979735 0.834951 -0.521781
H12   H     H_    0.195537 0.981370 0.866285 0.317026
H13   H     H_    0.077946 0.025911 0.785836 0.295391
N3    N     N_3   0.166000 0.967666 0.698603 -0.657934
H14   H     H_    0.054866 0.005945 0.682040 0.237267
H15   H     H_    0.281484 0.993396 0.714727 0.274075
Cl6   Cl    Cl    0.365972 0.658012 0.546353 -0.422380
Cl7   Cl    Cl    0.064668 0.573185 0.308832 -0.426678
Cl8   Cl    Cl    0.072996 0.517893 0.807996 -0.625606
Cl9   Cl    Cl    0.630166 0.494400 0.330276 -0.465660
N4    N     N_3   0.654292 0.283911 0.047697 -0.678479
H16   H     H_    0.537053 0.283496 0.014407 0.217443
H17   H     H_    0.770599 0.270398 0.025104 0.239213
N5    N     N_3   0.542434 0.015106 0.182670 -0.589121
H18   H     H_    0.564910 0.012975 0.131702 0.304078
H19   H     H_    0.644337 0.981713 0.218884 0.286527
N6    N     N_3   0.870076 0.385413 0.709414 -0.574588
H20   H     H_    0.013705 0.391912 0.705244 0.285328
H21   H     H_    0.814562 0.403565 0.656281 0.321057
N7    N     N_3   0.503733 0.746831 0.189847 -0.522116
H22   H     H_    0.524283 0.804172 0.161921 0.314044
H23   H     H_    0.494400 0.720487 0.151751 0.287592
N8    N     N_3   0.889713 0.292050 0.630594 -0.617649
H24   H     H_    0.915381 0.255424 0.603301 0.274657
H25   H     H_    0.006285 0.326412 0.629080 0.317022
Cl10  Cl    Cl    0.282891 0.242559 0.645553 -0.728352
N9    N     N_3   0.551536 0.335733 0.600334 -0.572665
H26   H     H_    0.571596 0.306999 0.565071 0.246848
H27   H     H_    0.444629 0.374522 0.574912 0.316633
Cl11  Cl    Cl    0.480517 0.427053 0.680982 -0.566892
N10   N     N_3   0.289323 0.310997 0.759357 -0.660332
H28   H     H_    0.279102 0.258800 0.801179 0.211670
H29   H     H_    0.270690 0.349852 0.784962 0.270975
Cl12  Cl    Cl    0.719287 0.072609 0.822575 -0.548771
Cl13  Cl    Cl    0.364273 0.120314 0.795309 -0.669221
N11   N     N_3   0.766113 0.183868 0.892799 -0.643755
H30   H     H_    0.886633 0.171205 0.872343 0.303724
H31   H     H_    0.725085 0.133598 0.934263 0.301865
N12   N     N_3   0.960374 0.187155 0.741685 -0.606046
H32   H     H_    0.081580 0.207910 0.756414 0.326452
H33   H     H_    0.988390 0.156951 0.708423 0.302772
N13   N     N_3   0.408105 0.645364 0.292172 -0.467243
H34   H     H_    0.349273 0.630129 0.342378 0.319910
H35   H     H_    0.549058 0.642768 0.305841 0.384226
Cl14  Cl    Cl    0.409929 0.740359 0.380102 -0.420076
N14   N     N_3   0.448827 0.847398 0.258748 -0.508837
H36   H     H_    0.432320 0.877747 0.203770 0.299824
H37   H     H_    0.426901 0.884486 0.285908 0.266708
N15   N     N_3   0.926653 0.800523 0.101201 -0.517630
H38   H     H_    0.803594 0.784598 0.127324 0.303063
H39   H     H_    0.946793 0.765797 0.071539 0.278460
Cl15  Cl    Cl    0.252825 0.851241 0.079751 -0.569828
Cl16  Cl    Cl    0.819056 0.879666 0.189382 -0.584973

loop_
_geom_bond_atom_site_label_1
_geom_bond_atom_site_label_2
_ccdc_geom_bond_type
C2    C52   S    
C41   C42   A    
C32   H3    S    
C6    C9    S    
C29   C30   A    
N3    H14   S    
O2    C1    A    
N14   H36   S    
C1    O6    A    
N9    H26   S    
C49   C54   S    
N4    H17   S    
C50   C51   S    
C59   C60   T    
C31   N4    S    
C54   C55   S    
C33   N5    S    
N3    H15   S    
C25   C26   A    
C24   C25   A    
N14   H37   S    
O19   V4    S    
O5    C3    A    
C18   C19   A    
O12   C45   A    
V2    O10   S    
C41   H5    S    
O12   V3    S    
C42   C43   A    
C6    C7    S    
C11   C14   S    
C25   C30   A    
N6    H20   S    
O17   V4    S    
O8    V2    S    
C23   C24   A    
N10   H28   S    
C35   C37   A    
C11   C12   S    
O15   V3    S    
C5    Cl2   S    
C37   C46   S    
O11   C46   A    
O7    V1    S    
C45   O16   A    
C38   C41   A    
C49   C53   S    
C28   Cl6   S    
C9    C15   S    
O1    C2    A    
O9    C4    A    
C50   Cl10  S    
C10   Cl1   S    
N2    H12   S    
C53   C59   S    
C56   N11   S    
N4    H16   S    
C54   H8    S    
C12   Cl16  S    
C34   H4    S    
C24   C27   A    
N12   H32   S    
C52   C58   T    
C7    Cl14  S    
O18   C47   A    
C13   Cl15  S    
C12   Cl4   S    
C19   N2    S    
C12   C13   S    
C57   Cl13  S    
C27   C28   A    
O4    C2    A    
C55   C56   S    
N5    H19   S    
O14   V3    S    
C49   N12   S    
O13   V3    S    
C17   C22   A    
C29   N1    S    
C7    N14   S    
C37   C38   A    
C8    C47   S    
N9    H27   S    
C13   N15   S    
C7    C11   S    
C17   C18   A    
N11   H31   S    
C33   C34   A    
O8    C3    A    
C45   C60   S    
C21   C22   A    
V3    O20   S    
C17   Cl5   S    
C36   C40   A    
O19   C48   A    
N2    H13   S    
C10   Cl3   S    
N7    H22   S    
O3    C4    A    
O1    V2    S    
O14   C46   A    
C28   C29   A    
N1    H10   S    
O6    V2    S    
N1    H11   S    
C20   N3    S    
O9    V2    S    
C50   N9    S    
N15   H39   S    
C18   H1    S    
C51   N10   S    
O2    V1    S    
C50   C53   S    
C38   C39   A    
N8    H25   S    
C49   N8    S    
C44   H7    S    
N13   H35   S    
O13   C48   A    
C9    C13   S    
C32   C33   A    
C6    N13   S    
C1    C40   S    
C22   C26   A    
O11   V4    S    
C19   C20   A    
C53   C57   S    
C57   Cl12  S    
N12   H33   S    
O17   V3    S    
C55   C58   S    
C5    Cl7   S    
O5    V1    S    
C39   C44   A    
C39   C40   A    
C27   H2    S    
N11   H30   S    
C5    C10   S    
N15   H38   S    
C20   C21   A    
N13   H34   S    
C30   Cl8   S    
O4    V1    S    
O3    V1    S    
V1    O10   S    
C51   C55   S    
V4    O20   S    
C43   C44   A    
C43   Cl9   S    
C8    C14   T    
C31   C36   A    
C34   C35   A    
C56   H9    S    
C21   C23   A    
C23   C48   S    
O15   C47   A    
C42   H6    S    
C3    C26   S    
C54   N6    S    
N6    H21   S    
N7    H23   S    
C6    N7    S    
C31   C32   A    
C56   C57   S    
N10   H29   S    
C35   C36   A    
O18   V4    S    
C15   C16   T    
C10   C11   S    
C4    C16   S    
C51   Cl11  S    
O16   V4    S    
N5    H18   S    
O7    V2    S    
N8    H24   S    
C5    C9    S    
