data_mof_unit_22070.cif
_audit_creation_date              2012-12-11T15:22:19-0500
_audit_creation_method            fapswitch 2.2
_symmetry_space_group_name_H-M    P1
_symmetry_Int_Tables_number       1
_space_group_crystal_system       triclinic
_cell_length_a                    22.485121
_cell_length_b                    13.041261
_cell_length_c                    26.86883
_cell_angle_alpha                 90.200408
_cell_angle_beta                  90.323055
_cell_angle_gamma                 89.889182
_cell_volume                      7878.67553186

loop_
_atom_site_label
_atom_site_type_symbol
_atom_type_description
_atom_site_fract_x
_atom_site_fract_y
_atom_site_fract_z
_atom_type_partial_charge
C1    C     C_R   0.721432 0.346508 0.179200 0.533929
C2    C     C_R   0.277935 0.348590 0.820598 0.541855
C3    C     C_R   0.221045 0.845182 0.178690 0.532977
C4    C     C_R   0.777811 0.849331 0.820341 0.535663
C5    C     C_R   0.480335 0.157155 0.869450 -0.008648
C6    C     C_R   0.532415 0.162444 0.125629 0.000693
C7    C     C_R   0.979528 0.656451 0.869910 -0.008393
C8    C     C_R   0.030287 0.662734 0.126443 0.009669
C9    C     C_R   0.539304 0.253025 0.098022 -0.117654
C10   C     C_R   0.501703 0.247422 0.891585 -0.147727
C11   C     C_R   0.036734 0.753205 0.098747 -0.111579
C12   C     C_R   0.002119 0.745887 0.891907 -0.146225
C13   C     C_R   0.533574 0.251154 0.046177 0.017008
C14   C     C_R   0.518294 0.247098 0.942128 0.016039
C15   C     C_R   0.030959 0.750945 0.046936 0.021577
C16   C     C_R   0.017677 0.745719 0.942703 0.016408
C17   C     C_R   0.519997 0.158156 0.021913 0.061173
C18   C     C_R   0.512854 0.156027 0.969998 0.061575
C19   C     C_R   0.016627 0.658097 0.022872 0.068599
C20   C     C_R   0.010094 0.655519 0.970904 0.064014
C21   C     C_R   0.543070 0.339728 0.017988 -0.124204
C22   C     C_R   0.536211 0.337313 0.966235 -0.126647
C23   C     C_R   0.041468 0.838901 0.018613 -0.124823
C24   C     C_R   0.036277 0.835623 0.966729 -0.129355
C25   C     C_R   0.731037 0.983528 0.123001 0.014564
C26   C     C_R   0.261361 0.966419 0.873217 0.019644
C27   C     C_R   0.230863 0.485231 0.122710 0.015165
C28   C     C_R   0.776309 0.519478 0.880757 0.011824
C29   C     C_R   0.783771 0.961872 0.096857 0.219568
C30   C     C_R   0.222301 0.016533 0.907023 0.219499
C31   C     C_R   0.284106 0.471420 0.095994 0.214610
C32   C     C_R   0.729928 0.557978 0.911611 0.214172
C33   C     C_R   0.782726 0.956601 0.044131 -0.001518
C34   C     C_R   0.230100 0.002866 0.958457 0.006948
C35   C     C_R   0.282668 0.467499 0.043299 -0.003045
C36   C     C_R   0.733381 0.545556 0.963738 0.002237
C37   C     C_R   0.728603 0.974392 0.017293 0.001554
C38   C     C_R   0.269151 0.926180 0.975690 0.022745
C39   C     C_R   0.227593 0.477994 0.017010 0.001466
C40   C     C_R   0.778562 0.483300 0.984117 0.019479
C41   C     C_R   0.677027 0.995838 0.044112 -0.111963
C42   C     C_R   0.303952 0.870382 0.942263 -0.123753
C43   C     C_R   0.175560 0.492581 0.044308 -0.110965
C44   C     C_R   0.823686 0.444750 0.953937 -0.118335
C45   C     C_R   0.555002 0.157056 0.176894 0.542760
C46   C     C_R   0.447480 0.156530 0.821813 0.546325
C47   C     C_R   0.054498 0.657111 0.177169 0.542167
C48   C     C_R   0.947409 0.656432 0.821888 0.536253
C49   C     C_R   0.678067 0.998813 0.095857 -0.192454
C50   C     C_R   0.301648 0.892933 0.891642 -0.173710
C51   C     C_R   0.177042 0.494458 0.096055 -0.189095
C52   C     C_R   0.823550 0.465245 0.903147 -0.179430
C53   C     C_R   0.688456 0.898081 0.936377 0.251700
C54   C     C_R   0.302065 0.935466 0.065047 0.240846
C55   C     C_R   0.190127 0.391222 0.938037 0.247937
C56   C     C_R   0.803357 0.479050 0.075777 0.236033
C57   C     C_R   0.701578 0.868696 0.887472 -0.069802
C58   C     C_R   0.287797 0.920926 0.115119 -0.090587
C59   C     C_R   0.204357 0.359249 0.889818 -0.073747
C60   C     C_R   0.787885 0.447155 0.123727 -0.092980
C61   C     C_R   0.782224 0.989314 0.885122 -0.137775
C62   C     C_R   0.200653 0.823570 0.090272 -0.132356
C63   C     C_R   0.278677 0.491353 0.884076 -0.139623
C64   C     C_R   0.708805 0.342129 0.088959 -0.133349
C65   C     C_R   0.767022 0.023754 0.932820 -0.148521
C66   C     C_R   0.215271 0.835908 0.040678 -0.167921
C67   C     C_R   0.262778 0.526829 0.931457 -0.146826
C68   C     C_R   0.724650 0.371920 0.041409 -0.162699
C69   C     C_R   0.725617 0.969009 0.961452 0.026693
C70   C     C_R   0.265093 0.893802 0.027680 0.034267
C71   C     C_R   0.224003 0.469171 0.961352 0.028044
C72   C     C_R   0.771082 0.441833 0.034460 0.031498
C73   C     C_R   0.752806 0.904698 0.863972 -0.035358
C74   C     C_R   0.235969 0.867964 0.127517 0.002954
C75   C     C_R   0.252652 0.401947 0.864584 -0.035962
C76   C     C_R   0.739713 0.380651 0.130208 0.000889
C77   C     C_R   0.540072 0.165554 0.374424 0.036789
C78   C     C_R   0.476580 0.167739 0.630823 0.024628
C79   C     C_R   0.040066 0.665557 0.374421 0.036741
C80   C     C_R   0.976575 0.667740 0.630821 0.023783
C81   C     C_R   0.499126 0.236735 0.393054 -0.129255
C82   C     C_R   0.480706 0.263309 0.607006 -0.124768
C83   C     C_R   0.999108 0.736719 0.393049 -0.129036
C84   C     C_R   0.980697 0.763310 0.607004 -0.125189
C85   C     C_R   0.489902 0.243230 0.444451 -0.114504
C86   C     C_R   0.497490 0.268555 0.557210 -0.121002
C87   C     C_R   0.989881 0.743216 0.444445 -0.114522
C88   C     C_R   0.997476 0.768557 0.557206 -0.121070
C89   C     C_R   0.729633 0.007549 0.177129 0.586562
C90   C     C_R   0.269004 0.004498 0.821742 0.564388
C91   C     C_R   0.229414 0.508489 0.176907 0.584398
C92   C     C_R   0.779470 0.542112 0.826451 0.580180
C93   C     C_R   0.522951 0.180632 0.477181 0.031803
C94   C     C_R   0.510372 0.178382 0.530801 0.036776
C95   C     C_R   0.022938 0.680636 0.477177 0.031770
C96   C     C_R   0.010358 0.678384 0.530797 0.036783
C97   C     C_R   0.565975 0.113864 0.458051 -0.125382
C98   C     C_R   0.509275 0.083704 0.555521 -0.119479
C99   C     C_R   0.065974 0.613887 0.458051 -0.125403
C100  C     C_R   0.009265 0.583706 0.555517 -0.119524
C101  C     C_R   0.573845 0.105642 0.407274 -0.116432
C102  C     C_R   0.493061 0.078525 0.605119 -0.126306
C103  C     C_R   0.073848 0.605665 0.407275 -0.116565
C104  C     C_R   0.993054 0.578526 0.605115 -0.126641
C105  C     C_R   0.743047 0.949103 0.369567 0.026448
C106  C     C_R   0.259827 0.954240 0.628643 0.025944
C107  C     C_R   0.243037 0.449137 0.369577 0.026036
C108  C     C_R   0.759877 0.454390 0.628598 0.025215
C109  C     C_R   0.695390 0.901999 0.393851 -0.138747
C110  C     C_R   0.310215 0.919926 0.602838 -0.126348
C111  C     C_R   0.195376 0.402044 0.393860 -0.138902
C112  C     C_R   0.810295 0.420214 0.602789 -0.126436
C113  C     C_R   0.698594 0.884246 0.444547 -0.129713
C114  C     C_R   0.307431 0.905205 0.551981 -0.123802
C115  C     C_R   0.198565 0.384332 0.444560 -0.129725
C116  C     C_R   0.807544 0.405614 0.551923 -0.123655
C117  C     C_R   0.750580 0.908754 0.471082 0.038602
C118  C     C_R   0.253743 0.920890 0.526471 0.037044
C119  C     C_R   0.250544 0.408862 0.471101 0.038634
C120  C     C_R   0.753862 0.421274 0.526404 0.037035
C121  C     C_R   0.800971 0.942744 0.445375 -0.123063
C122  C     C_R   0.201874 0.944727 0.553006 -0.121713
C123  C     C_R   0.300939 0.442845 0.445398 -0.123061
C124  C     C_R   0.701972 0.445014 0.552931 -0.121678
C125  C     C_R   0.797085 0.963731 0.394860 -0.126270
C126  C     C_R   0.204992 0.962211 0.603952 -0.130365
C127  C     C_R   0.297066 0.463797 0.394879 -0.126638
C128  C     C_R   0.705056 0.462384 0.603888 -0.130216
C129  C     C_R   0.783616 0.974044 0.554073 -0.119815
C130  C     C_R   0.216531 0.980778 0.444200 -0.116159
C131  C     C_R   0.283579 0.474136 0.554096 -0.119902
C132  C     C_R   0.716623 0.481062 0.444123 -0.116160
C133  C     C_R   0.721310 0.347652 0.321489 0.541694
C134  C     C_R   0.278965 0.346436 0.678070 0.540096
C135  C     C_R   0.221302 0.847629 0.321500 0.542042
C136  C     C_R   0.778968 0.846427 0.678066 0.542064
C137  C     C_R   0.789026 0.961556 0.605271 -0.126500
C138  C     C_R   0.210129 0.965681 0.393262 -0.121253
C139  C     C_R   0.289002 0.461616 0.605291 -0.126929
C140  C     C_R   0.710180 0.465855 0.393197 -0.120957
C141  C     C_R   0.724408 0.812944 0.600326 -0.124914
C142  C     C_R   0.280959 0.825092 0.397400 -0.124008
C143  C     C_R   0.224378 0.313013 0.600338 -0.124691
C144  C     C_R   0.781058 0.325340 0.397356 -0.123964
C145  C     C_R   0.720597 0.823408 0.549262 -0.124607
C146  C     C_R   0.286043 0.838283 0.448229 -0.122041
C147  C     C_R   0.220554 0.323506 0.549276 -0.124638
C148  C     C_R   0.786187 0.338644 0.448175 -0.121984
C149  C     C_R   0.751490 0.902234 0.525514 0.035121
C150  C     C_R   0.252347 0.913849 0.472224 0.037821
C151  C     C_R   0.251447 0.402340 0.525533 0.035127
C152  C     C_R   0.752478 0.414213 0.472156 0.037808
C153  C     C_R   0.761051 0.878751 0.628352 0.026662
C154  C     C_R   0.240392 0.884775 0.370096 0.026652
C155  C     C_R   0.261034 0.378796 0.628365 0.026864
C156  C     C_R   0.740439 0.384917 0.370053 0.026926
C157  C     C_R   0.555161 0.158720 0.321909 0.543019
C158  C     C_R   0.446123 0.158660 0.678702 0.545028
C159  C     C_R   0.055158 0.658721 0.321908 0.544026
C160  C     C_R   0.946122 0.658660 0.678702 0.546222
C161  C     C_R   0.732203 0.000738 0.322322 0.547842
C162  C     C_R   0.268254 0.001449 0.677276 0.541240
C163  C     C_R   0.232202 0.500743 0.322324 0.546770
C164  C     C_R   0.768262 0.501475 0.677265 0.551063
C165  C     C_R   0.517150 0.070782 0.101160 -0.106827
C166  C     C_R   0.483515 0.064169 0.896055 -0.109578
C167  C     C_R   0.013625 0.571425 0.102333 -0.093734
C168  C     C_R   0.980746 0.563851 0.896947 -0.115709
C169  C     C_R   0.512555 0.067425 0.049542 0.030003
C170  C     C_R   0.497976 0.063392 0.946250 0.020147
C171  C     C_R   0.007821 0.568045 0.050766 0.038617
C172  C     C_R   0.994032 0.563295 0.947362 0.018370
C173  C     C_R   0.494004 0.972395 0.973623 -0.050562
C174  C     C_R   0.501752 0.974270 0.025036 -0.048899
C175  C     C_R   0.987728 0.473131 0.975079 -0.083820
C176  C     C_R   0.994582 0.475495 0.026574 -0.073019
Cr1   Cr    Cr6+3 0.756570 0.170940 0.251190 1.049065
Cr2   Cr    Cr6+3 0.243430 0.170940 0.748810 1.058112
Cr3   Cr    Cr6+3 0.256570 0.670940 0.251190 1.051905
Cr4   Cr    Cr6+3 0.743430 0.670940 0.748810 1.054536
Cr5   Cr    Cr6+3 0.623740 0.299110 0.249580 1.034537
Cr6   Cr    Cr6+3 0.376260 0.299110 0.750420 1.018116
Cr7   Cr    Cr6+3 0.123740 0.799110 0.249580 1.033848
Cr8   Cr    Cr6+3 0.876260 0.799110 0.750420 1.012590
Cr9   Cr    Cr6+3 0.625990 0.036240 0.250480 1.016026
Cr10  Cr    Cr6+3 0.374010 0.036240 0.749520 1.014451
Cr11  Cr    Cr6+3 0.125990 0.536240 0.250480 1.014788
Cr12  Cr    Cr6+3 0.874010 0.536240 0.749520 1.012070
H1    H     H_    0.469505 0.992550 0.879101 0.143834
H2    H     H_    0.512485 0.000231 0.122014 0.139962
H3    H     H_    0.966198 0.492551 0.880046 0.136051
H4    H     H_    0.008658 0.501190 0.123383 0.137400
H5    H     H_    0.819540 0.024334 0.866438 0.145727
H6    H     H_    0.161956 0.778534 0.099727 0.120679
H7    H     H_    0.313836 0.530047 0.864215 0.140784
H8    H     H_    0.672191 0.289160 0.093664 0.119494
H9    H     H_    0.635796 0.012811 0.024867 0.170445
H10   H     H_    0.333333 0.810288 0.955502 0.125587
H11   H     H_    0.133413 0.504101 0.025461 0.171018
H12   H     H_    0.858177 0.396305 0.969576 0.132225
H13   H     H_    0.637294 0.018285 0.114766 0.144311
H14   H     H_    0.331693 0.853093 0.866796 0.130088
H15   H     H_    0.135672 0.508094 0.115305 0.144673
H16   H     H_    0.859847 0.435402 0.881098 0.138704
H17   H     H_    0.473997 0.285508 0.368039 0.113910
H18   H     H_    0.468192 0.333397 0.626018 0.128999
H19   H     H_    0.973972 0.785477 0.368032 0.114542
H20   H     H_    0.968183 0.833397 0.626016 0.129096
H21   H     H_    0.518244 0.012683 0.535926 0.101661
H22   H     H_    0.593446 0.067322 0.482377 0.111043
H23   H     H_    0.018235 0.512687 0.535921 0.101713
H24   H     H_    0.093451 0.567359 0.482379 0.110998
H25   H     H_    0.490140 0.003780 0.622381 0.127655
H26   H     H_    0.607765 0.054114 0.393567 0.129507
H27   H     H_    0.990136 0.503781 0.622377 0.127881
H28   H     H_    0.107778 0.554154 0.393569 0.129555
H29   H     H_    0.456231 0.295153 0.458448 0.106692
H30   H     H_    0.499073 0.342537 0.539090 0.099312
H31   H     H_    0.956202 0.795125 0.458440 0.106754
H32   H     H_    0.999055 0.842539 0.539086 0.099330
H33   H     H_    0.653604 0.887675 0.374840 0.126210
H34   H     H_    0.353192 0.913102 0.620973 0.132956
H35   H     H_    0.153596 0.387699 0.374843 0.126126
H36   H     H_    0.853266 0.413393 0.620935 0.133208
H37   H     H_    0.806037 0.037917 0.536719 0.102301
H38   H     H_    0.191848 0.042143 0.461890 0.101388
H39   H     H_    0.305998 0.538015 0.536747 0.102136
H40   H     H_    0.691930 0.542429 0.461802 0.101371
H41   H     H_    0.817220 0.013342 0.626342 0.123889
H42   H     H_    0.179107 0.013170 0.372640 0.128226
H43   H     H_    0.317203 0.513387 0.626364 0.122940
H44   H     H_    0.679125 0.513273 0.372572 0.128494
H45   H     H_    0.483162 0.900394 0.955495 0.137209
H46   H     H_    0.497472 0.903539 0.045760 0.136161
H47   H     H_    0.975857 0.401469 0.957096 0.122182
H48   H     H_    0.988600 0.405452 0.047528 0.126322
H49   H     H_    0.659033 0.857566 0.463217 0.096512
H50   H     H_    0.348134 0.887206 0.532431 0.102733
H51   H     H_    0.159000 0.357659 0.463226 0.096487
H52   H     H_    0.848263 0.387695 0.532378 0.102855
H53   H     H_    0.695948 0.766369 0.528327 0.100984
H54   H     H_    0.313759 0.785307 0.468940 0.099710
H55   H     H_    0.195900 0.266478 0.528339 0.100989
H56   H     H_    0.813935 0.285730 0.468893 0.099798
H57   H     H_    0.702620 0.747667 0.617071 0.138284
H58   H     H_    0.304901 0.761918 0.380471 0.136077
H59   H     H_    0.202592 0.247728 0.617078 0.138518
H60   H     H_    0.805004 0.262156 0.380440 0.136015
H61   H     H_    0.842504 0.957533 0.464670 0.097446
H62   H     H_    0.159468 0.953376 0.534158 0.104589
H63   H     H_    0.342467 0.457651 0.464698 0.097448
H64   H     H_    0.659571 0.453646 0.534074 0.104644
H65   H     H_    0.834995 0.997658 0.376504 0.128503
H66   H     H_    0.165498 0.987595 0.623376 0.125552
H67   H     H_    0.334980 0.497718 0.376526 0.128376
H68   H     H_    0.665542 0.487681 0.623310 0.126059
H69   H     H_    0.501409 0.318413 0.870747 0.121381
H70   H     H_    0.552431 0.323601 0.116449 0.142559
H71   H     H_    0.003766 0.816174 0.870606 0.121455
H72   H     H_    0.050346 0.823710 0.116993 0.138880
H73   H     H_    0.542522 0.406730 0.945132 0.116063
H74   H     H_    0.554969 0.410860 0.036179 0.111554
H75   H     H_    0.043739 0.904592 0.945455 0.124280
H76   H     H_    0.052951 0.910226 0.036852 0.107482
H77   H     H_    0.673551 0.813671 0.868778 0.216221
H78   H     H_    0.316070 0.952558 0.144095 0.142031
H79   H     H_    0.179800 0.296832 0.873234 0.219704
H80   H     H_    0.812065 0.476215 0.155767 0.142720
H81   H     H_    0.792514 0.085386 0.949435 0.125097
H82   H     H_    0.186106 0.804473 0.012231 0.125028
H83   H     H_    0.285882 0.592481 0.946871 0.121868
H84   H     H_    0.699186 0.343427 0.009909 0.123993
O1    O     O_R   0.769900 0.064540 0.196060 -0.453154
O2    O     O_R   0.230100 0.064540 0.803940 -0.443439
O3    O     O_R   0.269900 0.564540 0.196060 -0.448306
O4    O     O_R   0.730100 0.564540 0.803940 -0.436754
O5    O     O_R   0.574760 0.239320 0.300850 -0.490728
O6    O     O_R   0.425240 0.239320 0.699150 -0.502273
O7    O     O_R   0.074760 0.739320 0.300850 -0.490362
O8    O     O_R   0.925240 0.739320 0.699150 -0.500178
O9    O     O_R   0.566290 0.069580 0.305400 -0.516696
O10   O     O_R   0.433710 0.069580 0.694600 -0.523273
O11   O     O_R   0.066290 0.569580 0.305400 -0.516465
O12   O     O_R   0.933710 0.569580 0.694600 -0.521800
O13   O     O_R   0.680760 0.993330 0.302620 -0.509448
O14   O     O_R   0.319240 0.993330 0.697380 -0.508717
O15   O     O_R   0.180760 0.493330 0.302620 -0.509647
O16   O     O_R   0.819240 0.493330 0.697380 -0.502790
O17   O     O_3   0.668770 0.168760 0.250420 -0.259177
O18   O     O_3   0.331230 0.168760 0.749580 -0.247429
O19   O     O_3   0.168770 0.668760 0.250420 -0.259660
O20   O     O_3   0.831230 0.668760 0.749580 -0.266446
O21   O     O_R   0.750800 0.274080 0.199250 -0.496690
O22   O     O_R   0.249200 0.274080 0.800750 -0.485254
O23   O     O_R   0.250800 0.774080 0.199250 -0.495296
O24   O     O_R   0.749200 0.774080 0.800750 -0.495253
O25   O     O_R   0.669990 0.371670 0.194150 -0.512604
O26   O     O_R   0.330010 0.371670 0.805850 -0.518364
O27   O     O_R   0.169990 0.871670 0.194150 -0.514437
O28   O     O_R   0.830010 0.871670 0.805850 -0.518955
O29   O     O_R   0.574600 0.238480 0.197800 -0.496970
O30   O     O_R   0.425400 0.238480 0.802200 -0.499239
O31   O     O_R   0.074600 0.738480 0.197800 -0.498261
O32   O     O_R   0.925400 0.738480 0.802200 -0.500780
O33   O     O_R   0.566130 0.068680 0.194240 -0.528117
O34   O     O_R   0.433870 0.068680 0.805760 -0.520094
O35   O     O_R   0.066130 0.568680 0.194240 -0.528939
O36   O     O_R   0.933870 0.568680 0.805760 -0.530192
O37   O     O_R   0.680610 0.992490 0.199570 -0.516318
O38   O     O_R   0.319390 0.992490 0.800430 -0.514744
O39   O     O_R   0.180610 0.492490 0.199570 -0.517784
O40   O     O_R   0.819390 0.492490 0.800430 -0.513979
O41   O     O_R   0.770060 0.065440 0.307230 -0.516640
O42   O     O_R   0.229940 0.065440 0.692770 -0.522792
O43   O     O_R   0.270060 0.565440 0.307230 -0.516829
O44   O     O_R   0.729940 0.565440 0.692770 -0.519274
O45   O     O_R   0.750960 0.274920 0.302300 -0.509829
O46   O     O_R   0.249040 0.274920 0.697700 -0.509027
O47   O     O_R   0.250960 0.774920 0.302300 -0.509424
O48   O     O_R   0.749040 0.774920 0.697700 -0.508540
O49   O     O_R   0.670160 0.372580 0.305320 -0.514542
O50   O     O_R   0.329840 0.372580 0.694680 -0.520101
O51   O     O_R   0.170160 0.872580 0.305320 -0.514438
O52   O     O_R   0.829840 0.872580 0.694680 -0.517916
Cl1   Cl    Cl    0.850599 0.938048 0.129865 -0.575337
Cl2   Cl    Cl    0.162423 0.094465 0.886836 -0.605582
Cl3   Cl    Cl    0.352284 0.454707 0.128147 -0.589872
Cl4   Cl    Cl    0.665604 0.616406 0.886366 -0.609440
Cl5   Cl    Cl    0.627402 0.839104 0.964836 -0.650250
Cl6   Cl    Cl    0.363741 0.011367 0.050306 -0.677315
Cl7   Cl    Cl    0.131924 0.326751 0.967949 -0.639807
Cl8   Cl    Cl    0.859993 0.570465 0.068857 -0.646422
C177  C     C_R   0.838754 0.941450 0.016511 0.083780
C178  C     C_R   0.879491 0.022864 0.014279 -0.071976
C179  C     C_R   0.921003 0.026640 0.975891 -0.131165
C180  C     C_R   0.921906 0.949360 0.939824 -0.105774
C181  C     C_R   0.885394 0.863329 0.944659 -0.086234
C182  C     C_R   0.844410 0.858513 0.983349 -0.043950
H85   H     H_    0.875535 0.087681 0.039374 0.134366
H86   H     H_    0.950343 0.091954 0.972649 0.122767
H87   H     H_    0.951205 0.956077 0.908256 0.116620
H88   H     H_    0.886337 0.803077 0.916907 0.129600
H89   H     H_    0.813025 0.795828 0.984069 0.123828
C183  C     C_R   0.199410 0.070536 0.994930 0.085844
C184  C     C_R   0.232296 0.142318 0.022725 -0.048455
C185  C     C_R   0.205228 0.198839 0.060697 -0.066234
C186  C     C_R   0.144881 0.184969 0.070793 -0.052658
C187  C     C_R   0.111480 0.115588 0.042424 -0.069549
C188  C     C_R   0.138699 0.058837 0.004554 -0.029664
H90   H     H_    0.279023 0.153408 0.015364 0.158857
H91   H     H_    0.231010 0.253316 0.082241 0.135026
H92   H     H_    0.123867 0.228969 0.100072 0.116181
H93   H     H_    0.064553 0.105835 0.049755 0.107302
H94   H     H_    0.112981 0.005351 0.982822 0.118774
C189  C     C_R   0.338860 0.458723 0.015282 0.079829
C190  C     C_R   0.376671 0.544183 0.012543 -0.072025
C191  C     C_R   0.419492 0.549575 0.975189 -0.133389
C192  C     C_R   0.424433 0.470150 0.940458 -0.108838
C193  C     C_R   0.389802 0.381827 0.945244 -0.089010
C194  C     C_R   0.347888 0.375140 0.983138 -0.053430
H95   H     H_    0.369897 0.609725 0.036751 0.137143
H96   H     H_    0.446859 0.617338 0.971743 0.119745
H97   H     H_    0.455047 0.477185 0.909766 0.116074
H98   H     H_    0.393116 0.320601 0.918192 0.133069
H99   H     H_    0.318558 0.309588 0.984252 0.117249
C195  C     C_R   0.690599 0.597279 0.997908 0.085169
C196  C     C_R   0.711651 0.666886 0.034005 -0.050177
C197  C     C_R   0.672750 0.710707 0.068491 -0.063014
C198  C     C_R   0.612303 0.686372 0.066971 -0.059728
C199  C     C_R   0.590831 0.617841 0.031080 -0.077138
C200  C     C_R   0.629902 0.572710 0.997029 -0.027350
H100  H     H_    0.758250 0.686592 0.035744 0.156993
H101  H     H_    0.689460 0.763791 0.096244 0.129750
H102  H     H_    0.582098 0.720958 0.093410 0.112033
H103  H     H_    0.543955 0.599318 0.029822 0.107893
H104  H     H_    0.613182 0.518297 0.970136 0.130879

loop_
_geom_bond_atom_site_label_1
_geom_bond_atom_site_label_2
_ccdc_geom_bond_type
C99   C103  A    
C7    C168  A    
C191  C192  A    
C37   C69   S    
C142  C146  A    
C77   C101  A    
C19   C20   A    
C45   O33   A    
C53   C69   A    
C38   C70   S    
C181  C182  A    
C34   C183  S    
C177  C178  A    
C108  C164  S    
C68   H84   S    
C55   C59   A    
C26   C50   A    
C194  H99   S    
C95   C99   A    
C78   C102  A    
C29   C33   A    
C100  C104  A    
C3    C74   S    
C9    C13   A    
C198  H102  S    
C195  C200  A    
C146  C150  A    
C131  C151  A    
C178  H85   S    
C12   C16   A    
C142  H58   S    
C169  C174  A    
C196  H100  S    
C92   O4    A    
Cr8   O20   S    
C172  C175  A    
C141  C145  A    
C138  C154  A    
C6    C165  A    
C21   C22   A    
C89   O1    A    
C112  H36   S    
C174  H46   S    
C41   C49   A    
C197  C198  A    
Cr12  O20   S    
C50   H14   S    
C165  C169  A    
C27   C31   A    
C42   H10   S    
Cr9   O17   S    
Cr10  O14   S    
C62   C66   A    
C167  C171  A    
Cr4   O44   S    
C98   C102  A    
C60   C76   A    
C66   H82   S    
Cr5   O49   S    
C78   C82   A    
C102  H25   S    
C134  C155  S    
C54   C70   A    
Cr3   O3    S    
C68   C72   A    
C117  C149  S    
C165  H2    S    
C137  C153  A    
C32   Cl4   S    
C3    O27   A    
Cr8   O32   S    
C162  O14   A    
C163  O43   A    
C20   C172  A    
C175  H47   S    
C132  C152  A    
C62   H6    S    
C130  C138  A    
C109  H33   S    
C183  C188  A    
C160  O12   A    
C84   C88   A    
C180  C181  A    
Cr7   O7    S    
Cr5   O25   S    
C26   C90   S    
C5    C46   S    
Cr1   O17   S    
C105  C125  A    
Cr7   O19   S    
C7    C48   S    
Cr6   O30   S    
C8    C47   S    
C133  O45   A    
C175  C176  A    
C115  H51   S    
C136  C153  S    
C66   C70   A    
C126  H66   S    
C35   C189  S    
C187  C188  A    
C30   Cl2   S    
C80   C160  S    
C157  O5    A    
C179  C180  A    
C61   C65   A    
C158  O10   A    
C129  C137  A    
C130  H38   S    
C200  H104  S    
C193  C194  A    
C39   C71   S    
C47   O35   A    
C4    O28   A    
C103  H28   S    
C55   C71   A    
C2    C75   S    
C90   O38   A    
Cr12  O12   S    
Cr6   O50   S    
C159  O7    A    
C160  O8    A    
C134  O50   A    
C119  C123  A    
C6    C9    A    
C199  C200  A    
C185  H91   S    
Cr6   O6    S    
C129  C149  A    
C190  H95   S    
Cr4   O20   S    
C127  H67   S    
C64   C68   A    
C182  H89   S    
C86   H30   S    
C81   H17   S    
C57   C73   A    
C184  H90   S    
C162  O42   A    
C83   H19   S    
C186  H92   S    
C123  C127  A    
C78   C158  S    
C53   Cl5   S    
C87   C95   A    
C130  C150  A    
C141  H57   S    
C23   C24   A    
C27   C91   S    
C193  H98   S    
C45   O29   A    
Cr12  O36   S    
C110  C114  A    
C29   Cl1   S    
C181  H88   S    
C114  H50   S    
C88   H32   S    
C44   C52   A    
Cr9   O33   S    
C79   C103  A    
C11   C15   A    
C27   C51   A    
C7    C12   A    
C98   H21   S    
C49   H13   S    
C30   C34   A    
C145  H53   S    
C138  H42   S    
Cr1   O41   S    
C41   H9    S    
C10   C14   A    
C178  C179  A    
C56   C72   A    
C142  C154  A    
C116  C120  A    
C144  C156  A    
C147  C151  A    
C121  C125  A    
C56   Cl8   S    
C131  H39   S    
C122  H62   S    
C84   H20   S    
C143  C155  A    
C139  C155  A    
C146  H54   S    
C54   C58   A    
C17   C18   A    
C10   H69   S    
C90   O2    A    
C5    C166  A    
C108  C128  A    
C4    C73   S    
C42   C50   A    
C113  C117  A    
C107  C163  S    
C44   H12   S    
C115  C119  A    
C105  C161  S    
Cr10  O18   S    
C61   H5    S    
C82   H18   S    
C58   C74   A    
Cr4   O48   S    
C105  C109  A    
C40   C72   S    
Cr8   O52   S    
C1    C76   S    
C107  C111  A    
C148  C152  A    
C139  H43   S    
C26   C30   A    
Cr8   O8    S    
C171  C176  A    
C100  H23   S    
C13   C17   A    
C166  H1    S    
C14   C22   A    
C3    O23   A    
C124  H64   S    
Cr8   O28   S    
C135  O47   A    
C63   C75   A    
C136  O48   A    
C96   C100  A    
C24   H75   S    
C128  H68   S    
C37   C41   A    
C131  C139  A    
C21   H74   S    
C40   C44   A    
C183  C184  A    
C129  H37   S    
C148  H56   S    
C9    H70   S    
Cr9   O9    S    
C188  H94   S    
C81   C85   A    
C83   C87   A    
C88   C96   A    
Cr1   O21   S    
C6    C45   S    
C93   C97   A    
Cr2   O18   S    
C133  C156  S    
Cr6   O26   S    
Cr3   O23   S    
C112  C116  A    
C80   C84   A    
Cr1   O1    S    
C15   C19   A    
C135  C154  S    
C80   C104  A    
C1    O25   A    
C132  H40   S    
C79   C159  S    
C179  H86   S    
C158  O6    A    
C94   C98   A    
C135  O51   A    
C118  C150  S    
C14   C18   A    
C195  C196  A    
Cr12  O16   S    
C173  H45   S    
C159  O11   A    
C12   H71   S    
C46   O34   A    
C199  H103  S    
C124  C128  A    
C67   H83   S    
C18   C170  A    
Cr4   O24   S    
C25   C29   A    
Cr5   O17   S    
C60   H80   S    
Cr7   O27   S    
C51   H15   S    
C163  O15   A    
C164  O16   A    
C137  H41   S    
C186  C187  A    
C53   C57   A    
C61   C73   A    
C82   C86   A    
C33   C37   A    
C56   C60   A    
C52   H16   S    
Cr12  O40   S    
C35   C39   A    
C8    C167  A    
C28   C32   A    
C101  H26   S    
Cr9   O37   S    
Cr10  O34   S    
C111  H35   S    
Cr11  O39   S    
C140  H44   S    
C63   H7    S    
Cr1   O45   S    
C110  H34   S    
C32   C36   A    
Cr3   O47   S    
C133  O49   A    
Cr11  O11   S    
C54   Cl6   S    
C104  H27   S    
C1    O21   A    
C132  C140  A    
C106  C126  A    
C25   C89   S    
C11   H72   S    
C91   O3    A    
C79   C83   A    
C43   C51   A    
C177  C182  A    
C65   C69   A    
Cr11  O35   S    
C143  H59   S    
C67   C71   A    
C106  C162  S    
C25   C49   A    
Cr11  O19   S    
C108  C112  A    
C168  C172  A    
C62   C74   A    
C145  C149  A    
C164  O44   A    
C170  C173  A    
Cr7   O51   S    
C93   C94   S    
C2    O22   A    
C95   C96   S    
C144  C148  A    
C141  C153  A    
C134  O46   A    
C173  C174  A    
C143  C147  A    
C167  H4    S    
C168  H3    S    
C19   C171  A    
C38   C42   A    
C36   C195  S    
C197  H101  S    
C17   C169  A    
C22   H73   S    
C64   H8    S    
Cr9   O13   S    
C117  C121  A    
Cr10  O10   S    
Cr11  O15   S    
C189  C190  A    
Cr2   O22   S    
C59   H79   S    
Cr3   O19   S    
C77   C81   A    
C86   C94   A    
C16   C20   A    
Cr2   O2    S    
C15   C23   A    
C189  C194  A    
C57   H77   S    
C16   C24   A    
C33   C177  S    
C85   C93   A    
C2    O26   A    
C161  O13   A    
C187  H93   S    
C99   H24   S    
C119  C151  S    
C63   C67   A    
C120  C152  S    
C97   H22   S    
C13   C21   A    
C36   C40   A    
C39   C43   A    
C122  C126  A    
C46   O30   A    
C118  C122  A    
C123  H63   S    
C180  H87   S    
C196  C197  A    
C121  H61   S    
C58   H78   S    
C64   C76   A    
Cr5   O29   S    
C192  H97   S    
C28   C92   S    
Cr6   O18   S    
C48   O36   A    
C125  H65   S    
C109  C113  A    
Cr7   O31   S    
C114  C118  A    
C85   H29   S    
C140  C156  A    
C147  H55   S    
C87   H31   S    
C144  H60   S    
C59   C75   A    
C65   H81   S    
C157  O9    A    
C198  C199  A    
C92   O40   A    
C191  H96   S    
C23   H76   S    
C34   C38   A    
C47   O31   A    
C4    O24   A    
C48   O32   A    
C89   O37   A    
C161  O41   A    
C91   O39   A    
C116  H52   S    
Cr10  O38   S    
C55   Cl7   S    
C31   Cl3   S    
C43   H11   S    
C5    C10   A    
Cr4   O4    S    
Cr5   O5    S    
C28   C52   A    
C185  C186  A    
C176  H48   S    
C8    C11   A    
C113  H49   S    
C190  C191  A    
C166  C170  A    
C136  O52   A    
C31   C35   A    
C192  C193  A    
Cr2   O46   S    
Cr3   O43   S    
C106  C110  A    
C111  C115  A    
C107  C127  A    
C184  C185  A    
C97   C101  A    
C120  C124  A    
C77   C157  S    
Cr2   O42   S    
