data_mof_unit_33028.cif
_audit_creation_date              2012-12-11T14:56:36-0500
_audit_creation_method            fapswitch 2.2
_symmetry_space_group_name_H-M    P1
_symmetry_Int_Tables_number       1
_space_group_crystal_system       triclinic
_cell_length_a                    10.510001
_cell_length_b                    10.727013
_cell_length_c                    17.118034
_cell_angle_alpha                 80.03023
_cell_angle_beta                  90.032795
_cell_angle_gamma                 119.605499
_cell_volume                      1644.45738805

loop_
_atom_site_label
_atom_site_type_symbol
_atom_type_description
_atom_site_fract_x
_atom_site_fract_y
_atom_site_fract_z
_atom_type_partial_charge
C1    C     C_R   0.224129 0.855152 0.129042 0.558789
C2    C     C_R   0.768168 0.324987 0.285608 0.216014
C3    C     C_R   0.772945 0.330933 0.204740 0.205724
C4    C     C_R   0.654222 0.325848 0.163290 -0.062151
C5    C     C_1   0.685891 0.830690 0.201611 -0.084541
C6    C     C_1   0.704342 0.806690 0.270361 -0.071019
C7    C     C_1   0.184212 0.828365 0.211759 -0.044593
C8    C     C_1   0.155023 0.823157 0.280230 -0.046884
C9    C     C_1   0.620620 0.266795 0.775571 -0.064026
C10   C     C_1   0.634490 0.310471 0.705263 -0.061968
C11   C     C_R   0.644241 0.718810 0.805051 0.229949
C12   C     C_R   0.637145 0.278092 0.087636 0.594773
C13   C     C_R   0.632015 0.702064 0.726296 -0.166460
C14   C     C_R   0.667612 0.822307 0.664728 0.067567
C15   C     C_R   0.724037 0.962770 0.680379 0.253597
C16   C     C_R   0.734833 0.979602 0.759522 -0.164934
C17   C     C_R   0.689118 0.857201 0.821451 0.043789
C18   C     C_R   0.078045 0.892439 0.793387 -0.156491
C19   C     C_R   0.047350 0.885108 0.714951 0.234591
C20   C     C_R   0.052556 0.777141 0.680826 -0.006617
C21   C     C_R   0.083100 0.675185 0.727007 -0.169667
C22   C     C_R   0.125948 0.690657 0.803981 0.231707
C23   C     C_R   0.644056 0.855540 0.124177 0.535697
C24   C     C_R   0.131559 0.806559 0.835025 0.030167
C25   C     C_R   0.711783 0.772377 0.353574 0.553861
C26   C     C_R   0.682840 0.384798 0.398986 0.593919
C27   C     C_R   0.105060 0.811356 0.359500 0.553532
C28   C     C_R   0.676693 0.800579 0.584960 0.609946
C29   C     C_R   0.675283 0.376143 0.623526 0.554453
C30   C     C_R   0.029324 0.774742 0.596680 0.582558
C31   C     C_R   0.214541 0.857853 0.902529 0.565511
C32   C     C_R   0.613338 0.221288 0.859021 0.553303
C33   C     C_R   0.647791 0.867639 0.899284 0.575423
C34   C     C_R   0.535108 0.324172 0.203325 0.203737
C35   C     C_R   0.533760 0.324167 0.285272 0.225955
C36   C     C_R   0.652756 0.330127 0.325204 -0.031097
Cr1   Cr    Cr6+3 0.402240 0.783890 0.019450 1.056827
Cr2   Cr    Cr6+3 0.382360 0.097900 0.991800 1.044726
Cr3   Cr    Cr6+3 0.715380 0.118170 0.988700 1.034339
Cr4   Cr    Cr6+3 0.936650 0.882420 0.465510 1.098658
Cr5   Cr    Cr6+3 0.605770 0.565620 0.493360 1.012818
Cr6   Cr    Cr6+3 0.921340 0.550490 0.496380 1.017459
H1    H     H_    0.081852 0.588702 0.701822 0.132028
H2    H     H_    0.598150 0.595511 0.712790 0.117961
H3    H     H_    0.769609 0.086397 0.772771 0.114460
H4    H     H_    0.071115 0.974248 0.819399 0.145720
O1    O     O_R   0.521780 0.757110 0.108900 -0.539626
O2    O     O_R   0.513330 0.228330 0.898660 -0.501443
O3    O     O_R   0.739230 0.266130 0.888050 -0.491746
O4    O     O_R   0.712580 0.991850 0.918770 -0.542472
O5    O     O_3   0.499990 0.999980 0.999980 -0.291268
O6    O     O_R   0.083770 0.911170 0.376030 -0.477331
O7    O     O_R   0.808770 0.880340 0.383890 -0.475198
O8    O     O_R   0.584340 0.689460 0.394160 -0.515156
O9    O     O_R   0.614320 0.443940 0.423590 -0.490831
O10   O     O_R   0.805020 0.410040 0.421340 -0.469654
O11   O     O_R   0.049240 0.685450 0.403290 -0.528858
O12   O     O_R   0.275160 0.783810 0.101120 -0.496797
O13   O     O_R   0.077520 0.903010 0.551800 -0.458159
O14   O     O_R   0.802980 0.872780 0.546830 -0.438601
O15   O     O_R   0.578090 0.681300 0.569920 -0.539613
O16   O     O_R   0.608530 0.436370 0.586530 -0.509103
O17   O     O_R   0.798770 0.401880 0.597100 -0.519918
O18   O     O_R   0.043450 0.677890 0.566230 -0.513546
O19   O     O_3   0.821250 0.666180 0.485090 -0.319390
O20   O     O_R   0.237900 0.972600 0.090980 -0.486164
O21   O     O_R   0.511190 0.220540 0.061620 -0.464981
O22   O     O_R   0.736920 0.257720 0.063840 -0.464406
O23   O     O_R   0.710450 0.984050 0.081720 -0.515348
O24   O     O_R   0.524090 0.765520 0.933110 -0.452759
O25   O     O_R   0.277300 0.791600 0.938160 -0.431603
O26   O     O_R   0.240210 0.981010 0.915190 -0.551932
O27   O     O_3   0.413391 0.309466 0.165195 -0.540049
C37   C     C_3   0.450906 0.439884 0.109847 -0.075359
H5    H     H_    0.557790 0.536436 0.117151 0.105592
H6    H     H_    0.363222 0.467360 0.116702 0.139564
H7    H     H_    0.453966 0.422300 0.048077 0.174447
O28   O     O_3   0.008065 0.980381 0.671559 -0.541410
C38   C     C_3   0.124643 0.126250 0.662690 -0.076228
H8    H     H_    0.233157 0.137773 0.646389 0.128988
H9    H     H_    0.127672 0.169588 0.717476 0.097829
H10   H     H_    0.104812 0.194922 0.613565 0.156678
O29   O     O_3   0.167745 0.598299 0.847806 -0.656397
H11   H     H_    0.157938 0.524439 0.816860 0.318103
O30   O     O_3   0.410993 0.301872 0.329712 -0.519403
C39   C     C_3   0.377017 0.413209 0.303008 -0.036120
H12   H     H_    0.472684 0.518065 0.271607 0.108230
H13   H     H_    0.336688 0.436242 0.355538 0.131615
H14   H     H_    0.286163 0.374110 0.264199 0.144718
O31   O     O_3   0.875129 0.308582 0.326978 -0.527586
C40   C     C_3   0.013431 0.439763 0.309646 -0.026523
H15   H     H_    0.004125 0.538068 0.287219 0.119013
H16   H     H_    0.085666 0.433069 0.265583 0.115846
H17   H     H_    0.069591 0.455478 0.364984 0.141321
O32   O     O_3   0.896668 0.343831 0.165871 -0.546829
C41   C     C_3   0.897832 0.210194 0.184452 -0.015357
H18   H     H_    0.787162 0.113317 0.205144 0.133094
H19   H     H_    0.973423 0.213999 0.230253 0.142622
H20   H     H_    0.940923 0.194141 0.130219 0.152912
O33   O     O_3   0.608260 0.601751 0.866900 -0.683746
H21   H     H_    0.577957 0.512732 0.844696 0.334688
O34   O     O_3   0.768424 0.080490 0.617952 -0.666532
H22   H     H_    0.816839 0.171561 0.639407 0.333075

loop_
_geom_bond_atom_site_label_1
_geom_bond_atom_site_label_2
_ccdc_geom_bond_type
Cr3   O5    S    
C29   O17   A    
Cr4   O14   S    
C30   O18   A    
C11   C13   A    
O27   C37   S    
C23   O23   A    
O32   C41   S    
Cr5   O15   S    
C26   O9    A    
C7    C8    T    
C20   C30   S    
O30   C39   S    
C12   O22   A    
C37   H6    S    
C18   C24   A    
C21   C22   A    
C25   O7    A    
C18   C19   A    
C5    C6    T    
Cr1   O5    S    
C39   H13   S    
C6    C25   S    
C15   C16   A    
C41   H20   S    
C34   C35   A    
Cr3   O22   S    
C2    O31   S    
Cr5   O9    S    
C9    C32   S    
Cr6   O10   S    
C21   H1    S    
Cr2   O20   S    
C16   C17   A    
C37   H7    S    
C41   H19   S    
Cr6   O19   S    
Cr1   O1    S    
C9    C10   T    
Cr2   O2    S    
Cr1   O12   S    
C28   O15   A    
C31   O25   A    
Cr4   O13   S    
C1    C7    S    
Cr1   O24   S    
C30   O13   A    
C32   O2    A    
C17   C33   S    
Cr5   O16   S    
C18   H4    S    
Cr6   O11   S    
C4    C34   A    
C28   O14   A    
Cr5   O8    S    
C12   O21   A    
Cr2   O26   S    
C23   O1    A    
C37   H5    S    
C25   O8    A    
C27   O11   A    
C40   H15   S    
C38   H9    S    
C39   H12   S    
Cr5   O19   S    
Cr2   O5    S    
C33   O4    A    
Cr4   O6    S    
C11   O33   S    
C35   C36   A    
C19   O28   S    
C40   H16   S    
O29   H11   S    
C5    C23   S    
C41   H18   S    
C1    O20   A    
Cr3   O23   S    
C20   C21   A    
C33   O24   A    
C26   C36   S    
C31   O26   A    
Cr3   O3    S    
Cr4   O19   S    
Cr1   O25   S    
C22   C24   A    
C4    C12   S    
C3    C4    A    
Cr6   O18   S    
C27   O6    A    
C2    C36   A    
C29   O16   A    
C11   C17   A    
O28   C38   S    
C39   H14   S    
C26   O10   A    
C16   H3    S    
C38   H10   S    
C22   O29   S    
C19   C20   A    
C2    C3    A    
C24   C31   S    
C1    O12   A    
C40   H17   S    
C35   O30   S    
C10   C29   S    
O31   C40   S    
O33   H21   S    
C15   O34   S    
O34   H22   S    
C32   O3    A    
C34   O27   S    
C38   H8    S    
Cr3   O4    S    
Cr2   O21   S    
Cr4   O7    S    
C8    C27   S    
C14   C15   A    
C3    O32   S    
C14   C28   S    
C13   C14   A    
Cr6   O17   S    
C13   H2    S    
