data_mof_unit_26523.cif
_audit_creation_date              2012-12-11T14:04:15-0500
_audit_creation_method            fapswitch 2.2
_symmetry_space_group_name_H-M    P1
_symmetry_Int_Tables_number       1
_space_group_crystal_system       triclinic
_cell_length_a                    18.956126
_cell_length_b                    11.0796
_cell_length_c                    18.794834
_cell_angle_alpha                 89.429994
_cell_angle_beta                  89.225946
_cell_angle_gamma                 90.024165
_cell_volume                      3946.85316707

loop_
_atom_site_label
_atom_site_type_symbol
_atom_type_description
_atom_site_fract_x
_atom_site_fract_y
_atom_site_fract_z
_atom_type_partial_charge
C1    C     C_R   0.227274 0.513509 0.637722 0.589951
C2    C     C_R   0.000622 0.672832 0.572210 -0.018866
C3    C     C_3   0.440075 0.700968 0.328816 -0.265158
C4    C     C_3   0.373566 0.695763 0.284100 -0.382284
C5    C     C_3   0.536832 0.593498 0.641421 0.004590
C6    C     C_3   0.460765 0.627184 0.661513 -0.315267
C7    C     C_3   0.449244 0.621023 0.741980 -0.419978
C8    C     C_R   0.514140 0.172729 0.416316 0.025156
C9    C     C_R   0.510238 0.165045 0.566544 0.000023
C10   C     C_R   0.037444 0.868060 0.411096 0.344117
C11   C     C_R   0.047076 0.880972 0.553514 0.309345
C12   C     C_R   0.508066 0.397212 0.420209 0.363145
C13   C     C_R   0.539135 0.379294 0.558900 0.320712
C14   C     C_R   0.037358 0.983282 0.441531 0.305844
C15   C     C_R   0.037026 0.990155 0.515953 0.303067
C16   C     C_R   0.503081 0.501302 0.461788 0.286667
C17   C     C_R   0.759620 0.466976 0.352948 0.577318
C18   C     C_R   0.521780 0.493448 0.533609 0.286875
C19   C     C_R   0.016648 0.776027 0.528018 -0.071882
C20   C     C_R   0.017786 0.766104 0.453409 -0.054142
C21   C     C_R   0.512009 0.277112 0.528674 -0.089154
C22   C     C_R   0.508574 0.281792 0.453872 -0.066001
C23   C     C_R   0.977461 0.567513 0.539659 0.005753
C24   C     C_R   0.995041 0.550291 0.468033 0.000907
C25   C     C_R   0.510526 0.059452 0.525228 0.006680
C26   C     C_R   0.531389 0.068364 0.453616 0.027153
C27   C     C_R   0.945224 0.473046 0.578985 -0.090117
C28   C     C_R   0.740139 0.967668 0.646969 0.592654
C29   C     C_R   0.999856 0.429793 0.443805 -0.063022
C30   C     C_R   0.492366 0.944694 0.551678 -0.106498
C31   C     C_R   0.558646 0.967306 0.418814 -0.101930
C32   C     C_R   0.944417 0.357190 0.552167 -0.119482
C33   C     C_R   0.974378 0.334611 0.485883 -0.068746
C34   C     C_R   0.508539 0.843525 0.511643 -0.082231
C35   C     C_R   0.549045 0.854735 0.449277 -0.090576
C36   C     C_2   0.256080 0.928485 0.915608 -0.094115
C37   C     C_2   0.743120 0.936978 0.086136 -0.118701
C38   C     C_2   0.737728 0.396926 0.928911 -0.056818
C39   C     C_R   0.272815 0.013039 0.362068 0.568438
C40   C     C_2   0.242710 0.436798 0.086225 -0.101257
C41   C     C_2   0.256708 0.943206 0.072063 -0.118282
C42   C     C_2   0.729051 0.985102 0.933421 -0.123583
C43   C     C_2   0.748215 0.399244 0.085140 -0.118493
C44   C     C_2   0.229099 0.484340 0.933397 -0.128758
C45   C     C_R   0.229804 0.880290 0.650970 0.654617
C46   C     C_R   0.772537 0.872923 0.352706 0.584773
C47   C     C_R   0.728387 0.375073 0.648043 0.640730
C48   C     C_R   0.270972 0.377925 0.350212 0.566052
C49   C     C_2   0.234876 0.031243 0.027007 0.363030
C50   C     C_2   0.307781 0.893701 0.546673 0.330118
C51   C     C_2   0.764467 0.057533 0.977494 0.355531
C52   C     C_2   0.687822 0.415071 0.050408 0.370517
C53   C     C_2   0.261953 0.559129 0.978096 0.349337
C54   C     C_2   0.218621 0.007918 0.953138 0.373964
C55   C     C_2   0.779317 0.023869 0.051295 0.379548
C56   C     C_2   0.682114 0.392792 0.974716 0.373065
C57   C     C_2   0.278004 0.524836 0.051564 0.377493
C58   C     C_2   0.043643 0.655213 0.932889 -0.094146
C59   C     C_2   0.017095 0.663165 0.086895 -0.103443
C60   C     C_2   0.539008 0.153163 0.932356 -0.038222
C61   C     C_2   0.718450 0.830740 0.467887 0.345468
C62   C     C_2   0.516434 0.163287 0.086583 -0.089267
C63   C     C_2   0.037717 0.563500 0.052209 -0.155720
C64   C     C_2   0.059645 0.564513 0.977251 -0.173666
C65   C     C_2   0.536945 0.063615 0.052022 -0.162038
C66   C     C_2   0.558536 0.065272 0.977158 -0.169890
C67   C     C_R   0.030004 0.657100 0.644706 0.560122
C68   C     C_R   0.972285 0.652726 0.352931 0.603866
C69   C     C_R   0.531931 0.155161 0.642931 0.577859
C70   C     C_R   0.474436 0.156400 0.350867 0.555587
C71   C     C_R   0.224349 0.516304 0.858630 0.590587
C72   C     C_2   0.779465 0.328682 0.532708 0.359357
C73   C     C_R   0.760637 0.463670 0.150590 0.575299
C74   C     C_R   0.724356 0.016457 0.858587 0.585693
C75   C     C_R   0.262738 0.972411 0.146817 0.604026
C76   C     C_R   0.228432 0.875240 0.851532 0.582052
C77   C     C_R   0.771493 0.876829 0.148695 0.572429
C78   C     C_R   0.725433 0.369372 0.854776 0.576936
C79   C     C_R   0.271452 0.376790 0.148687 0.600046
C80   C     C_R   0.061435 0.647469 0.857957 0.544201
C81   C     C_R   0.972978 0.652642 0.150619 0.565911
C82   C     C_R   0.559903 0.147396 0.858263 0.564213
C83   C     C_2   0.192648 0.391595 0.454297 0.360114
C84   C     C_R   0.472872 0.152684 0.150580 0.564749
C85   C     C_2   0.259714 0.945337 0.590016 0.405532
C86   C     C_2   0.749581 0.911263 0.422976 0.339025
C87   C     C_2   0.751945 0.412434 0.577184 0.408321
C88   C     C_2   0.240985 0.442659 0.410473 0.336103
C89   C     C_2   0.263454 0.971264 0.434763 -0.039325
C90   C     C_2   0.756696 0.907493 0.580797 -0.065606
C91   C     C_2   0.742211 0.406917 0.419495 -0.036584
C92   C     C_2   0.236634 0.472305 0.565206 -0.062565
C93   C     C_2   0.318872 0.939110 0.474135 -0.106072
C94   C     C_R   0.004296 0.654040 0.423238 0.026419
C95   C     C_2   0.705510 0.859327 0.542255 -0.025675
C96   C     C_2   0.792318 0.355180 0.457865 -0.053854
C97   C     C_2   0.181407 0.437854 0.526277 -0.051243
C98   C     C_3   0.004798 0.098878 0.342872 0.036917
C99   C     C_3   0.048031 0.125021 0.275165 -0.229754
C100  C     C_3   0.000533 0.146118 0.211301 -0.443393
C101  C     C_3   0.037139 0.105657 0.621311 0.027522
C102  C     C_3   0.964656 0.062093 0.649717 -0.333425
C103  C     C_3   0.949238 0.112567 0.723595 -0.413957
C104  C     C_3   0.431723 0.629137 0.398396 0.017698
Cr1   Cr    Cr6+3 0.113970 0.508630 0.747920 1.042408
Cr2   Cr    Cr6+3 0.887700 0.820070 0.250200 1.067148
Cr3   Cr    Cr6+3 0.612300 0.320070 0.749800 1.069366
Cr4   Cr    Cr6+3 0.387700 0.320070 0.250200 1.117827
Cr5   Cr    Cr6+3 0.886030 0.508630 0.252080 1.022256
Cr6   Cr    Cr6+3 0.613970 0.008630 0.747920 1.023971
Cr7   Cr    Cr6+3 0.386030 0.008630 0.252080 1.001300
Cr8   Cr    Cr6+3 0.269200 0.666740 0.749850 1.047344
Cr9   Cr    Cr6+3 0.730800 0.666740 0.250150 1.123096
Cr10  Cr    Cr6+3 0.769200 0.166740 0.749850 1.055731
Cr11  Cr    Cr6+3 0.230800 0.166740 0.250150 1.082782
Cr12  Cr    Cr6+3 0.112300 0.820070 0.749800 1.058406
F1    F     F_    0.162014 0.066007 0.925022 -0.568041
F2    F     F_    0.767987 0.023478 0.445097 -0.639026
F3    F     F_    0.736855 0.526215 0.554008 -0.614981
F4    F     F_    0.269082 0.552403 0.425852 -0.697345
F5    F     F_    0.061391 0.855273 0.343063 -0.629706
F6    F     F_    0.115576 0.860060 0.563677 -0.618324
F7    F     F_    0.524181 0.412967 0.350052 -0.593881
F8    F     F_    0.608196 0.365997 0.567607 -0.601725
F9    F     F_    0.219875 0.144216 0.050683 -0.597057
F10   F     F_    0.796806 0.158630 0.951669 -0.606629
F11   F     F_    0.629256 0.459086 0.084002 -0.559772
F12   F     F_    0.835747 0.078309 0.081583 -0.579607
F13   F     F_    0.290309 0.664184 0.953197 -0.615410
F14   F     F_    0.615290 0.377624 0.951000 -0.602038
F15   F     F_    0.334109 0.580332 0.081774 -0.570298
F16   F     F_    0.340807 0.789153 0.564908 -0.681236
F17   F     F_    0.699549 0.718528 0.446363 -0.588927
F18   F     F_    0.794355 0.214484 0.555076 -0.615987
F19   F     F_    0.158823 0.287889 0.436839 -0.591460
F20   F     F_    0.230854 0.054342 0.572925 -0.636746
H1    H     H_    0.371630 0.935742 0.450958 0.139489
H2    H     H_    0.694456 0.900985 0.065288 0.039020
H3    H     H_    0.791465 0.409678 0.946465 0.072740
H4    H     H_    0.194204 0.400213 0.065293 0.078838
H5    H     H_    0.032146 0.474934 0.076994 0.172708
H6    H     H_    0.083359 0.482661 0.956542 0.151882
H7    H     H_    0.532211 0.975097 0.077023 0.175496
H8    H     H_    0.585627 0.986180 0.957017 0.137203
H9    H     H_    0.026016 0.752867 0.064993 0.122068
H10   H     H_    0.018006 0.736916 0.951132 0.132771
H11   H     H_    0.524837 0.252789 0.064072 0.187405
H12   H     H_    0.653136 0.843452 0.564506 0.163529
H13   H     H_    0.508784 0.230729 0.949903 0.172031
H14   H     H_    0.210093 0.968172 0.456696 0.222737
H15   H     H_    0.809666 0.917836 0.558513 0.139661
H16   H     H_    0.689862 0.421292 0.442391 0.211384
H17   H     H_    0.289996 0.470426 0.543282 0.148397
H18   H     H_    0.023472 0.408134 0.392773 0.167814
H19   H     H_    0.923868 0.487773 0.631965 0.126473
H20   H     H_    0.582375 0.974891 0.366155 0.129206
H21   H     H_    0.463297 0.933220 0.601220 0.153382
H22   H     H_    0.921787 0.285051 0.583684 0.161336
H23   H     H_    0.843307 0.333639 0.434587 0.134885
H24   H     H_    0.974908 0.243908 0.466183 0.195578
H25   H     H_    0.487917 0.758530 0.528646 0.228324
H26   H     H_    0.569509 0.778139 0.421120 0.242076
H27   H     H_    0.969429 0.176929 0.352614 0.111181
H28   H     H_    0.969560 0.019960 0.334117 0.163633
H29   H     H_    0.081115 0.206567 0.283102 0.183532
H30   H     H_    0.083538 0.047650 0.263875 0.236265
H31   H     H_    0.967835 0.064826 0.201577 0.195334
H32   H     H_    0.033565 0.164747 0.163188 0.181893
H33   H     H_    0.965443 0.224833 0.220694 0.156073
H34   H     H_    0.128653 0.433300 0.549490 0.159222
H35   H     H_    0.044942 0.200963 0.637334 0.166462
H36   H     H_    0.080110 0.054633 0.646662 0.218771
H37   H     H_    0.922124 0.089112 0.612901 0.209308
H38   H     H_    0.963827 0.962156 0.653984 0.142999
H39   H     H_    0.992808 0.089737 0.760314 0.161002
H40   H     H_    0.899818 0.072583 0.745391 0.202981
H41   H     H_    0.942959 0.212179 0.720670 0.139548
H42   H     H_    0.397820 0.680851 0.435947 0.202765
H43   H     H_    0.404367 0.543471 0.387394 0.211189
H44   H     H_    0.451950 0.796606 0.341058 0.168488
H45   H     H_    0.270136 0.853148 0.054144 0.109034
H46   H     H_    0.484875 0.664003 0.297083 0.213096
H47   H     H_    0.366357 0.603734 0.262732 0.201508
H48   H     H_    0.378870 0.759305 0.238363 0.182782
H49   H     H_    0.326369 0.720565 0.316386 0.204946
H50   H     H_    0.572635 0.661723 0.664521 0.163295
H51   H     H_    0.550845 0.506271 0.666908 0.186930
H52   H     H_    0.449395 0.720437 0.643228 0.198702
H53   H     H_    0.423440 0.564592 0.635653 0.191467
H54   H     H_    0.455833 0.526872 0.761664 0.161994
H55   H     H_    0.395110 0.651830 0.755437 0.207323
H56   H     H_    0.704813 0.901293 0.951178 0.040772
H57   H     H_    0.487323 0.680693 0.769105 0.143919
H58   H     H_    0.792625 0.352875 0.060647 0.119649
H59   H     H_    0.207458 0.398098 0.950584 0.097903
H60   H     H_    0.304661 0.891578 0.936789 0.117853
O1    O     O_R   0.043230 0.549300 0.667990 -0.529308
O2    O     O_R   0.832470 0.905110 0.169660 -0.445521
O3    O     O_R   0.667530 0.405110 0.830340 -0.469905
O4    O     O_R   0.332470 0.405110 0.169660 -0.444752
O5    O     O_R   0.054010 0.748440 0.822860 -0.492609
O6    O     O_R   0.945990 0.748440 0.177140 -0.483142
O7    O     O_R   0.554010 0.248440 0.822860 -0.465193
O8    O     O_R   0.445990 0.248440 0.177140 -0.454534
O9    O     O_3   0.165160 0.665150 0.749190 -0.329643
O10   O     O_3   0.834840 0.665150 0.250810 -0.284244
O11   O     O_3   0.665160 0.165150 0.749190 -0.304179
O12   O     O_R   0.956770 0.549300 0.332010 -0.550862
O13   O     O_3   0.334840 0.165150 0.250810 -0.298510
O14   O     O_R   0.178620 0.457600 0.674100 -0.486620
O15   O     O_R   0.821380 0.457600 0.325900 -0.519337
O16   O     O_R   0.678620 0.957600 0.674100 -0.501266
O17   O     O_R   0.321380 0.957600 0.325900 -0.525333
O18   O     O_R   0.284680 0.542100 0.669460 -0.504387
O19   O     O_R   0.715320 0.542100 0.330540 -0.424963
O20   O     O_R   0.784680 0.042100 0.669460 -0.480915
O21   O     O_R   0.215320 0.042100 0.330540 -0.446885
O22   O     O_R   0.262860 0.790390 0.676650 -0.500211
O23   O     O_R   0.543230 0.049300 0.667990 -0.525285
O24   O     O_R   0.737140 0.790390 0.323350 -0.483313
O25   O     O_R   0.762860 0.290390 0.676650 -0.503306
O26   O     O_R   0.237140 0.290390 0.323350 -0.491768
O27   O     O_R   0.167460 0.907030 0.670940 -0.448368
O28   O     O_R   0.832540 0.907030 0.329060 -0.518955
O29   O     O_R   0.667460 0.407030 0.670940 -0.445816
O30   O     O_R   0.332540 0.407030 0.329060 -0.538752
O31   O     O_R   0.053950 0.750220 0.675100 -0.470468
O32   O     O_R   0.946050 0.750220 0.324900 -0.461207
O33   O     O_R   0.553950 0.250220 0.675100 -0.472020
O34   O     O_R   0.456770 0.049300 0.332010 -0.557304
O35   O     O_R   0.446050 0.250220 0.324900 -0.436930
O36   O     O_R   0.043300 0.547370 0.827390 -0.500495
O37   O     O_R   0.956700 0.547370 0.172610 -0.515468
O38   O     O_R   0.543300 0.047370 0.827390 -0.517363
O39   O     O_R   0.456700 0.047370 0.172610 -0.517511
O40   O     O_R   0.178690 0.455820 0.821860 -0.497517
O41   O     O_R   0.821310 0.455820 0.178140 -0.505067
O42   O     O_R   0.678690 0.955820 0.821860 -0.525564
O43   O     O_R   0.321310 0.955820 0.178140 -0.497984
O44   O     O_R   0.284750 0.540170 0.828860 -0.450885
O45   O     O_R   0.262920 0.788600 0.824420 -0.496851
O46   O     O_R   0.715250 0.540170 0.171140 -0.427040
O47   O     O_R   0.784750 0.040170 0.828860 -0.462946
O48   O     O_R   0.215250 0.040170 0.171140 -0.454702
O49   O     O_3   0.051028 0.086877 0.401385 -0.481518
O50   O     O_3   0.043695 0.103871 0.546104 -0.514555
O51   O     O_3   0.498817 0.612293 0.428836 -0.565706
O52   O     O_3   0.548260 0.595264 0.566537 -0.513293
O53   O     O_R   0.737080 0.788600 0.175580 -0.513640
O54   O     O_R   0.762920 0.288600 0.824420 -0.483986
O55   O     O_R   0.237080 0.288600 0.175580 -0.477771
O56   O     O_R   0.167530 0.905110 0.830340 -0.456052

loop_
_geom_bond_atom_site_label_1
_geom_bond_atom_site_label_2
_ccdc_geom_bond_type
C3    C104  S    
C43   C73   S    
C30   H21   S    
C28   O20   A    
C101  C102  S    
C6    H52   S    
C55   F12   S    
C8    C26   A    
Cr11  O26   S    
C75   O43   A    
C19   C20   A    
C17   C91   S    
C18   O52   S    
C34   H25   S    
C7    H55   S    
C70   O34   A    
C98   H27   S    
C61   F17   S    
C90   C95   D    
C102  H37   S    
Cr3   O7    S    
C11   C19   A    
C64   H6    S    
C13   C18   A    
C101  H36   S    
C43   H58   S    
C9    C69   S    
Cr8   O9    S    
C69   O33   A    
C91   H16   S    
C65   H7    S    
C43   C52   D    
C104  H43   S    
Cr11  O55   S    
C49   C54   S    
Cr10  O54   S    
C12   C22   A    
Cr6   O38   S    
Cr9   O53   S    
Cr10  O11   S    
C6    H53   S    
C44   C71   S    
C34   C35   A    
C24   C29   A    
C20   C94   A    
C75   O48   A    
C36   C76   S    
C50   C85   D    
C91   C96   D    
C70   O35   A    
C60   C82   S    
C44   C53   D    
C104  H42   S    
C73   O46   A    
C12   C16   A    
C29   C33   A    
C10   C20   A    
Cr8   O44   S    
C68   O12   A    
Cr7   O39   S    
C38   H3    S    
C48   C88   S    
C7    H54   S    
C101  H35   S    
Cr6   O11   S    
C40   C57   D    
C23   C27   A    
C7    H57   S    
C77   O2    A    
Cr9   O24   S    
C83   F19   S    
Cr12  O9    S    
C33   H24   S    
C58   C80   S    
C42   C51   D    
Cr2   O2    S    
C14   O49   S    
C10   F5    S    
Cr1   O1    S    
C83   C88   D    
C47   O25   A    
C60   C66   D    
C26   C31   A    
C4    H47   S    
C21   C22   A    
C58   C64   D    
C45   O22   A    
C41   H45   S    
C87   F3    S    
Cr5   O10   S    
C46   O28   A    
C11   C15   A    
C5    H50   S    
C80   O36   A    
C101  O50   S    
C41   C49   D    
C3    H46   S    
C52   F11   S    
C39   O21   A    
C92   C97   D    
Cr4   O13   S    
C6    C7    S    
C32   H22   S    
C27   H19   S    
Cr2   O28   S    
C42   C74   S    
C35   H26   S    
C46   O24   A    
C30   C34   A    
Cr12  O31   S    
C9    C25   A    
C45   O27   A    
Cr1   O36   S    
Cr10  O20   S    
C84   O39   A    
C93   H1    S    
Cr4   O4    S    
C98   O49   S    
C2    C67   S    
C10   C14   A    
C13   F8    S    
Cr11  O13   S    
C68   O32   A    
C79   O55   A    
C38   C78   S    
C51   C55   S    
C67   O1    A    
C25   C26   A    
C2    C19   A    
C37   C77   S    
C42   H56   S    
C68   C94   S    
Cr1   O14   S    
C63   C64   S    
C37   C55   D    
C103  H41   S    
C47   C87   S    
C4    H49   S    
C74   O42   A    
Cr5   O12   S    
C45   C85   S    
C3    H44   S    
C36   H60   S    
C82   O38   A    
C73   O41   A    
Cr9   O10   S    
C24   C94   A    
C41   C75   S    
C48   O30   A    
C8    C22   A    
C99   C100  S    
C47   O29   A    
C15   O50   S    
C67   O31   A    
C23   C24   A    
C104  O51   S    
C103  H39   S    
C63   H5    S    
C40   C79   S    
C13   C21   A    
C86   F2    S    
Cr5   O15   S    
Cr12  O5    S    
C71   O40   A    
C4    H48   S    
C72   F18   S    
Cr6   O23   S    
C92   H17   S    
C50   F16   S    
C74   O47   A    
C59   H9    S    
C89   H14   S    
C65   C66   S    
C1    C92   S    
Cr8   O18   S    
C37   H2    S    
C100  H31   S    
C78   O54   A    
Cr1   O40   S    
Cr2   O32   S    
C59   C63   D    
C11   F6    S    
C53   F13   S    
C78   O3    A    
C5    H51   S    
C5    O52   S    
C3    C4    S    
C76   O56   A    
C2    C23   A    
C72   C87   D    
C49   F9    S    
C16   O51   S    
C100  H33   S    
C25   C30   A    
C80   O5    A    
C62   C84   S    
Cr8   O45   S    
C44   H59   S    
C53   C57   S    
C79   O4    A    
C62   C65   D    
C27   C32   A    
C69   O23   A    
C51   F10   S    
Cr3   O11   S    
C57   F15   S    
Cr6   O16   S    
C95   H12   S    
C59   C81   S    
C90   H15   S    
C17   O15   A    
Cr7   O17   S    
Cr2   O10   S    
C98   H28   S    
C66   H8    S    
C61   C95   S    
C50   C93   S    
Cr1   O9    S    
C81   O6    A    
Cr5   O41   S    
C102  H38   S    
C38   C56   D    
Cr12  O56   S    
Cr6   O42   S    
C8    C70   S    
C58   H10   S    
C100  H32   S    
C39   O17   A    
C32   C33   A    
C99   H30   S    
Cr12  O27   S    
Cr3   O33   S    
C76   O45   A    
Cr4   O8    S    
C1    O14   A    
Cr8   O22   S    
C71   O44   A    
Cr7   O13   S    
Cr3   O3    S    
C9    C21   A    
C5    C6    S    
C12   F7    S    
Cr4   O30   S    
C62   H11   S    
Cr3   O29   S    
C31   C35   A    
C103  H40   S    
Cr10  O47   S    
C81   O37   A    
C60   H13   S    
Cr10  O25   S    
C89   C93   D    
C102  C103  S    
C28   O16   A    
Cr7   O43   S    
C48   O26   A    
C36   C54   D    
C61   C86   D    
C97   H34   S    
C85   F20   S    
Cr11  O48   S    
C72   C96   S    
C31   H20   S    
C82   O7    A    
C96   H23   S    
C77   O53   A    
Cr2   O6    S    
C16   C18   A    
C98   C99   S    
C83   C97   S    
C54   F1    S    
C1    O18   A    
Cr9   O46   S    
Cr7   O34   S    
Cr9   O19   S    
C14   C15   A    
Cr11  O21   S    
C28   C90   S    
C99   H29   S    
C84   O8    A    
C17   O19   A    
C88   F4    S    
C39   C89   S    
C40   H4    S    
C56   F14   S    
C52   C56   S    
C29   H18   S    
C46   C86   S    
Cr4   O35   S    
Cr5   O37   S    
