data_mof_unit_34628.cif
_audit_creation_date              2012-12-10T18:08:43-0500
_audit_creation_method            fapswitch 2.2
_symmetry_space_group_name_H-M    P1
_symmetry_Int_Tables_number       1
_space_group_crystal_system       triclinic
_cell_length_a                    12.728391
_cell_length_b                    13.881337
_cell_length_c                    23.535396
_cell_angle_alpha                 90.129242
_cell_angle_beta                  92.894763
_cell_angle_gamma                 98.024045
_cell_volume                      4112.25169713

loop_
_atom_site_label
_atom_site_type_symbol
_atom_type_description
_atom_site_fract_x
_atom_site_fract_y
_atom_site_fract_z
_atom_type_partial_charge
C1    C     C_R   0.483501 0.315819 0.499305 0.828963
C2    C     C_R   0.516503 0.684197 0.500559 0.829718
C3    C     C_R   0.599972 0.512578 0.241702 0.343203
C4    C     C_R   0.592808 0.498842 0.764340 0.346027
C5    C     C_R   0.598325 0.513518 0.301106 -0.245641
C6    C     C_R   0.592492 0.497411 0.704923 -0.248466
C7    C     C_R   0.501694 0.499511 0.328165 -0.163220
C8    C     C_R   0.498203 0.500513 0.671824 -0.168827
C9    C     C_R   0.405861 0.484757 0.295199 -0.288841
C10   C     C_R   0.403141 0.504612 0.698758 -0.271195
C11   C     C_R   0.405951 0.486101 0.235709 0.452203
C12   C     C_R   0.401542 0.503676 0.758193 0.454496
C13   C     C_R   0.503002 0.498327 0.208953 0.138933
C14   C     C_R   0.496555 0.502174 0.791052 0.130569
C15   C     C_1   0.526159 0.787483 0.500211 -0.133883
C16   C     C_1   0.473918 0.212579 0.497763 -0.133081
C17   C     C_2   0.545369 0.979742 0.498789 0.390727
C18   C     C_2   0.455383 0.020455 0.493749 0.386705
C19   C     C_1   0.464999 0.125518 0.496037 -0.041808
C20   C     C_1   0.535296 0.874592 0.499684 -0.048247
C21   C     C_2   0.028042 0.470414 0.485158 0.179942
C22   C     C_2   0.971908 0.528814 0.515248 0.181972
C23   C     C_R   0.500568 0.499779 0.390692 0.846325
C24   C     C_R   0.499425 0.500184 0.609305 0.849762
C25   C     C_1   0.854640 0.520121 0.511356 0.324286
C26   C     C_1   0.145336 0.479542 0.488802 0.314194
C27   C     C_R   0.493350 0.587119 0.880395 0.694697
C28   C     C_R   0.490219 0.412081 0.119190 0.696108
C29   C     C_R   0.487218 0.414860 0.879454 0.670103
C30   C     C_R   0.504485 0.584983 0.120374 0.695304
C31   C     C_R   0.479695 0.411070 0.939013 -0.164409
C32   C     C_R   0.493927 0.587443 0.060456 -0.162377
C33   C     C_R   0.490948 0.500137 0.969781 -0.083567
C34   C     C_R   0.492903 0.499218 0.029855 -0.098693
C35   C     C_R   0.499613 0.590036 0.940514 -0.163167
C36   C     C_R   0.493142 0.410021 0.059267 -0.141424
C37   C     C_R   0.466088 0.321759 0.968764 0.230336
C38   C     C_R   0.488509 0.675251 0.030369 0.333254
C39   C     C_R   0.490789 0.322055 0.027794 0.273362
C40   C     C_R   0.509446 0.678637 0.972130 0.311499
Cu1   Cu    Cu3+1 0.395330 0.493960 0.496390 1.038871
Cu2   Cu    Cu3+1 0.604670 0.506040 0.503610 1.049961
H1    H     H_    0.672554 0.525100 0.326349 0.225199
H2    H     H_    0.666111 0.493923 0.684399 0.220072
H3    H     H_    0.330854 0.471195 0.315526 0.189929
H4    H     H_    0.330153 0.509276 0.673846 0.204256
N1    N     N_R   0.493503 0.501533 0.851951 -0.446927
N2    N     N_R   0.501384 0.498537 0.147920 -0.447023
N3    N     N_1   0.238030 0.484870 0.490960 -0.144384
N4    N     N_1   0.761970 0.515130 0.509040 -0.141329
O1    O     O_R   0.399110 0.356330 0.496510 -0.580991
O2    O     O_R   0.600890 0.643670 0.503490 -0.579324
O3    O     O_R   0.575900 0.366540 0.502610 -0.542746
O4    O     O_R   0.424100 0.633460 0.497390 -0.544807
O5    O     O_R   0.411590 0.494870 0.414830 -0.579444
O6    O     O_R   0.588410 0.505130 0.585170 -0.574332
O7    O     O_R   0.588370 0.505070 0.420930 -0.569806
O8    O     O_R   0.411630 0.494930 0.579070 -0.571698
O9    O     O_2   0.483754 0.667830 0.850024 -0.428737
O10   O     O_2   0.472424 0.329099 0.148916 -0.438328
O11   O     O_2   0.491999 0.333496 0.848937 -0.430716
O12   O     O_2   0.521130 0.667951 0.151351 -0.440660
S1    S     S_3+6 0.395707 0.213852 0.935790 0.133988
O13   O     O_2   0.471296 0.160057 0.905506 -0.129743
O14   O     O_2   0.341233 0.147726 0.979054 -0.177775
O15   O     O_3   0.302618 0.243223 0.888159 -0.501517
H5    H     H_    0.258227 0.281627 0.910053 0.327112
S2    S     S_3+6 0.432193 0.772927 0.061158 0.126375
O16   O     O_2   0.516887 0.839399 0.094431 -0.145237
O17   O     O_2   0.381881 0.830335 0.015880 -0.178748
O18   O     O_3   0.337574 0.727415 0.104995 -0.555610
H6    H     H_    0.316420 0.784920 0.124031 0.382045
S3    S     S_3+6 0.537750 0.217290 0.058585 0.150595
O19   O     O_2   0.627377 0.247688 0.101779 -0.243959
O20   O     O_2   0.449037 0.156628 0.087411 -0.128479
O21   O     O_3   0.582959 0.148496 0.008923 -0.421441
H7    H     H_    0.644401 0.190410 0.993662 0.356503
S4    S     S_3+6 0.566579 0.791873 0.943172 0.140687
O22   O     O_2   0.651627 0.775217 0.903689 -0.247058
O23   O     O_2   0.481836 0.837830 0.910840 -0.159455
O24   O     O_3   0.622716 0.868638 0.994982 -0.432806
H8    H     H_    0.641248 0.931813 0.975893 0.404406
S5    S     S_3+6 0.723722 0.529576 0.209314 0.052044
O25   O     O_2   0.737759 0.626633 0.180498 -0.197612
O26   O     O_2   0.813819 0.526935 0.252878 -0.267500
O27   O     O_3   0.727221 0.442152 0.160249 -0.481754
H9    H     H_    0.722031 0.380930 0.182104 0.382647
S6    S     S_3+6 0.714167 0.495841 0.804154 0.054839
O28   O     O_2   0.715290 0.396045 0.828515 -0.202085
O29   O     O_2   0.806912 0.518221 0.766930 -0.270242
O30   O     O_3   0.726926 0.577158 0.857915 -0.480030
H10   H     H_    0.731736 0.641254 0.839107 0.382263
O31   O     O_3   0.312055 0.467911 0.202678 -0.578230
C41   C     C_3   0.251457 0.544618 0.209495 0.042129
H11   H     H_    0.300940 0.616966 0.205170 0.179737
H12   H     H_    0.216054 0.540287 0.251842 0.157968
C42   C     C_3   0.161513 0.535165 0.163440 -0.304944
H13   H     H_    0.195808 0.541112 0.120855 0.249059
H14   H     H_    0.112696 0.462575 0.166340 0.253241
C43   C     C_3   0.090211 0.613884 0.169768 -0.730417
H15   H     H_    0.053164 0.607770 0.211585 0.275738
H16   H     H_    0.026122 0.605073 0.135584 0.287055
H17   H     H_    0.136943 0.687233 0.166273 0.255068
O32   O     O_3   0.308898 0.511551 0.785055 -0.570259
C44   C     C_3   0.239136 0.423388 0.778252 0.034943
H18   H     H_    0.280004 0.359874 0.790539 0.187694
H19   H     H_    0.207339 0.414231 0.733330 0.163185
C45   C     C_3   0.146323 0.426127 0.816655 -0.299328
H20   H     H_    0.177078 0.434407 0.861720 0.222076
H21   H     H_    0.105475 0.489793 0.805484 0.270314
C46   C     C_3   0.066334 0.333552 0.810332 -0.777224
H22   H     H_    0.032880 0.325004 0.765801 0.266594
H23   H     H_    0.000290 0.337890 0.838891 0.286447
H24   H     H_    0.104960 0.268913 0.822063 0.271181
O33   O     O_3   0.357135 0.960371 0.490070 -0.610844
C47   C     C_3   0.273191 0.006650 0.465943 0.093146
H25   H     H_    0.217139 0.950230 0.442285 0.187448
H26   H     H_    0.299735 0.062426 0.433757 0.135145
C48   C     C_3   0.212608 0.048759 0.512630 -0.359061
H27   H     H_    0.176250 0.988565 0.539489 0.249008
H28   H     H_    0.267851 0.099652 0.540363 0.228695
C49   C     C_3   0.125379 0.103134 0.487181 -0.844051
H29   H     H_    0.160645 0.165955 0.461964 0.284127
H30   H     H_    0.081352 0.130807 0.521874 0.271992
H31   H     H_    0.068536 0.053854 0.459298 0.250894
O34   O     O_3   0.643176 0.040281 0.505241 -0.610767
C50   C     C_3   0.732458 0.992410 0.496643 0.088605
H32   H     H_    0.795570 0.047249 0.480287 0.197082
H33   H     H_    0.716965 0.934347 0.463302 0.134298
C51   C     C_3   0.775020 0.954015 0.553053 -0.367807
H34   H     H_    0.797677 0.015844 0.583350 0.247959
H35   H     H_    0.712599 0.901941 0.572124 0.232010
C52   C     C_3   0.871823 0.902951 0.544560 -0.806915
H36   H     H_    0.850140 0.838922 0.515795 0.274240
H37   H     H_    0.901766 0.877623 0.586236 0.275509
H38   H     H_    0.936207 0.953768 0.526148 0.250046
S7    S     S_3+6 0.038723 0.620530 0.561473 -0.001559
O35   O     O_2   0.107052 0.575442 0.604953 -0.285189
O36   O     O_2   0.107777 0.693441 0.527575 -0.284299
O37   O     O_3   0.949943 0.676772 0.594648 -0.528618
H39   H     H_    0.993248 0.725014 0.620406 0.385190
S8    S     S_3+6 0.961206 0.377841 0.439503 -0.004882
O38   O     O_2   0.889608 0.307351 0.473593 -0.294510
O39   O     O_2   0.895459 0.422436 0.394578 -0.258388
O40   O     O_3   0.049898 0.318616 0.408305 -0.539884
H40   H     H_    0.006670 0.263945 0.387123 0.384026

loop_
_geom_bond_atom_site_label_1
_geom_bond_atom_site_label_2
_ccdc_geom_bond_type
C38   C40   A    
C21   C26   S    
S1    O14   D    
C9    H3    S    
O31   C41   S    
Cu1   Cu2   S    
C46   H22   S    
O24   H8    S    
C45   H20   S    
C44   H19   S    
C22   S7    S    
O34   C50   S    
C29   N1    A    
C30   N2    A    
C21   S8    S    
C12   O32   S    
C16   C19   T    
Cu2   O3    S    
O40   H40   S    
C33   C35   A    
S4    O23   D    
C17   O34   S    
O33   C47   S    
C42   H13   S    
C17   C20   S    
C47   H25   S    
C7    C9    A    
C18   C19   S    
S3    O19   D    
C1    O3    A    
C25   N4    T    
Cu1   O5    S    
Cu2   O6    S    
C37   S1    S    
C45   H21   S    
S2    O16   D    
C22   C25   S    
C10   H4    S    
C52   H38   S    
C31   C33   A    
C32   C38   A    
C3    C13   A    
C11   O31   S    
C48   H28   S    
O15   H5    S    
C5    H1    S    
S1    O15   S    
C6    H2    S    
C21   C22   D    
S3    O20   D    
S8    O40   S    
C10   C12   A    
Cu2   O7    S    
Cu1   N3    S    
O32   C44   S    
C42   H14   S    
C33   C34   A    
C28   O10   S    
C15   C20   T    
C44   C45   S    
C29   O11   S    
C24   O8    A    
O21   H7    S    
C4    C6    A    
C2    O4    A    
C26   N3    T    
O30   H10   S    
C5    C7    A    
S4    O22   D    
C6    C8    A    
C41   C42   S    
C27   C35   A    
C43   H17   S    
C31   C37   A    
C32   C34   A    
C51   H35   S    
C50   H33   S    
S7    O36   D    
S5    O25   D    
S6    O30   S    
C29   C31   A    
C43   H16   S    
C17   C18   D    
C46   H23   S    
C1    C16   S    
O37   H39   S    
C41   H12   S    
C2    C15   S    
C1    O1    A    
C2    O2    A    
Cu2   N4    S    
C40   S4    S    
S2    O17   D    
S5    O26   D    
S6    O29   D    
C9    C11   A    
C3    S5    S    
C52   H36   S    
S3    O21   S    
S8    O39   D    
C51   C52   S    
C49   H30   S    
C50   H32   S    
C42   C43   S    
S7    O35   D    
C48   C49   S    
C27   N1    A    
C23   O7    A    
C28   N2    A    
O27   H9    S    
C36   C39   A    
C38   S2    S    
C3    C5    A    
C18   O33   S    
Cu1   O8    S    
C13   N2    S    
C48   H27   S    
C47   C48   S    
C23   O5    A    
C14   N1    S    
C4    S6    S    
C24   O6    A    
C44   H18   S    
C45   C46   S    
C49   H31   S    
C30   O12   S    
C51   H34   S    
C12   C14   A    
C50   C51   S    
O18   H6    S    
C37   C39   A    
C27   O9    S    
C30   C32   A    
C11   C13   A    
S4    O24   S    
S2    O18   S    
C7    C23   S    
S7    O37   S    
C43   H15   S    
C8    C24   S    
C47   H26   S    
C35   C40   A    
C46   H24   S    
C34   C36   A    
C39   S3    S    
C4    C14   A    
C41   H11   S    
Cu1   O4    S    
S1    O13   D    
S5    O27   S    
S6    O28   D    
C28   C36   A    
C8    C10   A    
C52   H37   S    
S8    O38   D    
C49   H29   S    
Cu1   O1    S    
Cu2   O2    S    
