data_mof_unit_11295.cif
_audit_creation_date              2012-12-11T15:34:51-0500
_audit_creation_method            fapswitch 2.2
_symmetry_space_group_name_H-M    P1
_symmetry_Int_Tables_number       1
_space_group_crystal_system       triclinic
_cell_length_a                    30.487579
_cell_length_b                    7.24081
_cell_length_c                    26.016825
_cell_angle_alpha                 89.999967
_cell_angle_beta                  112.073228
_cell_angle_gamma                 90.0
_cell_volume                      5322.37628755

loop_
_atom_site_label
_atom_site_type_symbol
_atom_type_description
_atom_site_fract_x
_atom_site_fract_y
_atom_site_fract_z
_atom_type_partial_charge
O1    O     O_R   0.295360 0.592990 0.320420 -0.533115
O2    O     O_R   0.704640 0.407010 0.679580 -0.533116
O3    O     O_R   0.204640 0.092990 0.179580 -0.533115
O4    O     O_R   0.795360 0.907010 0.820420 -0.533116
O5    O     O_R   0.294060 0.265620 0.213230 -0.538918
O6    O     O_R   0.705940 0.734380 0.786770 -0.538918
O7    O     O_R   0.205940 0.765620 0.286770 -0.538918
O8    O     O_R   0.794060 0.234380 0.713230 -0.538919
C1    C     C_R   0.304141 0.432298 0.199494 0.696713
C2    C     C_R   0.695859 0.567702 0.800506 0.696713
C3    C     C_R   0.195859 0.932298 0.300506 0.696714
C4    C     C_R   0.804141 0.067702 0.699494 0.696715
O9    O     O_R   0.300850 0.263360 0.322080 -0.536508
O10   O     O_R   0.699150 0.736640 0.677920 -0.536508
O11   O     O_R   0.199150 0.763360 0.177920 -0.536508
O12   O     O_R   0.800850 0.236640 0.822080 -0.536508
O13   O     O_R   0.211480 0.091820 0.289210 -0.537688
O14   O     O_R   0.788520 0.908180 0.710790 -0.537688
O15   O     O_R   0.288520 0.591820 0.210790 -0.537687
O16   O     O_R   0.711480 0.408180 0.789210 -0.537688
C5    C     C_R   0.313054 0.430587 0.343555 0.685021
C6    C     C_R   0.686946 0.569413 0.656445 0.685020
C7    C     C_R   0.186946 0.930587 0.156444 0.685020
C8    C     C_R   0.813054 0.069413 0.843555 0.685021
O17   O     O_3   0.220670 0.426670 0.239090 -0.373940
O18   O     O_3   0.779330 0.573330 0.760910 -0.373941
O19   O     O_3   0.279330 0.926670 0.260910 -0.373940
O20   O     O_3   0.720670 0.073330 0.739090 -0.373940
V1    V     V_3+5 0.255440 0.152290 0.252020 1.408681
V2    V     V_3+5 0.744560 0.847710 0.747980 1.408681
V3    V     V_3+5 0.244560 0.652290 0.247980 1.408681
V4    V     V_3+5 0.755440 0.347710 0.752020 1.408681
C9    C     C_R   0.850024 0.073817 0.900161 -0.045711
C10   C     C_R   0.149976 0.926183 0.099839 -0.045711
C11   C     C_R   0.649976 0.573817 0.599839 -0.045711
C12   C     C_R   0.350024 0.426183 0.400161 -0.045711
C13   C     C_R   0.880465 0.242741 0.986746 -0.146045
C14   C     C_R   0.119535 0.757259 0.013254 -0.146044
C15   C     C_R   0.619535 0.742744 0.513254 -0.146044
C16   C     C_R   0.380465 0.257256 0.486746 -0.146044
C17   C     C_R   0.842980 0.192273 0.938746 -0.173729
C18   C     C_R   0.157020 0.807727 0.061254 -0.173729
C19   C     C_R   0.657020 0.692275 0.561254 -0.173728
C20   C     C_R   0.342980 0.307725 0.438746 -0.173729
C21   C     C_R   0.895015 0.995345 0.912289 -0.205834
C22   C     C_R   0.104985 0.004654 0.087711 -0.205834
C23   C     C_R   0.604985 0.495345 0.587711 -0.205835
C24   C     C_R   0.395015 0.504655 0.412289 -0.205834
C25   C     C_R   0.934090 0.042104 0.961995 0.044399
C26   C     C_R   0.065910 0.957896 0.038005 0.044399
C27   C     C_R   0.565910 0.542104 0.538005 0.044399
C28   C     C_R   0.434090 0.457896 0.461995 0.044399
C29   C     C_R   0.926419 0.175889 0.997773 0.095149
C30   C     C_R   0.073581 0.824111 0.002227 0.095150
C31   C     C_R   0.573581 0.675891 0.502227 0.095149
C32   C     C_R   0.426419 0.324109 0.497773 0.095149
C33   C     C_R   0.980772 0.967235 0.976042 0.006507
C34   C     C_R   0.019228 0.032764 0.023958 0.006507
C35   C     C_R   0.519228 0.467235 0.523958 0.006507
C36   C     C_R   0.480772 0.532765 0.476042 0.006507
C37   C     C_R   0.010138 0.174369 0.055682 -0.255004
C38   C     C_R   0.989862 0.825631 0.944318 -0.255004
C39   C     C_R   0.489862 0.674371 0.444318 -0.255005
C40   C     C_R   0.510138 0.325629 0.555682 -0.255005
C41   C     C_R   0.964797 0.245361 0.043239 0.259568
C42   C     C_R   0.035203 0.754639 0.956761 0.259568
C43   C     C_R   0.535203 0.745364 0.456762 0.259568
C44   C     C_R   0.464797 0.254636 0.543238 0.259568
H1    H     H_    0.100864 0.089435 0.119642 0.106788
H2    H     H_    0.899136 0.910564 0.880358 0.106789
H3    H     H_    0.399136 0.589437 0.380358 0.106789
H4    H     H_    0.600864 0.410563 0.619642 0.106789
H5    H     H_    0.191366 0.745089 0.069953 0.116827
H6    H     H_    0.808634 0.254911 0.930047 0.116826
H7    H     H_    0.308634 0.245086 0.430047 0.116828
H8    H     H_    0.691366 0.754913 0.569953 0.116828
H9    H     H_    0.873435 0.340135 0.014299 0.163972
H10   H     H_    0.126565 0.659865 0.985701 0.163972
H11   H     H_    0.626565 0.840139 0.485702 0.163972
H12   H     H_    0.373435 0.159861 0.514298 0.163972
H13   H     H_    0.038074 0.238434 0.089787 0.131787
H14   H     H_    0.961925 0.761566 0.910214 0.131787
H15   H     H_    0.461925 0.738437 0.410214 0.131787
H16   H     H_    0.538075 0.261563 0.589786 0.131787
C45   C     C_R   0.073001 0.830261 0.458744 0.575704
C46   C     C_R   0.926999 0.169740 0.541256 0.575704
C47   C     C_R   0.426998 0.330263 0.041255 0.575705
C48   C     C_R   0.573002 0.669737 0.958745 0.575705
N1    N     N_R   0.072925 0.971212 0.423280 -0.556100
N2    N     N_R   0.927075 0.028788 0.576720 -0.556101
N3    N     N_R   0.427075 0.471211 0.076720 -0.556101
N4    N     N_R   0.572925 0.528788 0.923280 -0.556102
C49   C     C_R   0.044307 0.122933 0.417471 0.579494
C50   C     C_R   0.955692 0.877065 0.582529 0.579494
C51   C     C_R   0.455694 0.622930 0.082531 0.579493
C52   C     C_R   0.544306 0.377068 0.917469 0.579494
C53   C     C_R   0.015109 0.138222 0.448329 -0.025223
C54   C     C_R   0.984891 0.861778 0.551671 -0.025223
C55   C     C_R   0.484892 0.638219 0.051672 -0.025224
C56   C     C_R   0.515108 0.361780 0.948328 -0.025224
C57   C     C_R   0.014694 0.994066 0.484441 -0.019030
C58   C     C_R   0.985306 0.005934 0.515559 -0.019030
C59   C     C_R   0.485306 0.494066 0.015559 -0.019030
C60   C     C_R   0.514694 0.505933 0.984441 -0.019030
C61   C     C_R   0.043606 0.838106 0.489526 -0.029953
C62   C     C_R   0.956394 0.161895 0.510474 -0.029953
C63   C     C_R   0.456393 0.338108 0.010473 -0.029953
C64   C     C_R   0.543607 0.661892 0.989527 -0.029954
C65   C     C_R   0.986269 0.293828 0.443800 -0.146623
C66   C     C_R   0.013731 0.706171 0.556200 -0.146622
C67   C     C_R   0.513734 0.793824 0.056202 -0.146621
C68   C     C_R   0.486266 0.206176 0.943798 -0.146621
C69   C     C_R   0.957280 0.305495 0.474470 -0.153684
C70   C     C_R   0.042720 0.694506 0.525530 -0.153684
C71   C     C_R   0.542722 0.805490 0.025532 -0.153680
C72   C     C_R   0.457278 0.194510 0.974468 -0.153681
O21   O     O_2   0.101926 0.683857 0.464960 -0.523796
O22   O     O_2   0.898075 0.316146 0.535041 -0.523795
O23   O     O_2   0.398072 0.183863 0.035037 -0.523796
O24   O     O_2   0.601927 0.816139 0.964961 -0.523793
O25   O     O_2   0.043606 0.258111 0.381472 -0.526651
O26   O     O_2   0.956394 0.741887 0.618528 -0.526650
O27   O     O_2   0.456397 0.758104 0.118531 -0.526651
O28   O     O_2   0.543604 0.241893 0.881470 -0.526648
H17   H     H_    0.986051 0.407459 0.416628 0.170916
H18   H     H_    0.013949 0.592540 0.583372 0.170916
H19   H     H_    0.513952 0.907453 0.083376 0.170914
H20   H     H_    0.486049 0.092546 0.916624 0.170914
H21   H     H_    0.935628 0.427648 0.469899 0.172289
H22   H     H_    0.064372 0.572353 0.530101 0.172289
H23   H     H_    0.564375 0.927642 0.030104 0.172287
H24   H     H_    0.435625 0.072358 0.969896 0.172287
C73   C     C_R   0.863875 0.896732 0.603909 -0.087901
C74   C     C_R   0.136125 0.103268 0.396092 -0.087901
C75   C     C_R   0.636126 0.396737 0.896094 -0.087900
C76   C     C_R   0.363875 0.603267 0.103908 -0.087901
H25   H     H_    0.861286 0.779080 0.577228 0.153194
H26   H     H_    0.138715 0.220918 0.422772 0.153193
H27   H     H_    0.638717 0.279091 0.922776 0.153188
H28   H     H_    0.361286 0.720917 0.077228 0.153190
C77   C     C_R   0.834427 0.905296 0.634136 -0.204074
C78   C     C_R   0.165573 0.094704 0.365864 -0.204073
C79   C     C_R   0.665575 0.405302 0.865867 -0.204070
C80   C     C_R   0.334427 0.594702 0.134136 -0.204072
H29   H     H_    0.809818 0.793257 0.630141 0.132618
H30   H     H_    0.190183 0.206741 0.369860 0.132617
H31   H     H_    0.690186 0.293269 0.869865 0.132615
H32   H     H_    0.309817 0.706739 0.130139 0.132617
C81   C     C_R   0.836025 0.058268 0.668155 -0.053851
C82   C     C_R   0.163974 0.941732 0.331845 -0.053852
C83   C     C_R   0.663974 0.558268 0.831844 -0.053852
C84   C     C_R   0.336026 0.441732 0.168155 -0.053853
C85   C     C_R   0.868123 0.201745 0.671555 -0.206534
C86   C     C_R   0.131876 0.798255 0.328445 -0.206534
C87   C     C_R   0.631874 0.701739 0.828442 -0.206531
C88   C     C_R   0.368124 0.298257 0.171556 -0.206532
H33   H     H_    0.870422 0.320955 0.697583 0.138153
H34   H     H_    0.129577 0.679046 0.302416 0.138152
H35   H     H_    0.629574 0.820944 0.802411 0.138151
H36   H     H_    0.370423 0.179048 0.197585 0.138152
C89   C     C_R   0.898261 0.191307 0.642130 -0.085298
C90   C     C_R   0.101739 0.808693 0.357869 -0.085298
C91   C     C_R   0.601737 0.691301 0.857867 -0.085296
C92   C     C_R   0.398261 0.308694 0.142131 -0.085298
H37   H     H_    0.923254 0.301919 0.646214 0.157853
H38   H     H_    0.076746 0.698082 0.353785 0.157851
H39   H     H_    0.576742 0.801909 0.853781 0.157844
H40   H     H_    0.423255 0.198083 0.146215 0.157847
C93   C     C_R   0.896327 0.039030 0.607763 0.354441
C94   C     C_R   0.103673 0.960970 0.392237 0.354444
C95   C     C_R   0.603672 0.539030 0.892236 0.354448
C96   C     C_R   0.396328 0.460969 0.107763 0.354446
N5    N     N_2   0.958536 0.394560 0.075544 -0.528796
H41   H     H_    0.979681 0.385599 0.117098 0.263991
C97   C     C_3   0.961389 0.574919 0.052968 -0.536774
H42   H     H_    0.997495 0.598371 0.053150 0.200074
H43   H     H_    0.953735 0.683306 0.078616 0.207210
H44   H     H_    0.935050 0.587539 0.009841 0.209429
N6    N     N_2   0.041464 0.605440 0.924456 -0.528796
H45   H     H_    0.020319 0.614400 0.882902 0.263992
C98   C     C_3   0.038611 0.425081 0.947032 -0.536774
H46   H     H_    0.002505 0.401629 0.946851 0.200074
H47   H     H_    0.064950 0.412461 0.990159 0.209429
H48   H     H_    0.046265 0.316694 0.921384 0.207210
N7    N     N_2   0.541463 0.894564 0.424457 -0.528796
H49   H     H_    0.520318 0.885605 0.382903 0.263992
C99   C     C_3   0.538610 0.074922 0.447034 -0.536773
H50   H     H_    0.502504 0.098373 0.446852 0.200074
H51   H     H_    0.546264 0.183311 0.421386 0.207211
H52   H     H_    0.564949 0.087541 0.490160 0.209429
N8    N     N_2   0.458536 0.105436 0.575543 -0.528796
H53   H     H_    0.479682 0.114395 0.617097 0.263992
C100  C     C_3   0.461390 0.925078 0.552966 -0.536774
H54   H     H_    0.497496 0.901627 0.553148 0.200074
H55   H     H_    0.435051 0.912459 0.509840 0.209429
H56   H     H_    0.453736 0.816689 0.578614 0.207211

loop_
_geom_bond_atom_site_label_1
_geom_bond_atom_site_label_2
_ccdc_geom_bond_type
O17   V3    S    
C55   C59   A    
C25   C29   A    
C1    C84   S    
C73   H25   S    
C57   C58   A    
C54   C66   A    
C47   N3    A    
O19   V1    S    
O13   V1    S    
C78   H30   S    
O3    C7    A    
C72   H24   S    
C10   C18   A    
C56   C60   A    
C80   H32   S    
O15   V3    S    
N7    H49   S    
C77   C81   A    
C33   C38   A    
C97   H43   S    
C5    C12   S    
C71   H23   S    
C98   H46   S    
O1    C5    A    
C6    C11   S    
C35   C40   A    
C26   C30   A    
C69   H21   S    
N3    C96   S    
C36   C39   A    
C40   C44   A    
C64   C71   A    
O9    V1    S    
C49   O25   S    
N1    C94   S    
C14   C18   A    
C48   C64   A    
C51   C55   A    
N7    C99   S    
C50   C54   A    
N4    C95   S    
C60   C64   A    
O1    V3    S    
C9    C21   A    
O2    V4    S    
O3    V1    S    
C73   C93   A    
C40   H16   S    
C22   H1    S    
C81   C85   A    
C28   C36   A    
C17   H6    S    
C90   H38   S    
C76   H28   S    
C1    O15   A    
C15   C31   A    
C76   C96   A    
C68   H20   S    
C2    O16   A    
C99   H52   S    
C90   C94   A    
O2    C6    A    
C82   C86   A    
C16   H12   S    
C58   C62   A    
C10   C22   A    
C83   C87   A    
C48   O24   S    
C11   C19   A    
C66   C70   A    
C16   C20   A    
C77   H29   S    
C13   C29   A    
C7    C10   S    
C34   C37   A    
O11   C7    A    
C38   H14   S    
C11   C23   A    
C35   C36   A    
O12   C8    A    
N5    H41   S    
C13   C17   A    
C70   H22   S    
C46   C62   A    
O10   V2    S    
C45   C61   A    
N2    C50   A    
C97   H44   S    
O5    V1    S    
C89   C93   A    
C98   H47   S    
N4    C52   A    
C57   C61   A    
C23   H4    S    
C39   C43   A    
O7    V3    S    
C38   C42   A    
C62   C69   A    
C87   H35   S    
N8    H53   S    
C26   C34   A    
C48   N4    A    
C61   C70   A    
C88   H36   S    
C84   C88   A    
C46   N2    A    
C45   N1    A    
O18   V4    S    
C15   C19   A    
C91   C95   A    
C14   H10   S    
C44   N8    S    
C16   C32   A    
C32   C44   A    
C13   H9    S    
O11   V3    S    
N1    C49   A    
O4    V2    S    
C39   H15   S    
O8    V4    S    
C20   H7    S    
O7    C3    A    
N8    C100  S    
C47   O23   S    
C2    C83   S    
C74   C78   A    
C53   C65   A    
C3    C82   S    
C31   C43   A    
C97   H42   S    
C14   C30   A    
C21   C25   A    
C91   H39   S    
O8    C4    A    
C100  H56   S    
C55   C67   A    
C100  H55   S    
O9    C5    A    
C46   O22   S    
C45   O21   S    
N5    C97   S    
C66   H18   S    
O14   V2    S    
C50   O26   S    
C92   H40   S    
C65   H17   S    
O6    V2    S    
C43   N7    S    
C79   H31   S    
C75   C95   A    
C67   H19   S    
C12   C20   A    
C27   C35   A    
C24   H3    S    
C49   C53   A    
C68   C72   A    
C29   C41   A    
C59   C63   A    
O16   V4    S    
C98   H48   S    
C51   O27   S    
C19   H8    S    
C3    O13   A    
C18   H5    S    
C41   N5    S    
C21   H2    S    
C4    C81   S    
C86   C90   A    
C52   O28   S    
O5    C1    A    
C74   H26   S    
C25   C33   A    
C23   C27   A    
C56   C68   A    
C30   C42   A    
C65   C69   A    
O12   V4    S    
C42   N6    S    
C22   C26   A    
C73   C77   A    
C8    C9    S    
C75   H27   S    
C87   C91   A    
O10   C6    A    
O20   V2    S    
C9    C17   A    
C99   H50   S    
C80   C84   A    
C54   C58   A    
C67   C71   A    
C78   C82   A    
C33   C34   A    
O4    C8    A    
C52   C56   A    
N2    C93   S    
C79   C83   A    
C75   C79   A    
C12   C24   A    
C27   C31   A    
C85   H33   S    
C89   H37   S    
C63   C72   A    
C99   H51   S    
C92   C96   A    
O6    C2    A    
N3    C51   A    
N6    H45   S    
C37   C41   A    
C24   C28   A    
C47   C63   A    
C88   C92   A    
C76   C80   A    
C100  H54   S    
C74   C94   A    
C4    O14   A    
C59   C60   A    
C86   H34   S    
C37   H13   S    
C85   C89   A    
C53   C57   A    
C28   C32   A    
C15   H11   S    
N6    C98   S    
