data_mof_unit_59716.cif
_audit_creation_date              2013-03-05T15:56:35-0500
_audit_creation_method            fapswitch 2.2
_symmetry_space_group_name_H-M    P1
_symmetry_Int_Tables_number       1
_space_group_crystal_system       triclinic
_cell_length_a                    6.926691
_cell_length_b                    14.533727
_cell_length_c                    15.979192
_cell_angle_alpha                 90.504907
_cell_angle_beta                  90.070363
_cell_angle_gamma                 90.015765
_cell_volume                      1608.57168271

loop_
_atom_site_label
_atom_site_type_symbol
_atom_site_description
_atom_site_fract_x
_atom_site_fract_y
_atom_site_fract_z
_atom_type_partial_charge
O1    O     O_R   0.361600 0.167310 0.164620 -0.606854
O2    O     O_R   0.638400 0.832690 0.835380 -0.606855
O3    O     O_R   0.691080 0.157570 0.338750 -0.563590
O4    O     O_R   0.308920 0.842430 0.661250 -0.563590
O5    O     O_R   0.861410 0.336420 0.339360 -0.579620
O6    O     O_R   0.138590 0.663580 0.660640 -0.579620
C1    C     C_R   0.522589 0.133734 0.366199 1.025285
C2    C     C_R   0.477411 0.866266 0.633801 1.025285
O7    O     O_R   0.691320 0.156280 0.165240 -0.605377
O8    O     O_R   0.308680 0.843720 0.834760 -0.605377
O9    O     O_R   0.861640 0.335130 0.164600 -0.581023
O10   O     O_R   0.138360 0.664870 0.835400 -0.581023
C3    C     C_R   0.522214 0.133790 0.136076 0.932160
C4    C     C_R   0.477786 0.866210 0.863924 0.932161
O11   O     O_R   0.361370 0.168600 0.339370 -0.600073
O12   O     O_R   0.638630 0.831400 0.660630 -0.600073
O13   O     O_3   0.527990 0.310540 0.251980 -0.233379
O14   O     O_3   0.472010 0.689460 0.748020 -0.233379
V1    V     V_3+5 0.802830 0.240980 0.251990 1.260486
V2    V     V_3+5 0.197170 0.759020 0.748010 1.260486
O15   O     O_R   0.191360 0.346160 0.165220 -0.569005
O16   O     O_R   0.808640 0.653840 0.834780 -0.569006
C5    C     C_R   0.022872 0.369007 0.136743 0.995374
C6    C     C_R   0.977128 0.630993 0.863257 0.995375
O17   O     O_R   0.191130 0.347440 0.338740 -0.593421
O18   O     O_R   0.808870 0.652560 0.661260 -0.593420
C7    C     C_R   0.022377 0.369607 0.367481 1.079127
C8    C     C_R   0.977623 0.630393 0.632519 1.079127
V3    V     V_3+5 0.302840 0.262750 0.251990 1.267301
V4    V     V_3+5 0.697160 0.737250 0.748010 1.267301
O19   O     O_3   0.027820 0.193180 0.251990 -0.273777
O20   O     O_3   0.972180 0.806820 0.748010 -0.273777
C9    C     C_3   0.924157 0.420170 0.524196 0.336109
C10   C     C_3   0.075843 0.579830 0.475804 0.336108
C11   C     C_3   0.097532 0.468885 0.566046 0.326620
C12   C     C_3   0.902468 0.531115 0.433954 0.326620
C13   C     C_3   0.988082 0.560958 0.562486 -0.394385
C14   C     C_3   0.011918 0.439042 0.437514 -0.394385
C15   C     C_3   0.812854 0.512550 0.520998 -0.281292
C16   C     C_3   0.187146 0.487450 0.479002 -0.281293
H1    H     H_    0.659064 0.522700 0.538252 0.202553
H2    H     H_    0.340936 0.477300 0.461747 0.202553
C17   C     C_R   0.846817 0.492693 0.942398 0.392511
C18   C     C_R   0.153183 0.507307 0.057602 0.392510
C19   C     C_R   0.862853 0.430497 0.008789 -0.162353
C20   C     C_R   0.137147 0.569503 0.991211 -0.162351
H3    H     H_    0.756127 0.376335 0.014250 0.175778
H4    H     H_    0.243872 0.623665 0.985750 0.175779
C21   C     C_R   0.014221 0.436634 0.067173 -0.336862
C22   C     C_R   0.985779 0.563366 0.932827 -0.336862
C23   C     C_R   0.659613 0.997277 0.445771 0.383069
C24   C     C_R   0.340387 0.002723 0.554229 0.383069
C25   C     C_R   0.644747 0.934681 0.511461 -0.132470
C26   C     C_R   0.355253 0.065319 0.488538 -0.132470
H5    H     H_    0.757055 0.883457 0.518697 0.187434
H6    H     H_    0.242945 0.116543 0.481303 0.187434
C27   C     C_R   0.486318 0.935812 0.566230 -0.290489
C28   C     C_R   0.513682 0.064188 0.433770 -0.290488
C29   C     C_R   0.679533 0.025453 0.032963 -0.102319
C30   C     C_R   0.320467 0.974547 0.967036 -0.102319
H7    H     H_    0.820348 0.044021 0.057284 0.124087
H8    H     H_    0.179652 0.955979 0.942716 0.124087
C31   C     C_R   0.668586 0.961393 0.967183 -0.098679
C32   C     C_R   0.331414 0.038607 0.032816 -0.098679
H9    H     H_    0.801481 0.932407 0.943003 0.124242
H10   H     H_    0.198519 0.067593 0.056997 0.124242
C33   C     C_R   0.488903 0.935066 0.933289 -0.125297
C34   C     C_R   0.511097 0.064934 0.066710 -0.125297
Br1   Br    Br    0.241086 0.424000 0.661522 -0.362151
Br2   Br    Br    0.758914 0.576000 0.338478 -0.362152
Br3   Br    Br    0.812073 0.304452 0.559044 -0.408861
Br4   Br    Br    0.187927 0.695548 0.440956 -0.408862
N1    N     N_R   0.691950 0.480689 0.883956 0.238438
O21   O     O_R   0.681880 0.405123 0.839867 -0.328318
O22   O     O_R   0.540045 0.532931 0.889803 -0.367178
N2    N     N_R   0.308050 0.519311 0.116044 0.238438
O23   O     O_R   0.318127 0.594879 0.160130 -0.328319
O24   O     O_R   0.459953 0.467067 0.110198 -0.367177
Br5   Br    Br    0.878476 0.982540 0.372911 -0.453802
Br6   Br    Br    0.121524 0.017460 0.627089 -0.453802

loop_
_geom_bond_atom_site_label_1
_geom_bond_atom_site_label_2
_geom_bond_distance
_ccdc_geom_bond_type
C18   C21   1.416861 A    
C17   N1    1.431012 S    
C14   C16   1.548215 S    
C31   H9    1.082749 S    
C10   C13   1.540116 S    
O13   V3    1.707046 S    
N1    O21   1.301371 A    
O4    C2    1.295451 A    
V1    O19   1.706442 S    
C15   H1    1.110247 S    
O9    V1    2.005761 S    
C9    C15   1.549623 S    
C10   C16   1.549623 S    
C32   C34   1.408269 A    
C11   C13   1.539636 S    
N2    O24   1.300686 A    
O3    C1    1.295451 A    
C26   C28   1.404472 A    
C29   C34   1.406303 A    
C5    C21   1.491502 S    
C7    C14   1.502098 S    
O12   V4    2.004714 S    
C30   H8    1.082729 S    
C19   H3    1.083883 S    
O9    C5    1.300997 A    
C18   N2    1.431013 S    
O7    C3    1.300701 A    
C9    C11   1.542687 S    
O5    C7    1.293198 A    
O7    V1    2.000070 S    
O6    C8    1.293198 A    
C30   C33   1.406303 A    
O8    V2    2.000070 S    
C4    C33   1.488685 S    
O3    V1    2.005607 S    
O14   V4    1.707047 S    
C1    C28   1.486824 S    
C10   C12   1.542686 S    
C16   H2    1.110246 S    
C2    O12   1.300224 A    
O17   V3    2.002094 S    
N1    O22   1.300684 A    
C24   C26   1.398973 A    
O11   V3    2.004716 S    
C20   H4    1.083884 S    
C25   H5    1.083685 S    
C6    C22   1.491502 S    
C31   C33   1.408269 A    
C29   H7    1.082729 S    
N2    O23   1.301374 A    
O8    C4    1.300701 A    
C25   C27   1.404472 A    
C18   C20   1.404120 A    
O15   V3    2.003938 S    
C23   C25   1.398973 A    
C32   H10   1.082749 S    
C2    C27   1.486824 S    
C19   C21   1.404887 A    
O10   V2    2.005764 S    
O1    V3    2.001593 S    
C23   C28   1.416880 A    
C17   C19   1.404122 A    
C12   Br2   1.938042 S    
O18   V4    2.002093 S    
O15   C5    1.296506 A    
O16   C6    1.296506 A    
O1    C3    1.296420 A    
C10   Br4   1.938603 S    
V2    O20   1.706442 S    
O10   C6    1.300996 A    
O16   V4    2.003941 S    
C29   C31   1.399964 A    
C12   C15   1.549622 S    
C26   H6    1.083685 S    
C17   C22   1.416860 A    
O5    V1    2.000490 S    
O17   C7    1.296133 A    
O6    V2    2.000489 S    
C20   C22   1.404887 A    
O18   C8    1.296134 A    
C9    C14   1.540116 S    
C30   C32   1.399964 A    
O2    V4    2.001595 S    
C12   C14   1.539637 S    
C11   C16   1.549622 S    
V3    O19   2.156440 S    
V4    O20   2.156438 S    
C8    C13   1.502099 S    
C1    O11   1.300224 A    
O13   V1    2.155761 S    
O14   V2    2.155762 S    
O2    C4    1.296418 A    
C23   Br5   1.923466 S    
C24   C27   1.416880 A    
C9    Br3   1.938602 S    
O4    V2    2.005604 S    
C11   Br1   1.938042 S    
C13   C15   1.548215 S    
C24   Br6   1.923466 S    
C3    C34   1.488685 S    
