data_mof_unit_34308.cif
_audit_creation_date              2012-12-10T17:14:08-0500
_audit_creation_method            fapswitch 2.2
_symmetry_space_group_name_H-M    P1
_symmetry_Int_Tables_number       1
_space_group_crystal_system       triclinic
_cell_length_a                    15.884334
_cell_length_b                    12.970608
_cell_length_c                    11.682508
_cell_angle_alpha                 100.062671
_cell_angle_beta                  93.869604
_cell_angle_gamma                 90.659783
_cell_volume                      2363.84706498

loop_
_atom_site_label
_atom_site_type_symbol
_atom_type_description
_atom_site_fract_x
_atom_site_fract_y
_atom_site_fract_z
_atom_type_partial_charge
C1    C     C_R   0.501043 0.299147 0.478338 0.808737
C2    C     C_3   0.955158 0.450043 0.605544 -0.396458
C3    C     C_3   0.917078 0.495474 0.499457 0.268188
C4    C     C_3   0.952442 0.608915 0.511302 -0.421775
C5    C     C_3   0.049763 0.609459 0.512433 -0.386049
C6    C     C_1   0.824901 0.498242 0.500047 -0.116124
C7    C     C_1   0.175192 0.497514 0.500194 -0.107657
C8    C     C_1   0.250662 0.498747 0.500302 -0.192322
C9    C     C_R   0.490007 0.814406 0.535041 -0.089858
C10   C     C_R   0.505616 0.185718 0.465795 -0.061493
C11   C     C_R   0.549852 0.017047 0.367048 -0.242397
C12   C     C_R   0.340178 0.499819 0.500198 0.817762
C13   C     C_R   0.544890 0.125415 0.372366 0.155862
C14   C     C_R   0.472366 0.137822 0.551685 -0.307234
C15   C     C_R   0.477535 0.030252 0.546168 0.134675
C16   C     C_R   0.516845 0.969700 0.453659 0.139361
C17   C     C_R   0.523159 0.862607 0.449211 -0.273975
C18   C     C_R   0.447936 0.874119 0.627455 0.068353
C19   C     C_R   0.443635 0.982902 0.632029 -0.198631
C20   C     C_R   0.419117 0.400118 0.021436 0.043264
C21   C     C_R   0.428226 0.410358 0.144411 0.059044
C22   C     C_R   0.533705 0.542892 0.156975 0.026183
C23   C     C_R   0.497419 0.700847 0.521852 0.795814
C24   C     C_R   0.527578 0.535606 0.034329 0.000593
C25   C     C_R   0.469943 0.463439 0.965246 0.045094
C26   C     C_R   0.465319 0.456883 0.842000 -0.007321
C27   C     C_R   0.571170 0.590005 0.857279 0.384937
C28   C     C_R   0.577947 0.598952 0.979575 -0.376124
C29   C     C_R   0.659852 0.500266 0.499854 0.834319
C30   C     C_3   0.052014 0.438217 0.598194 -0.030294
C31   C     C_3   0.043857 0.435212 0.382464 -0.444545
C32   C     C_3   0.945337 0.430401 0.382532 -0.042022
C33   C     C_1   0.749412 0.499568 0.499790 -0.190044
C34   C     C_3   0.083100 0.496121 0.500757 0.297592
Cu1   Cu    Cu3+1 0.506190 0.507730 0.615930 0.947791
Cu2   Cu    Cu3+1 0.493810 0.492270 0.384070 0.946067
H1    H     H_    0.925241 0.372538 0.608016 0.139806
H2    H     H_    0.940692 0.502252 0.687594 0.172846
H3    H     H_    0.926065 0.645382 0.437559 0.162350
H4    H     H_    0.554509 0.816325 0.378592 0.146831
H5    H     H_    0.580371 0.969925 0.296318 0.127230
H6    H     H_    0.413639 0.031933 0.701495 0.134697
H7    H     H_    0.442008 0.184610 0.622941 0.157652
H8    H     H_    0.421759 0.401823 0.786983 0.151915
H9    H     H_    0.061404 0.353115 0.567027 0.116666
H10   H     H_    0.622562 0.655242 0.031136 0.135244
H11   H     H_    0.389765 0.362135 0.188152 0.126979
H12   H     H_    0.577926 0.598349 0.210377 0.123456
H13   H     H_    0.062119 0.474282 0.309881 0.156928
H14   H     H_    0.070502 0.355422 0.365875 0.162598
H15   H     H_    0.918872 0.469012 0.310374 0.143500
H16   H     H_    0.077025 0.661192 0.591901 0.158497
H17   H     H_    0.069441 0.645447 0.438316 0.163382
H18   H     H_    0.933105 0.657673 0.593085 0.169992
N1    N     N_R   0.515490 0.519350 0.790130 -0.179092
N2    N     N_R   0.484510 0.480650 0.209890 -0.191328
O1    O     O_R   0.504390 0.354460 0.582000 -0.594020
O2    O     O_R   0.493940 0.341410 0.386200 -0.557536
O3    O     O_R   0.384660 0.506540 0.597940 -0.590533
O4    O     O_R   0.374210 0.493480 0.402140 -0.580928
O5    O     O_R   0.506060 0.658590 0.613800 -0.570976
O6    O     O_R   0.495610 0.645540 0.418000 -0.586035
O7    O     O_R   0.625790 0.506520 0.597860 -0.547970
O8    O     O_R   0.615340 0.493460 0.402060 -0.582943
C35   C     C_3   0.102009 0.458684 0.719427 -0.404023
C36   C     C_3   0.113017 0.573703 0.778996 -0.319877
C37   C     C_3   0.148081 0.582479 0.905347 -0.878489
H19   H     H_    0.103616 0.545090 0.956047 0.250001
H20   H     H_    0.210173 0.544158 0.909269 0.255910
H21   H     H_    0.156815 0.666339 0.945677 0.244996
H22   H     H_    0.158920 0.613755 0.733092 0.215729
H23   H     H_    0.051784 0.614033 0.777796 0.214974
H24   H     H_    0.069410 0.414262 0.777536 0.195196
H25   H     H_    0.165729 0.424752 0.710316 0.192897
C38   C     C_3   0.406740 0.820644 0.716886 -0.364075
C39   C     C_3   0.348719 0.888437 0.797886 -0.390181
C40   C     C_3   0.305556 0.823240 0.874979 -0.843247
H26   H     H_    0.265674 0.759839 0.820535 0.253397
H27   H     H_    0.353378 0.788005 0.929407 0.258822
H28   H     H_    0.264689 0.874011 0.933353 0.240776
H29   H     H_    0.386320 0.952363 0.855405 0.224188
H30   H     H_    0.299261 0.922999 0.745204 0.221793
H31   H     H_    0.368077 0.752702 0.668764 0.202277
H32   H     H_    0.457315 0.791172 0.772332 0.217610
N3    N     N_3   0.581836 0.174599 0.285905 -0.562222
H33   H     H_    0.603544 0.118302 0.219781 0.206630
H34   H     H_    0.634919 0.217953 0.326409 0.205507
N4    N     N_3   0.623115 0.655388 0.803136 -0.529300
H35   H     H_    0.686197 0.641891 0.826591 0.190345
H36   H     H_    0.610929 0.733440 0.836948 0.182550
N5    N     N_3   0.359012 0.325966 0.954359 -0.620558
H37   H     H_    0.331140 0.280853 0.008164 0.210916
H38   H     H_    0.310631 0.368618 0.920996 0.206089
C41   C     C_3   0.910802 0.315509 0.358546 -0.401074
C42   C     C_3   0.916921 0.263404 0.230846 -0.359731
C43   C     C_3   0.881163 0.151416 0.208709 -0.855217
H39   H     H_    0.917034 0.103498 0.264418 0.249987
H40   H     H_    0.813559 0.150904 0.227656 0.250421
H41   H     H_    0.886343 0.115760 0.115940 0.240293
H42   H     H_    0.880764 0.308938 0.172670 0.215962
H43   H     H_    0.983736 0.261620 0.208175 0.217316
H44   H     H_    0.945866 0.268912 0.416619 0.198691
H45   H     H_    0.843314 0.313407 0.377640 0.206195

loop_
_geom_bond_atom_site_label_1
_geom_bond_atom_site_label_2
_ccdc_geom_bond_type
C32   C41   S    
C29   O7    A    
C18   C38   S    
C30   H9    S    
C22   H12   S    
C42   C43   S    
C3    C6    S    
C26   N1    A    
C26   H8    S    
C7    C8    T    
N3    H33   S    
C15   C19   A    
C28   H10   S    
C5    H17   S    
Cu2   O2    S    
C27   N1    A    
C38   H32   S    
C20   C25   A    
C15   C16   A    
C43   H41   S    
C29   C33   S    
C35   H24   S    
Cu1   O3    S    
C18   C19   A    
C12   O3    A    
C23   O6    A    
C36   H23   S    
C36   H22   S    
C16   C17   A    
C43   H40   S    
C5    H16   S    
C19   H6    S    
N3    H34   S    
C36   C37   S    
C29   O8    A    
C43   H39   S    
C27   N4    S    
C31   H13   S    
Cu2   O6    S    
C40   H27   S    
C20   N5    S    
C30   C34   S    
Cu1   N1    S    
C37   H19   S    
C39   C40   S    
C10   C14   A    
C39   H30   S    
N5    H37   S    
C42   H42   S    
C9    C23   S    
C22   N2    A    
C25   C26   A    
C40   H26   S    
C35   H25   S    
C37   H20   S    
C17   H4    S    
C38   C39   S    
C32   H15   S    
Cu2   N2    S    
C1    O1    A    
N5    H38   S    
C11   C16   A    
C2    H2    S    
C31   C32   S    
C4    H3    S    
C8    C12   S    
C5    C34   S    
C20   C21   A    
C31   C34   S    
C41   C42   S    
Cu1   O5    S    
C24   C25   A    
C9    C17   A    
N4    H36   S    
C41   H45   S    
C7    C34   S    
C22   C24   A    
C31   H14   S    
C3    C4    S    
C40   H28   S    
C4    H18   S    
C1    C10   S    
C24   C28   A    
C4    C5    S    
Cu2   O4    S    
C10   C13   A    
C39   H29   S    
C21   N2    A    
C6    C33   T    
Cu1   O1    S    
C2    C30   S    
C37   H21   S    
C2    C3    S    
C1    O2    A    
C11   C13   A    
C2    H1    S    
C38   H31   S    
C11   H5    S    
C3    C32   S    
C30   C35   S    
C12   O4    A    
C9    C18   A    
C23   O5    A    
N4    H35   S    
C41   H44   S    
C35   C36   S    
C13   N3    S    
C27   C28   A    
C14   C15   A    
Cu1   O7    S    
Cu1   Cu2   S    
Cu2   O8    S    
C42   H43   S    
C14   H7    S    
C21   H11   S    
