data_mof_unit_33652.cif
_audit_creation_date              2012-12-11T16:31:28-0500
_audit_creation_method            fapswitch 2.2
_symmetry_space_group_name_H-M    P1
_symmetry_Int_Tables_number       1
_space_group_crystal_system       triclinic
_cell_length_a                    6.948532
_cell_length_b                    18.407308
_cell_length_c                    20.075458
_cell_angle_alpha                 68.310653
_cell_angle_beta                  90.343359
_cell_angle_gamma                 90.608246
_cell_volume                      2385.79466716

loop_
_atom_site_label
_atom_site_type_symbol
_atom_type_description
_atom_site_fract_x
_atom_site_fract_y
_atom_site_fract_z
_atom_type_partial_charge
O1    O     O_R   0.488990 0.443920 0.942160 -0.535076
O2    O     O_R   0.823840 0.406530 0.087600 -0.535284
O3    O     O_R   0.999650 0.556080 0.057840 -0.538127
C1    C     C_R   0.654402 0.383404 0.115102 0.694345
O4    O     O_R   0.818390 0.434590 0.944530 -0.538251
O5    O     O_R   0.994160 0.584350 0.913750 -0.538486
C2    C     C_R   0.649281 0.420611 0.923942 0.723427
O6    O     O_R   0.494480 0.415650 0.086250 -0.534623
O7    O     O_3   0.662600 0.549100 0.990070 -0.370244
V1    V     V_3+5 0.935320 0.490890 0.001840 1.450256
O8    O     O_R   0.324240 0.593470 0.912400 -0.541354
C3    C     C_R   0.155403 0.616529 0.884978 0.686128
O9    O     O_R   0.329690 0.565410 0.055470 -0.533973
C4    C     C_R   0.161705 0.580596 0.075100 0.720345
V2    V     V_3+5 0.435990 0.509110 0.998160 1.449796
O10   O     O_3   0.158840 0.450900 0.009930 -0.362312
C5    C     C_3   0.960920 0.696674 0.247592 -0.324314
C6    C     C_3   0.320694 0.699200 0.252385 -0.322025
C7    C     C_3   0.311679 0.746435 0.302498 -0.327920
H1    H     H_    0.940871 0.703856 0.353888 0.163262
H2    H     H_    0.960971 0.633364 0.281389 0.185678
H3    H     H_    0.455619 0.714543 0.220463 0.136818
H4    H     H_    0.323647 0.635652 0.285633 0.166516
H5    H     H_    0.310336 0.705301 0.359395 0.154404
H6    H     H_    0.443228 0.783604 0.294953 0.135944
C8    C     C_1   0.112648 0.878342 0.375443 -0.185162
C9    C     C_3   0.144997 0.716783 0.201117 0.257053
C10   C     C_3   0.950726 0.744553 0.296960 -0.328248
C11   C     C_3   0.129957 0.798356 0.286455 0.266931
C12   C     C_3   0.137114 0.853737 0.206375 -0.305473
C13   C     C_3   0.144828 0.805942 0.156390 -0.318222
C14   C     C_1   0.120648 0.842868 0.335086 -0.093962
C15   C     C_1   0.151395 0.669355 0.154651 -0.065340
C16   C     C_1   0.155488 0.629168 0.118173 -0.158301
H7    H     H_    0.018701 0.820823 0.119525 0.145773
H8    H     H_    0.276510 0.822571 0.122641 0.150911
H9    H     H_    0.008115 0.891821 0.192896 0.150320
H10   H     H_    0.831908 0.709069 0.212202 0.139745
H11   H     H_    0.817771 0.780350 0.284612 0.136118
H12   H     H_    0.265826 0.892735 0.196747 0.149976
H13   H     H_    0.417378 0.547275 0.690114 0.116568
C17   C     C_R   0.999729 0.764969 0.877431 -0.135622
C18   C     C_R   0.922694 0.835296 0.875543 -0.113959
C19   C     C_R   0.909989 0.898660 0.811006 -0.108526
C20   C     C_R   0.974145 0.892170 0.747846 -0.151444
C21   C     C_R   0.051584 0.821283 0.747880 0.066686
C22   C     C_R   0.064722 0.756314 0.814085 0.070135
C23   C     C_R   0.119237 0.815021 0.683682 -0.183532
C24   C     C_R   0.200524 0.743798 0.685796 0.069274
C25   C     C_R   0.213880 0.678861 0.752006 0.068357
C26   C     C_R   0.145631 0.685020 0.816181 -0.182017
C27   C     C_R   0.266092 0.735246 0.622471 -0.135199
C28   C     C_R   0.344357 0.665112 0.624407 -0.110150
C29   C     C_R   0.357550 0.601812 0.688959 -0.116179
C30   C     C_R   0.292457 0.608147 0.752073 -0.147211
H14   H     H_    0.009304 0.717928 0.929206 0.101853
H15   H     H_    0.873829 0.840793 0.924558 0.119329
H16   H     H_    0.851258 0.953361 0.809889 0.135986
H17   H     H_    0.963555 0.943585 0.699301 0.115478
H18   H     H_    0.256266 0.782250 0.570680 0.103435
H19   H     H_    0.393878 0.659721 0.575426 0.121325
H20   H     H_    0.303449 0.556767 0.800620 0.109460
C31   C     C_R   0.525572 0.230674 0.120471 -0.191547
C32   C     C_R   0.459687 0.158219 0.120933 0.033144
C33   C     C_R   0.459708 0.093475 0.185453 -0.164628
C34   C     C_R   0.516723 0.101409 0.249042 -0.171899
C35   C     C_R   0.574195 0.174776 0.250210 0.072334
C36   C     C_R   0.582282 0.240455 0.184450 0.051347
C37   C     C_R   0.621757 0.183453 0.315641 -0.167704
C38   C     C_R   0.671075 0.258188 0.315615 0.073873
C39   C     C_R   0.675630 0.324142 0.250097 0.046480
C40   C     C_R   0.641014 0.314752 0.183977 -0.159254
C41   C     C_R   0.708715 0.269102 0.380556 -0.150695
C42   C     C_R   0.735886 0.343531 0.381688 -0.156798
C43   C     C_R   0.725932 0.409182 0.318235 0.035429
C44   C     C_R   0.703407 0.399170 0.252698 -0.198243
H21   H     H_    0.528247 0.279725 0.069848 0.137431
H22   H     H_    0.411202 0.036679 0.187187 0.142420
H23   H     H_    0.511561 0.049564 0.297480 0.110071
H24   H     H_    0.710316 0.220622 0.431590 0.116125
H25   H     H_    0.755921 0.349813 0.432850 0.178010
H26   H     H_    0.699677 0.450753 0.204012 0.139515
O11   O     O_R   0.770890 0.084490 0.414040 -0.537372
O12   O     O_R   0.445980 0.065450 0.555510 -0.532181
O13   O     O_R   0.270670 0.915620 0.586180 -0.537507
C45   C     C_R   0.615049 0.079749 0.575892 0.718587
O14   O     O_R   0.441480 0.093500 0.412450 -0.536281
O15   O     O_R   0.266140 0.943870 0.442100 -0.542066
C46   C     C_R   0.610408 0.115334 0.384422 0.692410
O16   O     O_R   0.775410 0.056240 0.558120 -0.534394
O17   O     O_3   0.602660 0.950990 0.510100 -0.372209
V3    V     V_3+5 0.329740 0.009100 0.498130 1.449289
O18   O     O_R   0.936120 0.934420 0.444240 -0.538969
C47   C     C_R   0.104356 0.921380 0.423075 0.718145
O19   O     O_R   0.940610 0.906370 0.587310 -0.539492
C48   C     C_R   0.109393 0.883455 0.614879 0.692527
V4    V     V_3+5 0.829110 0.990690 0.501470 1.437418
O20   O     O_3   0.106080 0.049010 0.489880 -0.360833
C49   C     C_3   0.845573 0.237162 0.715550 -0.096369
C50   C     C_3   0.504596 0.285479 0.674261 -0.139263
C51   C     C_3   0.518052 0.335587 0.722306 -0.390077
H27   H     H_    0.912955 0.342193 0.739291 0.141728
H28   H     H_    0.899829 0.277347 0.662778 0.158446
H29   H     H_    0.353019 0.264330 0.677034 0.147694
H30   H     H_    0.583570 0.394063 0.692661 0.169967
H31   H     H_    0.370275 0.346267 0.737615 0.134893
C52   C     C_1   0.641034 0.375513 0.878004 -0.151719
C53   C     C_3   0.635219 0.211334 0.705242 0.112893
C54   C     C_3   0.846575 0.283504 0.767265 -0.374773
C55   C     C_3   0.638649 0.293122 0.790782 0.230942
C56   C     C_3   0.550629 0.210435 0.829517 -0.282617
C57   C     C_3   0.553375 0.161885 0.780564 -0.349120
C58   C     C_1   0.639040 0.338344 0.838969 -0.057573
C59   C     C_1   0.629295 0.164518 0.658320 -0.036022
C60   C     C_1   0.624135 0.126063 0.620541 -0.133405
H32   H     H_    0.638835 0.107998 0.806383 0.183823
H33   H     H_    0.404759 0.141814 0.775463 0.172351
H34   H     H_    0.631448 0.179011 0.879833 0.176629
H35   H     H_    0.936247 0.254257 0.815737 0.172150
H36   H     H_    0.399194 0.215971 0.844337 0.151375
C61   C     C_2   0.723563 0.488393 0.320534 0.726588
O21   O     O_2   0.774821 0.499206 0.374582 -0.553829
O22   O     O_R   0.653766 0.550543 0.261589 -0.680782
H37   H     H_    0.640569 0.599665 0.272340 0.274772
C62   C     C_2   0.383580 0.151275 0.054375 0.742478
O23   O     O_2   0.348631 0.086903 0.052200 -0.562824
O24   O     O_R   0.346396 0.218683 0.994396 -0.674362
H38   H     H_    0.281243 0.206616 0.954378 0.290912
C63   C     C_2   0.540989 0.334311 0.595948 0.767400
O25   O     O_2   0.689744 0.372368 0.577168 -0.553354
O26   O     O_R   0.400969 0.336292 0.545015 -0.651347
H39   H     H_    0.439638 0.371040 0.494564 0.306163
C64   C     C_2   0.983771 0.168937 0.739022 0.703281
O27   O     O_2   0.002945 0.127952 0.802409 -0.570880
O28   O     O_R   0.084719 0.151495 0.686812 -0.664785
H40   H     H_    0.165165 0.102606 0.707830 0.285045

loop_
_geom_bond_atom_site_label_1
_geom_bond_atom_site_label_2
_ccdc_geom_bond_type
C8    C47   S    
C49   H28   S    
C8    C14   T    
O18   C47   A    
C41   C42   A    
O19   C48   A    
C1    C40   S    
C1    O6    A    
C59   C60   T    
V3    O20   S    
O22   H37   S    
C20   C21   A    
C9    C15   S    
C49   C53   S    
C56   H34   S    
C10   C11   S    
O12   C45   A    
C11   C14   S    
O5    C3    A    
C57   H33   S    
O13   C48   A    
V2    O10   S    
C49   C54   S    
C30   H20   S    
C50   H29   S    
C49   C64   S    
C6    C7    S    
C53   C59   S    
C55   C56   S    
C52   C58   T    
C27   H18   S    
C17   H14   S    
C29   C30   A    
C28   H19   S    
O15   V3    S    
C19   H16   S    
C38   C39   A    
O1    V2    S    
O7    V1    S    
O16   V4    S    
C32   C62   S    
C5    H10   S    
C34   C35   A    
C43   C61   S    
O9    C4    A    
O8    V2    S    
C37   C46   S    
O13   V3    S    
V4    O20   S    
C21   C23   A    
C51   H30   S    
O11   C46   A    
O15   C47   A    
C50   C53   S    
C42   C43   A    
C6    C9    S    
C9    C13   S    
C35   C36   A    
C5    C9    S    
O28   H40   S    
C45   O16   A    
C44   H26   S    
O17   V3    S    
O4    C2    A    
C50   C63   S    
C22   C26   A    
H1    C10   S    
C10   H11   S    
C51   C55   S    
C28   C29   A    
C5    H2    S    
C6    H4    S    
C12   H9    S    
C45   C60   S    
C35   C37   A    
O2    C1    A    
C43   C44   A    
O5    V1    S    
C11   C12   S    
C34   H23   S    
C12   C13   S    
C36   C40   A    
C24   C27   A    
C38   C41   A    
C25   C26   A    
C12   H12   S    
O17   V4    S    
C55   C58   S    
C61   O21   D    
O3    C4    A    
C23   C24   A    
C33   C34   A    
O6    V2    S    
O9    V2    S    
C18   C19   A    
C64   O27   D    
C2    C52   S    
C17   C18   A    
C42   H25   S    
O24   H38   S    
O2    V1    S    
O18   V4    S    
C39   C44   A    
C57   H32   S    
C3    C26   S    
C27   C28   A    
C54   H35   S    
C62   O24   S    
C63   O25   D    
C31   H21   S    
C51   H31   S    
C21   C22   A    
C20   H17   S    
C33   H22   S    
C23   C48   S    
C56   C57   S    
O1    C2    A    
C5    C10   S    
C19   C20   A    
C4    C16   S    
O8    C3    A    
O19   V4    S    
C31   C36   A    
C25   C30   A    
C32   C33   A    
C6    H3    S    
C7    H5    S    
O7    V2    S    
O4    V1    S    
O3    V1    S    
V1    O10   S    
C54   C55   S    
C62   O23   D    
C50   C51   S    
C41   H24   S    
C15   C16   T    
C13   H7    S    
C17   C22   A    
C37   C38   A    
C7    H6    S    
H13   C29   S    
C61   O22   S    
C18   H15   S    
C31   C32   A    
C53   C57   S    
C39   C40   A    
C24   C25   A    
O11   V4    S    
C64   O28   S    
O14   C46   A    
C13   H8    S    
C56   H36   S    
H27   C54   S    
O12   V3    S    
O14   V3    S    
O26   H39   S    
C63   O26   S    
C7    C11   S    
