data_mof_unit_36023.cif
_audit_creation_date              2012-12-11T16:07:15-0500
_audit_creation_method            fapswitch 2.2
_symmetry_space_group_name_H-M    P1
_symmetry_Int_Tables_number       1
_space_group_crystal_system       triclinic
_cell_length_a                    17.268595
_cell_length_b                    17.378699
_cell_length_c                    18.080619
_cell_angle_alpha                 90.193325
_cell_angle_beta                  89.760553
_cell_angle_gamma                 89.840619
_cell_volume                      5425.99760779

loop_
_atom_site_label
_atom_site_type_symbol
_atom_type_description
_atom_site_fract_x
_atom_site_fract_y
_atom_site_fract_z
_atom_type_partial_charge
C1    C     C_R   0.393480 0.695347 0.609767 0.472073
C2    C     C_R   0.600884 0.693363 0.615064 0.503660
C3    C     C_3   0.760245 0.209320 0.690396 0.319504
C4    C     C_3   0.762328 0.791912 0.307788 0.351529
C5    C     C_3   0.214649 0.246794 0.683049 0.265377
C6    C     C_3   0.792999 0.237568 0.312215 0.246703
C7    C     C_3   0.235834 0.791964 0.692707 0.355761
C8    C     C_3   0.715045 0.749282 0.814828 0.228041
C9    C     C_3   0.266180 0.293380 0.187788 0.331894
C10   C     C_3   0.737893 0.292143 0.812645 0.331407
C11   C     C_3   0.283500 0.748942 0.184594 0.224615
C12   C     C_3   0.284288 0.251215 0.814461 0.230828
C13   C     C_R   0.694951 0.395282 0.387971 0.485981
C14   C     C_3   0.735863 0.705683 0.187920 0.333402
C15   C     C_3   0.265887 0.705797 0.811223 0.336039
C16   C     C_3   0.708398 0.260445 0.191396 0.331091
C17   C     C_R   0.301591 0.606956 0.604064 0.475806
C18   C     C_R   0.605531 0.694659 0.388889 0.475068
C19   C     C_R   0.398351 0.306616 0.614266 0.506125
C20   C     C_R   0.312627 0.597266 0.374991 0.497579
C21   C     C_R   0.696945 0.394284 0.607393 0.477956
C22   C     C_R   0.893816 0.196557 0.107386 0.465859
C23   C     C_R   0.107286 0.803961 0.892255 0.467878
C24   C     C_R   0.198509 0.107098 0.102849 0.478446
C25   C     C_R   0.606818 0.302800 0.394622 0.477306
C26   C     C_R   0.812472 0.902761 0.875232 0.500555
C27   C     C_R   0.100192 0.807940 0.117221 0.500211
C28   C     C_R   0.895339 0.194076 0.887476 0.474091
C29   C     C_R   0.801510 0.893081 0.103507 0.483919
C30   C     C_R   0.187617 0.096727 0.874766 0.503544
C31   C     C_R   0.899508 0.807222 0.883750 0.501095
C32   C     C_R   0.106423 0.195621 0.108957 0.473488
C33   C     C_R   0.198862 0.892449 0.897620 0.477014
C34   C     C_R   0.805844 0.103693 0.114080 0.489921
C35   C     C_R   0.101063 0.192694 0.884273 0.502648
C36   C     C_R   0.688126 0.598072 0.623785 0.497466
C37   C     C_R   0.893589 0.804517 0.108847 0.470180
C38   C     C_R   0.802495 0.106261 0.894221 0.481217
C39   C     C_R   0.186693 0.903638 0.126056 0.499720
C40   C     C_3   0.280533 0.285064 0.307310 -0.454900
C41   C     C_3   0.708598 0.713330 0.701106 -0.439620
C42   C     C_3   0.291727 0.712229 0.297812 -0.440156
C43   C     C_3   0.718123 0.286603 0.694558 -0.451165
C44   C     C_3   0.719863 0.714715 0.307298 -0.451604
C45   C     C_3   0.290622 0.287380 0.700960 -0.441345
C46   C     C_3   0.715794 0.280328 0.309515 -0.422492
C47   C     C_R   0.302076 0.393565 0.395157 0.478821
C48   C     C_3   0.279641 0.715320 0.691684 -0.457836
C49   C     C_3   0.792018 0.788282 0.797024 -0.410614
C50   C     C_3   0.221699 0.217260 0.188180 -0.455532
C51   C     C_3   0.780072 0.214832 0.808534 -0.456218
C52   C     C_3   0.207539 0.789526 0.204213 -0.410539
C53   C     C_3   0.208277 0.210708 0.796583 -0.412414
C54   C     C_3   0.778323 0.782979 0.188454 -0.455896
C55   C     C_3   0.222077 0.782534 0.812187 -0.461117
C56   C     C_3   0.785575 0.217764 0.194116 -0.445428
C57   C     C_R   0.318844 0.678928 0.629157 0.012075
C58   C     C_R   0.603746 0.306640 0.614265 0.475456
C59   C     C_R   0.678192 0.321329 0.368845 -0.038588
C60   C     C_R   0.665579 0.668405 0.650342 -0.073522
C61   C     C_R   0.320175 0.322036 0.368939 -0.002538
C62   C     C_R   0.677254 0.324439 0.635346 -0.026576
C63   C     C_R   0.335428 0.667035 0.347804 -0.077199
C64   C     C_R   0.333754 0.332021 0.650102 -0.077264
C65   C     C_R   0.679797 0.677518 0.368510 -0.000206
C66   C     C_R   0.823206 0.177102 0.134601 -0.042877
C67   C     C_R   0.182330 0.819767 0.874011 0.009701
C68   C     C_R   0.181334 0.179463 0.127369 0.000867
C69   C     C_R   0.399353 0.692700 0.384031 0.504457
C70   C     C_R   0.835230 0.832793 0.848002 -0.067724
C71   C     C_R   0.163643 0.834274 0.153960 -0.071393
C72   C     C_R   0.821369 0.176787 0.867457 -0.023429
C73   C     C_R   0.818829 0.820924 0.127888 0.000870
C74   C     C_R   0.165036 0.166511 0.847737 -0.072005
C75   C     C_3   0.742909 0.678191 0.771598 0.330839
C76   C     C_3   0.220083 0.321635 0.255637 0.359528
C77   C     C_3   0.673624 0.258876 0.763638 0.316466
C78   C     C_3   0.320314 0.782715 0.254485 0.361549
C79   C     C_3   0.255319 0.321799 0.771810 0.335222
C80   C     C_R   0.311563 0.402284 0.623942 0.498890
C81   C     C_3   0.781872 0.679162 0.255980 0.361125
C82   C     C_3   0.326854 0.741696 0.759702 0.295384
C83   C     C_3   0.680312 0.217270 0.260229 0.389704
C84   C     C_3   0.743211 0.323891 0.240098 0.317827
C85   C     C_3   0.219138 0.678951 0.743690 0.357878
C86   C     C_3   0.673405 0.740803 0.238790 0.296580
C87   C     C_3   0.320161 0.217048 0.743919 0.359168
C88   C     C_3   0.255483 0.678231 0.227613 0.337229
C89   C     C_3   0.781937 0.320398 0.744065 0.366100
C90   C     C_3   0.327057 0.257255 0.238971 0.294229
C91   C     C_R   0.697950 0.606209 0.394565 0.487710
C92   C     C_3   0.680155 0.784183 0.744656 0.363515
C93   C     C_3   0.282230 0.180768 0.239891 0.356876
C94   C     C_3   0.757628 0.823499 0.726574 0.341924
C95   C     C_3   0.179021 0.719009 0.247581 0.381059
C96   C     C_3   0.824515 0.242583 0.739388 0.306827
C97   C     C_3   0.716276 0.818486 0.239829 0.363920
C98   C     C_3   0.243642 0.176222 0.725768 0.346695
C99   C     C_3   0.820962 0.280872 0.243337 0.359861
C100  C     C_3   0.174931 0.756006 0.744152 0.290771
C101  C     C_3   0.282646 0.818820 0.760133 0.362645
C102  C     C_R   0.394569 0.305202 0.388724 0.485844
C103  C     C_3   0.758078 0.174123 0.263483 0.273622
C104  C     C_3   0.178781 0.281062 0.753592 0.379135
C105  C     C_3   0.824707 0.756767 0.256972 0.290708
C106  C     C_3   0.716227 0.181029 0.758964 0.372125
C107  C     C_3   0.243874 0.823601 0.274374 0.349011
C108  C     C_3   0.820400 0.717412 0.753428 0.383284
C109  C     C_3   0.175277 0.245218 0.256538 0.296056
C110  C     C_3   0.236074 0.209031 0.307635 0.353805
C111  C     C_3   0.785521 0.752435 0.683269 0.265150
C112  C     C_3   0.215821 0.752906 0.317467 0.263630
Cl1   Cl    Cl    0.427246 0.789757 0.603378 -0.302499
Cl2   Cl    Cl    0.599572 0.785454 0.575257 -0.324438
Cl3   Cl    Cl    0.788671 0.432927 0.386492 -0.312850
Cl4   Cl    Cl    0.213269 0.595436 0.557601 -0.302972
Cl5   Cl    Cl    0.571320 0.789179 0.394299 -0.304654
Cl6   Cl    Cl    0.398429 0.214981 0.572582 -0.323882
Cl7   Cl    Cl    0.218624 0.561302 0.369797 -0.336077
Cl8   Cl    Cl    0.787666 0.401824 0.564021 -0.319429
Cl9   Cl    Cl    0.902012 0.286610 0.064942 -0.317755
Cl10  Cl    Cl    0.073665 0.709669 0.900569 -0.305127
Cl11  Cl    Cl    0.286784 0.094280 0.055730 -0.306941
Cl12  Cl    Cl    0.597143 0.213695 0.438608 -0.324931
Cl13  Cl    Cl    0.718607 0.939574 0.869864 -0.331007
Cl14  Cl    Cl    0.100382 0.714477 0.079825 -0.316355
Cl15  Cl    Cl    0.931945 0.287693 0.887532 -0.315108
Cl16  Cl    Cl    0.713505 0.904296 0.056571 -0.310687
Cl17  Cl    Cl    0.281491 0.059895 0.868726 -0.329985
Cl18  Cl    Cl    0.900437 0.714429 0.921930 -0.317713
Cl19  Cl    Cl    0.071715 0.289933 0.103224 -0.303129
Cl20  Cl    Cl    0.286481 0.905520 0.944909 -0.308258
Cl21  Cl    Cl    0.712141 0.066053 0.116522 -0.310460
Cl22  Cl    Cl    0.101738 0.285104 0.924241 -0.315488
Cl23  Cl    Cl    0.782227 0.561740 0.628392 -0.333107
Cl24  Cl    Cl    0.927760 0.710116 0.101524 -0.307002
Cl25  Cl    Cl    0.712547 0.097538 0.938866 -0.319556
Cl26  Cl    Cl    0.280478 0.940011 0.131967 -0.332711
Cl27  Cl    Cl    0.733868 0.581955 0.804268 -0.357185
Cl28  Cl    Cl    0.171938 0.412244 0.259494 -0.209309
Cl29  Cl    Cl    0.573395 0.271711 0.786273 -0.411834
Cl30  Cl    Cl    0.411671 0.830449 0.253512 -0.226648
Cl31  Cl    Cl    0.261308 0.417908 0.805493 -0.348732
Cl32  Cl    Cl    0.831835 0.589546 0.261184 -0.208341
Cl33  Cl    Cl    0.428271 0.731264 0.776958 -0.420957
Cl34  Cl    Cl    0.212942 0.404620 0.441185 -0.299697
Cl35  Cl    Cl    0.590008 0.168093 0.264165 -0.206255
Cl36  Cl    Cl    0.732998 0.423278 0.217854 -0.359094
Cl37  Cl    Cl    0.170337 0.588991 0.739391 -0.211617
Cl38  Cl    Cl    0.572458 0.728868 0.220483 -0.416586
Cl39  Cl    Cl    0.411947 0.169614 0.742914 -0.227055
Cl40  Cl    Cl    0.261636 0.582312 0.193278 -0.344907
Cl41  Cl    Cl    0.830910 0.410415 0.741545 -0.205662
Cl42  Cl    Cl    0.428231 0.265416 0.220480 -0.359650
Cl43  Cl    Cl    0.589509 0.833739 0.744392 -0.223691
Cl44  Cl    Cl    0.330641 0.090286 0.236659 -0.206484
Cl45  Cl    Cl    0.566639 0.213226 0.615916 -0.315989
Cl46  Cl    Cl    0.766163 0.920106 0.694914 -0.385305
Cl47  Cl    Cl    0.088043 0.670613 0.248915 -0.209984
Cl48  Cl    Cl    0.924662 0.229745 0.716528 -0.350540
Cl49  Cl    Cl    0.666427 0.908209 0.235246 -0.203165
Cl50  Cl    Cl    0.238255 0.079772 0.693002 -0.378916
Cl51  Cl    Cl    0.910821 0.330773 0.239120 -0.213858
Cl52  Cl    Cl    0.073547 0.766068 0.726527 -0.361252
Cl53  Cl    Cl    0.331763 0.908624 0.763796 -0.205944
Cl54  Cl    Cl    0.767061 0.074561 0.285256 -0.398349
Cl55  Cl    Cl    0.087204 0.328901 0.754376 -0.212553
Cl56  Cl    Cl    0.399646 0.785482 0.423064 -0.324062
Cl57  Cl    Cl    0.925624 0.768435 0.275610 -0.362366
Cl58  Cl    Cl    0.667072 0.091132 0.761308 -0.202823
Cl59  Cl    Cl    0.238456 0.919881 0.307772 -0.378125
Cl60  Cl    Cl    0.910703 0.667259 0.753276 -0.208508
Cl61  Cl    Cl    0.074193 0.237374 0.275416 -0.359124
Cl62  Cl    Cl    0.217479 0.438740 0.629076 -0.333198
Cl63  Cl    Cl    0.786778 0.596766 0.440443 -0.304980
Cl64  Cl    Cl    0.429515 0.210860 0.392414 -0.302535
H1    H     H_    0.140913 0.045219 0.393203 0.389483
H2    H     H_    0.358296 0.458917 0.101947 0.401859
H3    H     H_    0.651592 0.453623 0.912117 0.400363
H4    H     H_    0.415168 0.659649 0.125864 0.370777
H5    H     H_    0.415057 0.341658 0.872229 0.368776
H6    H     H_    0.653219 0.535722 0.099880 0.400902
H7    H     H_    0.359611 0.539681 0.894579 0.402831
H8    H     H_    0.545785 0.346254 0.093615 0.402672
H9    H     H_    0.840934 0.875337 0.559205 0.395411
H10   H     H_    0.160154 0.876628 0.442054 0.394971
H11   H     H_    0.847733 0.049460 0.589396 0.396907
H12   H     H_    0.850111 0.958844 0.396311 0.395127
H13   H     H_    0.160560 0.123650 0.558588 0.394217
H14   H     H_    0.922779 0.136785 0.326006 0.350502
H15   H     H_    0.138921 0.956136 0.609439 0.391270
H16   H     H_    0.582575 0.660799 0.873089 0.371968
N1    N     N_R   0.424590 0.632770 0.578330 -0.152167
N2    N     N_R   0.575410 0.632770 0.578330 -0.153898
N3    N     N_R   0.632770 0.424590 0.421670 -0.148366
N4    N     N_R   0.367230 0.575410 0.578330 -0.154614
N5    N     N_R   0.575410 0.632770 0.421670 -0.151050
N6    N     N_R   0.424590 0.367230 0.578330 -0.154736
N7    N     N_R   0.367230 0.575410 0.421670 -0.146555
N8    N     N_R   0.632770 0.424590 0.578330 -0.156463
N9    N     N_R   0.924590 0.132770 0.078330 -0.152563
N10   N     N_R   0.075410 0.867230 0.921670 -0.149988
N11   N     N_R   0.132770 0.075410 0.078330 -0.153683
N12   N     N_R   0.575410 0.367230 0.421670 -0.149214
N13   N     N_R   0.867230 0.924590 0.921670 -0.147810
N14   N     N_R   0.075410 0.867230 0.078330 -0.153168
N15   N     N_R   0.924590 0.132770 0.921670 -0.151487
N16   N     N_R   0.867230 0.924590 0.078330 -0.150555
N17   N     N_R   0.132770 0.075410 0.921670 -0.147955
N18   N     N_R   0.924590 0.867230 0.921670 -0.152653
N19   N     N_R   0.075410 0.132770 0.078330 -0.148962
N20   N     N_R   0.132770 0.924590 0.921670 -0.152460
N21   N     N_R   0.867230 0.075410 0.078330 -0.150988
N22   N     N_R   0.075410 0.132770 0.921670 -0.153115
N23   N     N_R   0.632770 0.575410 0.578330 -0.148109
N24   N     N_R   0.924590 0.867230 0.078330 -0.150725
N25   N     N_R   0.867230 0.075410 0.921670 -0.154252
N26   N     N_R   0.132770 0.924590 0.078330 -0.147541
N27   N     N_R   0.367230 0.424590 0.421670 -0.153946
N28   N     N_R   0.575410 0.367230 0.578330 -0.154064
N29   N     N_R   0.424590 0.632770 0.421670 -0.153104
N30   N     N_R   0.367230 0.424590 0.578330 -0.148494
N31   N     N_R   0.632770 0.575410 0.421670 -0.150015
N32   N     N_R   0.424590 0.367230 0.421670 -0.147576
Ni1   Ni    Ni4+2 0.500000 0.631570 0.500000 0.326205
Ni2   Ni    Ni4+2 0.500000 0.368430 0.500000 0.323911
Ni3   Ni    Ni4+2 0.631570 0.500000 0.500000 0.325132
Ni4   Ni    Ni4+2 0.368430 0.500000 0.500000 0.329331
Ni5   Ni    Ni4+2 0.000000 0.131570 0.000000 0.323381
Ni6   Ni    Ni4+2 0.000000 0.868430 0.000000 0.327353
Ni7   Ni    Ni4+2 0.131570 0.000000 0.000000 0.330410
Ni8   Ni    Ni4+2 0.868430 0.000000 0.000000 0.325699
O1    O     O_2   0.272253 0.130377 0.431767 -0.129270
O2    O     O_2   0.715349 0.136714 0.565455 -0.108474
O3    O     O_2   0.841136 0.203226 0.566678 -0.130351
O4    O     O_3   0.830081 0.073600 0.636252 -0.430972
O5    O     O_2   0.723799 0.868933 0.433336 -0.125688
O6    O     O_2   0.852237 0.807266 0.426446 -0.147610
O7    O     O_3   0.830750 0.931669 0.351852 -0.439407
O8    O     O_2   0.110473 0.305983 0.586924 -0.033913
O9    O     O_2   0.229844 0.251465 0.536116 -0.212793
O10   O     O_3   0.123155 0.157697 0.584520 -0.416148
O11   O     O_2   0.863346 0.283291 0.437160 -0.064442
O12   O     O_2   0.145098 0.194883 0.426374 -0.139736
O13   O     O_2   0.806810 0.153517 0.433793 -0.162036
O14   O     O_3   0.935477 0.176635 0.363268 -0.383442
O15   O     O_2   0.271761 0.872776 0.569479 -0.127357
O16   O     O_2   0.145603 0.806996 0.574293 -0.146658
O17   O     O_3   0.162385 0.930254 0.652662 -0.444476
O18   O     O_2   0.729853 0.751710 0.961496 -0.168186
O19   O     O_2   0.611441 0.809418 0.912722 -0.071312
O20   O     O_3   0.622096 0.660738 0.912640 -0.404259
O21   O     O_2   0.356816 0.308819 0.068652 -0.138834
O22   O     O_2   0.228855 0.371615 0.063743 -0.087455
O23   O     O_3   0.164275 0.070709 0.349590 -0.448038
O24   O     O_3   0.336196 0.432622 0.145711 -0.448522
O25   O     O_2   0.656587 0.299882 0.936269 -0.158667
O26   O     O_2   0.783064 0.365436 0.936840 -0.098927
O27   O     O_3   0.668866 0.428743 0.865489 -0.438193
O28   O     O_2   0.267389 0.750251 0.037755 -0.169898
O29   O     O_2   0.385812 0.808267 0.085711 -0.071755
O30   O     O_3   0.375837 0.659596 0.086131 -0.404619
O31   O     O_2   0.269816 0.247816 0.961424 -0.167348
O32   O     O_2   0.388876 0.192216 0.910755 -0.073004
O33   O     O_3   0.375816 0.340783 0.912352 -0.413131
O34   O     O_2   0.889102 0.692563 0.585643 -0.035354
O35   O     O_2   0.646022 0.687657 0.069078 -0.125784
O36   O     O_2   0.775865 0.629145 0.062554 -0.096144
O37   O     O_3   0.670624 0.564204 0.144333 -0.437903
O38   O     O_2   0.355847 0.689245 0.929997 -0.127428
O39   O     O_2   0.228783 0.625338 0.934331 -0.087093
O40   O     O_3   0.337432 0.566469 0.851240 -0.452682
O41   O     O_2   0.700829 0.340925 0.068342 -0.167366
O42   O     O_2   0.634181 0.215635 0.067732 -0.098304
O43   O     O_3   0.571132 0.329795 0.140012 -0.436163
O44   O     O_2   0.770065 0.748432 0.536593 -0.213067
O45   O     O_3   0.877932 0.840904 0.584683 -0.411879
O46   O     O_2   0.113731 0.693551 0.416112 -0.035892
O47   O     O_2   0.232482 0.750357 0.464340 -0.214256
O48   O     O_3   0.123531 0.841937 0.416438 -0.417450
S1    S     S_3+6 0.205118 0.151023 0.383112 0.135635
S2    S     S_3+6 0.296377 0.351771 0.112222 0.166660
S3    S     S_3+6 0.712565 0.346974 0.891951 0.151098
S4    S     S_3+6 0.328880 0.743917 0.095731 0.179625
S5    S     S_3+6 0.330565 0.255875 0.902507 0.177664
S6    S     S_3+6 0.707797 0.646566 0.111814 0.167209
S7    S     S_3+6 0.296283 0.646476 0.885952 0.168845
S8    S     S_3+6 0.653131 0.285748 0.112783 0.149325
S9    S     S_3+6 0.831308 0.756661 0.594665 0.181401
S10   S     S_3+6 0.170878 0.757748 0.406516 0.179253
S11   S     S_3+6 0.785647 0.155252 0.610598 0.160600
S12   S     S_3+6 0.791466 0.850151 0.384028 0.139519
S13   S     S_3+6 0.168896 0.242405 0.594776 0.181746
S14   S     S_3+6 0.849788 0.213221 0.390333 0.176250
S15   S     S_3+6 0.204661 0.850807 0.618015 0.135837
S16   S     S_3+6 0.668739 0.744921 0.903201 0.180300

loop_
_geom_bond_atom_site_label_1
_geom_bond_atom_site_label_2
_ccdc_geom_bond_type
N4    Ni4   S    
C107  C112  S    
C39   N26   A    
C25   N12   A    
C102  N32   A    
C35   C74   A    
C110  S1    S    
C107  Cl59  S    
C18   C65   A    
C43   C89   S    
C29   N16   A    
C105  Cl57  S    
C45   C87   S    
C31   Cl18  S    
C36   N23   A    
C109  Cl61  S    
N29   Ni1   S    
C94   C111  S    
C16   C84   S    
N17   Ni7   S    
C31   C70   A    
O7    S12   S    
O35   S6    D    
C55   C100  S    
C15   S7    S    
O26   S3    D    
C8    C92   S    
C49   C108  S    
C22   N9    A    
C93   C110  S    
C15   C85   S    
C47   Cl34  S    
C1    Cl1   S    
C11   S4    S    
C10   C51   S    
C35   Cl22  S    
C98   Cl50  S    
C23   Cl10  S    
C38   C72   A    
H1    O23   S    
N15   N25   A    
C44   C81   S    
N2    N23   A    
N15   Ni5   S    
C40   C110  S    
O14   S14   S    
C40   C76   S    
O40   S7    S    
N8    Ni3   S    
C1    N1    A    
O29   S4    D    
C18   N5    A    
C92   C94   S    
O2    S11   D    
C21   C62   A    
C13   Cl3   S    
N16   Ni8   S    
C46   C84   S    
N8    N28   A    
O42   S8    D    
C36   Cl23  S    
C82   Cl33  S    
C27   C71   A    
C90   C93   S    
C65   C91   A    
C19   N6    A    
H3    O27   S    
C54   C105  S    
C56   C103  S    
C34   N21   A    
H9    O45   S    
C9    C90   S    
C30   Cl17  S    
C111  S9    S    
C108  C111  S    
N3    Ni3   S    
C7    C48   S    
C89   C96   S    
C69   Cl56  S    
N1    Ni1   S    
C2    Cl2   S    
C56   C66   S    
O8    S13   D    
C69   N29   A    
C35   N22   A    
C77   Cl29  S    
H6    O37   S    
H12   O7    S    
C39   C71   A    
C14   C81   S    
N22   Ni5   S    
N6    Ni2   S    
O1    S1    D    
O31   S5    D    
C34   C66   A    
C48   C57   S    
C83   C103  S    
C95   Cl47  S    
O19   S16   D    
N2    Ni1   S    
C77   C106  S    
O3    S11   D    
C86   Cl38  S    
C30   C74   A    
C27   Cl14  S    
N31   Ni3   S    
H2    O24   S    
C53   C104  S    
C23   C67   A    
C86   C97   S    
C42   C112  S    
N27   N32   A    
C58   N28   A    
C79   Cl31  S    
C63   C69   A    
C19   Cl6   S    
C76   C109  S    
N27   Ni4   S    
N7    Ni4   S    
C37   N24   A    
C12   C53   S    
C28   Cl15  S    
O33   S5    S    
H8    O43   S    
N9    Ni5   S    
C39   Cl26  S    
C4    C97   S    
C106  Cl58  S    
N11   N19   A    
C44   C65   S    
H10   O48   S    
C15   C82   S    
C81   C105  S    
H14   O14   S    
O37   S6    S    
C14   C86   S    
C32   N19   A    
O6    S12   D    
H16   O20   S    
C24   Cl11  S    
C40   C61   S    
O16   S15   D    
C15   C55   S    
C16   C56   S    
C1    C57   A    
O13   S14   D    
N1    N4    A    
O23   S1    S    
N28   Ni2   S    
C99   Cl51  S    
O44   S9    D    
O22   S2    D    
C33   Cl20  S    
C97   Cl49  S    
C108  Cl60  S    
O10   S13   S    
C28   N15   A    
C96   Cl48  S    
C41   C60   S    
N5    N31   A    
C58   Cl45  S    
C13   C59   A    
C53   C98   S    
C45   C64   S    
C20   C63   A    
C75   Cl27  S    
C104  Cl55  S    
N13   N18   A    
C14   S6    S    
C8    C49   S    
H15   O17   S    
C9    S2    S    
C92   Cl43  S    
N23   Ni3   S    
O4    S11   S    
C88   C95   S    
C80   N30   A    
C41   C111  S    
O25   S3    D    
C17   N4    A    
C25   C59   A    
C56   C99   S    
C32   Cl19  S    
C58   C62   A    
C24   N11   A    
C53   C74   S    
O38   S7    D    
C30   N17   A    
O11   S14   D    
O12   S1    D    
C95   C112  S    
C78   Cl30  S    
N25   Ni8   S    
O9    S13   D    
C33   N20   A    
C2    C60   A    
C12   C79   S    
C52   C95   S    
C11   C52   S    
O28   S4    D    
C81   Cl32  S    
O30   S4    S    
C52   C107  S    
C54   C97   S    
C9    C76   S    
C90   Cl42  S    
H11   O4    S    
C87   C98   S    
C75   C108  S    
C94   Cl46  S    
C64   C80   A    
C38   N25   A    
C28   C72   A    
O46   S10   D    
O43   S8    S    
C84   Cl36  S    
C3    C106  S    
O17   S15   S    
O18   S16   D    
C7    C100  S    
C23   N10   A    
N20   Ni7   S    
N3    N12   A    
C4    C44   S    
C5    C45   S    
C50   C109  S    
O48   S10   S    
C78   C107  S    
C2    N2    A    
C26   Cl13  S    
C10   S3    S    
C4    S12   S    
C5    S13   S    
C41   C75   S    
C54   C73   S    
N30   Ni4   S    
C19   C64   A    
O47   S10   D    
N18   Ni6   S    
C37   Cl24  S    
C45   C79   S    
C6    C103  S    
C101  Cl53  S    
C18   Cl5   S    
N9    N21   A    
H5    O33   S    
C49   C70   S    
C26   C70   A    
C26   N13   A    
C51   C72   S    
C91   N31   A    
O21   S2    D    
C22   Cl9   S    
N19   Ni5   S    
C84   C99   S    
N10   N20   A    
C47   C61   A    
O39   S7    D    
C8    S16   S    
N17   N22   A    
O24   S2    S    
C27   N14   A    
C80   Cl62  S    
C52   C71   S    
C109  C110  S    
N11   Ni7   S    
C31   N18   A    
C38   Cl25  S    
C48   C82   S    
C16   C83   S    
C24   C68   A    
C46   C83   S    
O45   S9    S    
C13   N3    A    
H13   O10   S    
O41   S8    D    
C40   C90   S    
C50   C68   S    
C42   C63   S    
C20   Cl7   S    
C43   C62   S    
C17   C57   A    
N5    Ni1   S    
C46   C59   S    
N14   Ni6   S    
C112  S10   S    
C3    S11   S    
N14   N26   A    
C3    C43   S    
O32   S5    D    
N6    N30   A    
C21   Cl8   S    
C29   C73   A    
C102  Cl64  S    
O15   S15   D    
C22   C66   A    
N24   Ni6   S    
C3    C96   S    
N7    N29   A    
C49   C94   S    
C16   S8    S    
C51   C96   S    
N10   Ni6   S    
C5    C104  S    
N16   N24   A    
C87   Cl39  S    
C88   Cl40  S    
C44   C86   S    
C10   C77   S    
C76   Cl28  S    
C10   C89   S    
C100  Cl52  S    
C7    S15   S    
C34   Cl21  S    
C47   N27   A    
C8    C75   S    
C20   N7    A    
C11   C78   S    
C12   S5    S    
H4    O30   S    
C89   Cl41  S    
C11   C88   S    
C91   Cl63  S    
N21   Ni8   S    
C83   Cl35  S    
C14   C54   S    
C42   C78   S    
C7    C101  S    
C79   C104  S    
C42   C88   S    
C21   N8    A    
C33   C67   A    
C37   C73   A    
H7    O40   S    
C6    C46   S    
C12   C87   S    
O36   S6    D    
O20   S16   S    
C93   Cl44  S    
C9    C50   S    
C36   C60   A    
O5    S12   D    
N32   Ni2   S    
C55   C67   S    
C6    S14   S    
C50   C93   S    
C43   C77   S    
C4    C105  S    
C55   C101  S    
C32   C68   A    
C6    C99   S    
O27   S3    S    
C61   C102  A    
C85   C100  S    
C51   C106  S    
C82   C101  S    
O34   S9    D    
C25   Cl12  S    
C85   Cl37  S    
N26   Ni7   S    
C41   C92   S    
C5    C98   S    
C103  Cl54  S    
C29   Cl16  S    
C48   C85   S    
N13   Ni8   S    
N12   Ni2   S    
C17   Cl4   S    
