data_mof_unit_9367.cif
_audit_creation_date              2012-12-10T16:58:28-0500
_audit_creation_method            fapswitch 2.2
_symmetry_space_group_name_H-M    P1
_symmetry_Int_Tables_number       1
_space_group_crystal_system       triclinic
_cell_length_a                    7.789609
_cell_length_b                    8.55893
_cell_length_c                    23.384011
_cell_angle_alpha                 91.481873
_cell_angle_beta                  86.014162
_cell_angle_gamma                 93.076998
_cell_volume                      1552.63244324

loop_
_atom_site_label
_atom_site_type_symbol
_atom_type_description
_atom_site_fract_x
_atom_site_fract_y
_atom_site_fract_z
_atom_type_partial_charge
C1    C     C_R   0.545220 0.794470 0.498723 0.952697
C2    C     C_R   0.454780 0.205529 0.501276 0.952692
C3    C     C_R   0.669739 0.493628 0.757063 -0.107544
C4    C     C_R   0.330267 0.506437 0.242937 -0.107578
C5    C     C_R   0.665733 0.493213 0.697790 -0.212546
C6    C     C_R   0.334279 0.506895 0.302210 -0.212517
C7    C     C_R   0.507786 0.501737 0.672751 -0.035796
C8    C     C_R   0.492205 0.498210 0.327249 -0.035803
C9    C     C_R   0.354375 0.511270 0.707634 -0.214111
C10   C     C_R   0.645585 0.488457 0.292365 -0.214110
C11   C     C_R   0.358882 0.511119 0.766774 -0.100698
C12   C     C_R   0.641070 0.488558 0.233225 -0.100705
C13   C     C_R   0.516242 0.502013 0.791309 0.330409
C14   C     C_R   0.483735 0.497837 0.208691 0.330426
C15   C     C_2   0.569321 0.957612 0.498783 -0.382376
C16   C     C_2   0.430679 0.042388 0.501216 -0.382374
C17   C     C_R   0.502447 0.500685 0.610580 0.854846
C18   C     C_R   0.497552 0.499306 0.389420 0.854844
C19   C     C_R   0.444632 0.362719 0.119050 0.504120
C20   C     C_R   0.555352 0.637125 0.880950 0.504120
C21   C     C_R   0.522219 0.637134 0.120751 0.506081
C22   C     C_R   0.477760 0.362711 0.879249 0.506073
C23   C     C_R   0.530526 0.640307 0.060985 -0.013658
C24   C     C_R   0.469456 0.359537 0.939015 -0.013655
C25   C     C_R   0.495320 0.500013 0.030089 -0.020436
C26   C     C_R   0.504664 0.499830 0.969911 -0.020436
C27   C     C_R   0.451128 0.359845 0.059231 -0.012888
C28   C     C_R   0.548857 0.639998 0.940770 -0.012885
C29   C     C_R   0.574479 0.779278 0.031584 -0.165340
C30   C     C_R   0.425504 0.220566 0.968416 -0.165338
C31   C     C_R   0.583626 0.779115 0.971936 -0.169942
C32   C     C_R   0.416359 0.220728 0.028064 -0.169944
H1    H     H_    0.602365 0.888262 0.054511 0.196359
H2    H     H_    0.397617 0.111582 0.945489 0.196360
H3    H     H_    0.617920 0.888045 0.950394 0.193423
H4    H     H_    0.382066 0.111798 0.049606 0.193421
H5    H     H_    0.791336 0.486657 0.776432 0.136103
H6    H     H_    0.208689 0.513545 0.223568 0.136105
H7    H     H_    0.785687 0.486038 0.671741 0.186997
H8    H     H_    0.214347 0.514237 0.328260 0.186984
H9    H     H_    0.231042 0.518252 0.689363 0.166797
H10   H     H_    0.768899 0.481338 0.310635 0.166790
H11   H     H_    0.240424 0.517798 0.793663 0.135368
H12   H     H_    0.759506 0.481717 0.206335 0.135363
H13   H     H_    0.700718 0.007335 0.497294 0.162163
H14   H     H_    0.299282 0.992665 0.502705 0.162158
N1    N     N_R   0.480914 0.499680 0.148104 -0.364267
N2    N     N_R   0.519066 0.500165 0.851896 -0.364262
N3    N     N_2   0.950330 0.457950 0.484560 0.162890
N4    N     N_2   0.049670 0.542050 0.515440 0.162889
O1    O     O_R   0.389250 0.738570 0.503790 -0.657402
O2    O     O_R   0.610750 0.261430 0.496210 -0.657399
O3    O     O_R   0.678390 0.711620 0.493890 -0.601588
O4    O     O_R   0.321610 0.288380 0.506110 -0.601596
O5    O     O_R   0.355400 0.513520 0.588790 -0.643799
O6    O     O_R   0.644600 0.486480 0.411210 -0.643797
O7    O     O_R   0.644550 0.486570 0.578900 -0.570985
O8    O     O_R   0.355450 0.513430 0.421100 -0.570986
O9    O     O_2   0.404321 0.229985 0.148091 -0.532089
O10   O     O_2   0.595661 0.769860 0.851909 -0.532093
O11   O     O_2   0.555816 0.769642 0.151460 -0.529262
O12   O     O_2   0.444164 0.230203 0.848540 -0.529268
Zn1   Zn    Zn3+2 0.306930 0.518000 0.506610 1.013980
Zn2   Zn    Zn3+2 0.693070 0.482000 0.493390 1.013986
O13   O     O_3   0.034863 0.392599 0.438642 -0.530305
C33   C     C_3   0.953058 0.245782 0.427887 0.188112
H15   H     H_    0.826561 0.258934 0.410125 0.174769
H16   H     H_    0.937272 0.176190 0.467660 0.127082
C34   C     C_3   0.064541 0.156126 0.383763 -0.868784
H17   H     H_    0.193476 0.141698 0.399853 0.260133
H18   H     H_    0.002502 0.038600 0.375510 0.220836
H19   H     H_    0.080423 0.220463 0.342930 0.260678
O14   O     O_3   0.965136 0.607410 0.561356 -0.530319
C35   C     C_3   0.046944 0.754229 0.572107 0.188116
H20   H     H_    0.062733 0.823810 0.532331 0.127086
H21   H     H_    0.173440 0.741079 0.589870 0.174790
C36   C     C_3   0.935463 0.843900 0.616227 -0.868809
H22   H     H_    0.919600 0.779588 0.657065 0.260659
H23   H     H_    0.997492 0.961435 0.624469 0.220842
H24   H     H_    0.806520 0.858305 0.600139 0.260142

loop_
_geom_bond_atom_site_label_1
_geom_bond_atom_site_label_2
_ccdc_geom_bond_type
C33   H16   S    
C10   H10   S    
O14   C35   S    
C22   N2    A    
C36   H22   S    
C35   H21   S    
C23   C29   A    
C24   C26   A    
O3    Zn2   S    
C19   N1    A    
C33   C34   S    
O4    Zn1   S    
C15   C16   D    
C29   H1    S    
C34   H18   S    
C1    O3    A    
N3    O13   S    
C18   O8    A    
C7    C17   S    
C35   C36   S    
O5    Zn1   S    
O6    Zn2   S    
C11   H11   S    
C1    C15   S    
C20   O10   S    
C2    C16   S    
C17   O5    A    
C21   O11   S    
C3    C13   A    
C18   O6    A    
C33   H15   S    
N3    Zn2   S    
N4    Zn1   S    
C10   C12   A    
C36   H23   S    
C35   H20   S    
C30   H2    S    
C6    H8    S    
O1    Zn1   S    
C4    C6    A    
O2    Zn2   S    
N4    O14   S    
C16   H14   S    
C5    C7    A    
C6    C8    A    
C20   C28   A    
C19   O9    S    
C25   C26   A    
C8    C18   S    
C34   H19   S    
C22   O12   S    
C1    O1    A    
C9    C11   A    
C20   N2    A    
C2    O2    A    
C4    H6    S    
N3    N4    D    
C21   C23   A    
C2    O4    A    
C22   C24   A    
C15   H13   S    
C32   H4    S    
C19   C27   A    
O7    Zn2   S    
C36   H24   S    
O8    Zn1   S    
C7    C9    A    
C27   C32   A    
C26   C28   A    
C28   C31   A    
C12   C14   A    
C3    C5    A    
C13   N2    S    
C14   N1    S    
C25   C27   A    
C9    H9    S    
C5    H7    S    
C29   C31   A    
C30   C32   A    
C11   C13   A    
C31   H3    S    
C23   C25   A    
C4    C14   A    
C34   H17   S    
C24   C30   A    
C3    H5    S    
C8    C10   A    
O13   C33   S    
C12   H12   S    
C17   O7    A    
C21   N1    A    
