data_mof_unit_20322.cif
_audit_creation_date              2012-12-11T14:49:46-0500
_audit_creation_method            fapswitch 2.2
_symmetry_space_group_name_H-M    P1
_symmetry_Int_Tables_number       1
_space_group_crystal_system       triclinic
_cell_length_a                    10.906368
_cell_length_b                    10.906351
_cell_length_c                    18.875176
_cell_angle_alpha                 90.0
_cell_angle_beta                  90.000054
_cell_angle_gamma                 120.000222
_cell_volume                      1944.376162

loop_
_atom_site_label
_atom_site_type_symbol
_atom_type_description
_atom_site_fract_x
_atom_site_fract_y
_atom_site_fract_z
_atom_type_partial_charge
C1    C     C_R   0.528474 0.470317 0.647039 0.547807
C2    C     C_R   0.465030 0.529994 0.355086 0.543755
C3    C     C_R   0.470006 0.935036 0.144914 0.543755
C4    C     C_R   0.064964 0.534970 0.355086 0.543754
C5    C     C_R   0.381200 0.010511 0.537002 0.015944
C6    C     C_R   0.629311 0.618800 0.962998 0.015943
C7    C     C_R   0.989490 0.370690 0.537002 0.015944
C8    C     C_R   0.381201 0.010511 0.962998 0.015944
C9    C     C_R   0.629310 0.618800 0.537003 0.015943
C10   C     C_R   0.989490 0.370690 0.962997 0.015944
C11   C     C_R   0.987297 0.377158 0.037678 0.002231
C12   C     C_R   0.941844 0.471527 0.852961 0.547807
C13   C     C_R   0.622842 0.610139 0.462322 0.002231
C14   C     C_R   0.389862 0.012704 0.037678 0.002231
C15   C     C_R   0.987296 0.377158 0.462322 0.002231
C16   C     C_R   0.622842 0.610139 0.037678 0.002231
C17   C     C_R   0.389862 0.012704 0.462322 0.002231
C18   C     C_R   0.480747 0.971935 0.429891 0.031897
C19   C     C_R   0.491188 0.519253 0.070109 0.031898
C20   C     C_R   0.028065 0.508812 0.429891 0.031897
C21   C     C_R   0.480747 0.971934 0.070108 0.031897
C22   C     C_R   0.491188 0.519253 0.429892 0.031897
C23   C     C_R   0.529683 0.058156 0.647039 0.547806
C24   C     C_R   0.028065 0.508812 0.070108 0.031898
C25   C     C_R   0.006132 0.488846 0.922972 0.027524
C26   C     C_R   0.511154 0.517286 0.577028 0.027524
C27   C     C_R   0.482714 0.993868 0.922972 0.027524
C28   C     C_R   0.006131 0.488846 0.577028 0.027524
C29   C     C_R   0.511154 0.517286 0.922972 0.027524
C30   C     C_R   0.482714 0.993868 0.577028 0.027524
C31   C     C_R   0.564513 0.935873 0.471589 -0.149594
C32   C     C_R   0.371360 0.435485 0.028411 -0.149594
C33   C     C_R   0.064126 0.628640 0.471589 -0.149594
C34   C     C_R   0.528474 0.470317 0.852961 0.547807
C35   C     C_R   0.564513 0.935872 0.028411 -0.149594
C36   C     C_R   0.371360 0.435486 0.471589 -0.149594
C37   C     C_R   0.064127 0.628641 0.028411 -0.149594
C38   C     C_R   0.052161 0.618520 0.956160 -0.160894
C39   C     C_R   0.381480 0.433641 0.543840 -0.160895
C40   C     C_R   0.566358 0.947839 0.956160 -0.160894
C41   C     C_R   0.052160 0.618520 0.543840 -0.160894
C42   C     C_R   0.381481 0.433640 0.956160 -0.160894
C43   C     C_R   0.566358 0.947839 0.543840 -0.160894
C44   C     C_3   0.262406 0.021295 0.572539 -0.379903
C45   C     C_R   0.941843 0.471527 0.647039 0.547807
C46   C     C_3   0.758889 0.737595 0.927460 -0.379904
C47   C     C_3   0.978705 0.241112 0.572540 -0.379903
C48   C     C_3   0.262406 0.021294 0.927460 -0.379903
C49   C     C_3   0.758889 0.737595 0.572540 -0.379903
C50   C     C_3   0.978706 0.241112 0.927460 -0.379903
C51   C     C_3   0.937017 0.244448 0.081888 -0.379837
C52   C     C_3   0.755552 0.692569 0.418112 -0.379838
C53   C     C_3   0.307433 0.062984 0.081889 -0.379837
C54   C     C_3   0.937016 0.244447 0.418112 -0.379837
C55   C     C_3   0.755553 0.692569 0.081889 -0.379837
C56   C     C_R   0.529683 0.058156 0.852961 0.547806
C57   C     C_3   0.307433 0.062984 0.418111 -0.379837
C58   C     C_R   0.465030 0.529994 0.144914 0.543755
C59   C     C_R   0.470006 0.935036 0.355086 0.543755
C60   C     C_R   0.064964 0.534970 0.144914 0.543755
Cr1   Cr    Cr6+3 0.776430 0.541680 0.750000 0.992314
Cr2   Cr    Cr6+3 0.765250 0.223570 0.750000 0.992313
Cr3   Cr    Cr6+3 0.458320 0.234750 0.750000 0.992313
Cr4   Cr    Cr6+3 0.541680 0.776430 0.250000 0.996103
Cr5   Cr    Cr6+3 0.223570 0.765250 0.250000 0.996102
Cr6   Cr    Cr6+3 0.234750 0.458320 0.250000 0.996104
H1    H     H_    0.630314 0.898127 0.448463 0.141470
H2    H     H_    0.072229 0.711573 0.573604 0.125556
H3    H     H_    0.288428 0.360656 0.926396 0.125556
H4    H     H_    0.639342 0.927770 0.573604 0.125557
H5    H     H_    0.164798 0.970652 0.539766 0.093736
H6    H     H_    0.232426 0.963216 0.623661 0.135696
H7    H     H_    0.294248 0.133834 0.581030 0.166395
H8    H     H_    0.805855 0.835203 0.960234 0.093737
H9    H     H_    0.839587 0.705753 0.918970 0.166394
H10   H     H_    0.730791 0.767575 0.876339 0.135695
H11   H     H_    0.029348 0.194146 0.539766 0.093736
H12   H     H_    0.267813 0.369683 0.051537 0.141470
H13   H     H_    0.036784 0.269210 0.623661 0.135696
H14   H     H_    0.866166 0.160413 0.581031 0.166395
H15   H     H_    0.164798 0.970651 0.960234 0.093736
H16   H     H_    0.294247 0.133834 0.918969 0.166395
H17   H     H_    0.232426 0.963216 0.876339 0.135695
H18   H     H_    0.805855 0.835203 0.539766 0.093737
H19   H     H_    0.730791 0.767575 0.623661 0.135695
H20   H     H_    0.839587 0.705754 0.581031 0.166395
H21   H     H_    0.029349 0.194146 0.960233 0.093736
H22   H     H_    0.866166 0.160413 0.918969 0.166395
H23   H     H_    0.101871 0.732187 0.448462 0.141470
H24   H     H_    0.036784 0.269211 0.876338 0.135695
H25   H     H_    0.857679 0.149162 0.052889 0.123003
H26   H     H_    0.027828 0.230464 0.096428 0.132950
H27   H     H_    0.882901 0.249532 0.130702 0.140798
H28   H     H_    0.850837 0.708514 0.447111 0.123003
H29   H     H_    0.750466 0.633371 0.369297 0.140799
H30   H     H_    0.769539 0.797366 0.403573 0.132948
H31   H     H_    0.291482 0.142319 0.052889 0.123002
H32   H     H_    0.202638 0.972171 0.096431 0.132952
H33   H     H_    0.366635 0.117102 0.130701 0.140798
H34   H     H_    0.630314 0.898127 0.051537 0.141471
H35   H     H_    0.857676 0.149163 0.447111 0.123004
H36   H     H_    0.882903 0.249533 0.369297 0.140799
H37   H     H_    0.027827 0.230462 0.403573 0.132948
H38   H     H_    0.850837 0.708512 0.052890 0.123004
H39   H     H_    0.769540 0.797367 0.096426 0.132947
H40   H     H_    0.750466 0.633372 0.130703 0.140799
H41   H     H_    0.291486 0.142322 0.447110 0.123003
H42   H     H_    0.366634 0.117100 0.369298 0.140798
H43   H     H_    0.202637 0.972173 0.403571 0.132950
H44   H     H_    0.267813 0.369684 0.448462 0.141470
H45   H     H_    0.101872 0.732187 0.051538 0.141470
H46   H     H_    0.072229 0.711573 0.926396 0.125557
H47   H     H_    0.288427 0.360657 0.573604 0.125557
H48   H     H_    0.639342 0.927770 0.926396 0.125557
O1    O     O_R   0.916700 0.566820 0.669930 -0.533463
O2    O     O_R   0.566820 0.916700 0.330070 -0.531741
O3    O     O_R   0.083300 0.650120 0.169930 -0.531741
O4    O     O_R   0.349880 0.433180 0.330070 -0.531741
O5    O     O_R   0.649840 0.534790 0.674920 -0.505542
O6    O     O_R   0.884950 0.350160 0.825080 -0.505541
O7    O     O_R   0.465210 0.115050 0.674920 -0.505542
O8    O     O_R   0.649840 0.534790 0.825080 -0.505542
O9    O     O_R   0.884950 0.350160 0.674920 -0.505541
O10   O     O_R   0.465210 0.115050 0.825080 -0.505542
O11   O     O_R   0.534790 0.649840 0.174920 -0.504652
O12   O     O_R   0.650120 0.083300 0.830070 -0.533462
O13   O     O_R   0.350160 0.884950 0.325080 -0.504652
O14   O     O_R   0.115050 0.465210 0.174920 -0.504652
O15   O     O_R   0.534790 0.649840 0.325080 -0.504652
O16   O     O_R   0.350160 0.884950 0.174920 -0.504653
O17   O     O_R   0.115050 0.465210 0.325080 -0.504652
O18   O     O_3   0.666667 0.333333 0.750000 -0.226938
O19   O     O_3   0.333333 0.666667 0.250000 -0.237119
O20   O     O_R   0.433180 0.349880 0.669930 -0.533463
O21   O     O_R   0.916700 0.566820 0.830070 -0.533463
O22   O     O_R   0.650120 0.083300 0.669930 -0.533462
O23   O     O_R   0.433180 0.349880 0.830070 -0.533463
O24   O     O_R   0.566820 0.916700 0.169930 -0.531741
O25   O     O_R   0.083300 0.650120 0.330070 -0.531741
O26   O     O_R   0.349880 0.433180 0.169930 -0.531741

loop_
_geom_bond_atom_site_label_1
_geom_bond_atom_site_label_2
_ccdc_geom_bond_type
Cr4   O2    S    
C29   C42   A    
Cr1   O5    S    
C3    O16   A    
C11   C24   A    
C54   H35   S    
C47   H13   S    
C44   H5    S    
C46   H10   S    
Cr5   O16   S    
C2    O4    A    
C52   H30   S    
C23   O7    A    
Cr4   O24   S    
C45   O9    A    
C31   H1    S    
C31   C43   A    
C23   O22   A    
C55   H39   S    
Cr5   O13   S    
C14   C21   A    
C5    C30   A    
C25   C38   A    
C26   C39   A    
C5    C17   A    
C59   O13   A    
Cr6   O19   S    
C28   C41   A    
C2    O15   A    
C48   H15   S    
C52   H29   S    
C1    O5    A    
Cr2   O22   S    
C9    C13   A    
Cr2   O9    S    
Cr1   O18   S    
C51   H25   S    
C12   O6    A    
C50   H24   S    
C40   H48   S    
C58   O26   A    
C48   H16   S    
C59   O2    A    
C39   H47   S    
C12   O21   A    
Cr1   O1    S    
C52   H28   S    
C56   O12   A    
C4    O17   A    
C23   C30   S    
Cr2   O6    S    
C50   H22   S    
C7    C15   A    
C34   O8    A    
Cr3   O23   S    
C47   H14   S    
C19   C32   A    
C46   H9    S    
Cr3   O7    S    
C9    C26   A    
Cr3   O10   S    
C41   H2    S    
C19   C58   S    
C32   C42   A    
C15   C20   A    
C57   H43   S    
C28   C45   S    
C55   H40   S    
Cr3   O20   S    
Cr2   O18   S    
C54   H37   S    
C60   O14   A    
C9    C49   S    
C24   C37   A    
C15   C54   S    
Cr2   O12   S    
C27   C56   S    
C53   H31   S    
C32   H12   S    
C55   H38   S    
C42   H3    S    
C53   H33   S    
C7    C28   A    
Cr1   O8    S    
C7    C47   S    
C8    C48   S    
C2    C22   S    
C37   C38   A    
C33   H23   S    
C51   H26   S    
C13   C52   S    
C45   O1    A    
C27   C40   A    
C24   C60   S    
C14   C53   S    
C17   C18   A    
C60   O3    A    
C3    O24   A    
Cr3   O18   S    
C50   H21   S    
C51   H27   S    
C20   C33   A    
C10   C25   A    
C57   H41   S    
C5    C44   S    
C43   H4    S    
C36   H44   S    
C1    C26   S    
C30   C43   A    
C3    C21   S    
C47   H11   S    
C38   H46   S    
C1    O20   A    
C10   C50   S    
C56   O10   A    
C46   H8    S    
Cr1   O21   S    
Cr6   O17   S    
C49   H18   S    
Cr4   O19   S    
C8    C14   A    
C6    C46   S    
C49   H20   S    
C54   H36   S    
C36   C39   A    
C6    C29   A    
C21   C35   A    
C53   H32   S    
C22   C36   A    
C34   O23   A    
C48   H17   S    
C12   C25   S    
C33   C41   A    
C35   C40   A    
C16   C55   S    
C4    O25   A    
C16   C19   A    
C29   C34   S    
Cr6   O14   S    
C13   C22   A    
C44   H6    S    
C44   H7    S    
Cr5   O25   S    
C37   H45   S    
C11   C51   S    
C10   C11   A    
C6    C16   A    
C4    C20   S    
C18   C59   S    
C57   H42   S    
Cr6   O26   S    
Cr4   O15   S    
C58   O11   A    
Cr4   O11   S    
Cr6   O4    S    
C8    C27   A    
Cr5   O3    S    
C18   C31   A    
C49   H19   S    
Cr5   O19   S    
C35   H34   S    
C17   C57   S    
