data_mof_unit_40202.cif
_audit_creation_date              2012-12-10T16:47:57-0500
_audit_creation_method            fapswitch 2.2
_symmetry_space_group_name_H-M    P1
_symmetry_Int_Tables_number       1
_space_group_crystal_system       triclinic
_cell_length_a                    7.867946
_cell_length_b                    8.553176
_cell_length_c                    10.675063
_cell_angle_alpha                 92.080261
_cell_angle_beta                  85.708968
_cell_angle_gamma                 93.163742
_cell_volume                      714.909235779

loop_
_atom_site_label
_atom_site_type_symbol
_atom_type_description
_atom_site_fract_x
_atom_site_fract_y
_atom_site_fract_z
_atom_type_partial_charge
C1    C     C_R   0.544945 0.794139 0.496133 0.952636
C2    C     C_2   0.568687 0.957522 0.493530 -0.304490
C3    C     C_2   0.431243 0.042358 0.501155 -0.299628
C4    C     C_R   0.501518 0.494234 0.736812 0.997249
C5    C     C_R   0.454955 0.205818 0.501695 0.950467
C6    C     C_R   0.496731 0.492203 0.262954 0.925074
C7    C     C_2   0.620462 0.417496 0.059472 -0.210936
C8    C     C_2   0.485147 0.461920 0.131928 -0.366985
C9    C     C_2   0.610575 0.398032 0.925111 0.451038
C10   C     C_2   0.509322 0.492176 0.868996 -0.405848
H1    H     H_    0.740384 0.396163 0.098514 0.188304
H2    H     H_    0.360386 0.469008 0.095822 0.164776
H3    H     H_    0.698974 0.007680 0.486634 0.219454
H4    H     H_    0.006691 0.363094 0.422368 0.150737
H5    H     H_    0.902277 0.178839 0.982359 0.357961
H6    H     H_    0.435401 0.579716 0.921092 0.145955
H7    H     H_    0.301023 0.992528 0.507563 0.231756
H8    H     H_    0.812493 0.838820 0.720621 0.392500
N1    N     N_2   0.950320 0.457950 0.466680 -0.119148
N2    N     N_2   0.049680 0.542050 0.533320 0.123332
O1    O     O_R   0.389250 0.738570 0.508180 -0.577125
O2    O     O_2   0.887763 0.324517 0.775927 -0.273312
O3    O     O_3   0.796548 0.127865 0.951478 -0.531998
O4    O     O_2   0.143693 0.785252 0.674329 -0.260473
O5    O     O_2   0.988767 0.836146 0.492260 -0.335764
O6    O     O_3   0.824852 0.727162 0.695366 -0.509822
O7    O     O_R   0.678390 0.711630 0.486820 -0.549382
O8    O     O_R   0.355470 0.513470 0.691600 -0.586035
O9    O     O_R   0.644610 0.486520 0.670240 -0.507755
O10   O     O_R   0.321610 0.288370 0.513180 -0.640884
O11   O     O_R   0.610750 0.261430 0.491820 -0.608162
O12   O     O_R   0.355390 0.513480 0.329760 -0.647505
O13   O     O_R   0.644530 0.486530 0.308400 -0.630573
O14   O     O_2   0.627278 0.158054 0.755765 -0.296002
S1    S     S_3+6 0.733113 0.250675 0.846619 0.050384
S2    S     S_3+6 0.000815 0.725283 0.596934 0.181761
Zn1   Zn    Zn3+2 0.306940 0.517990 0.514260 1.088123
Zn2   Zn    Zn3+2 0.693060 0.482010 0.485740 1.090320

loop_
_geom_bond_atom_site_label_1
_geom_bond_atom_site_label_2
_ccdc_geom_bond_type
O9    Zn2   S    
C6    O12   A    
C6    O13   A    
C1    O1    A    
O2    S1    D    
N1    Zn2   S    
C9    C10   D    
C4    O9    A    
H8    O6    S    
O11   Zn2   S    
C8    H2    S    
N1    N2    D    
H5    O3    S    
C2    C3    D    
C7    C8    D    
C10   H6    S    
O12   Zn1   S    
C7    H1    S    
N2    Zn1   S    
O4    S2    D    
O8    Zn1   S    
C1    C2    S    
O6    S2    S    
C4    O8    A    
C3    H7    S    
O3    S1    S    
O14   S1    D    
O5    S2    D    
C4    C10   S    
N2    S2    S    
C7    C9    S    
O1    Zn1   S    
C1    O7    A    
C5    O10   A    
C9    S1    S    
C2    H3    S    
C6    C8    S    
O7    Zn2   S    
C3    C5    S    
H4    N1    S    
O13   Zn2   S    
O10   Zn1   S    
C5    O11   A    
