data_mof_unit_61430.cif
_audit_creation_date              2012-12-10T16:40:41-0500
_audit_creation_method            fapswitch 2.2
_symmetry_space_group_name_H-M    P1
_symmetry_Int_Tables_number       1
_space_group_crystal_system       triclinic
_cell_length_a                    10.82119
_cell_length_b                    10.827678
_cell_length_c                    19.506597
_cell_angle_alpha                 97.338529
_cell_angle_beta                  91.85051
_cell_angle_gamma                 98.432653
_cell_volume                      2239.2930671

loop_
_atom_site_label
_atom_site_type_symbol
_atom_type_description
_atom_site_fract_x
_atom_site_fract_y
_atom_site_fract_z
_atom_type_partial_charge
C1    C     C_R   0.475261 0.161858 0.484278 0.866883
C2    C     C_2   0.499023 0.464856 0.016599 -0.208590
C3    C     C_2   0.470274 0.558260 0.983001 -0.231123
C4    C     C_R   0.524548 0.839026 0.515572 0.887042
C5    C     C_R   0.478378 0.525300 0.763507 0.002337
C6    C     C_2   0.533466 0.975270 0.522004 -0.351546
C7    C     C_2   0.466375 0.027256 0.478159 -0.280067
C8    C     C_2   0.972150 0.536511 0.521722 -0.344296
C9    C     C_2   0.030467 0.462172 0.478223 -0.287335
C10   C     C_R   0.164204 0.472581 0.484204 0.860130
C11   C     C_R   0.836900 0.526593 0.515504 0.886716
C12   C     C_R   0.507504 0.472976 0.092656 0.159286
C13   C     C_R   0.486411 0.514304 0.688396 0.791350
C14   C     C_R   0.511965 0.485191 0.311739 0.825295
C15   C     C_R   0.515076 0.478338 0.236717 -0.045379
C16   C     C_R   0.519852 0.590375 0.207587 -0.228067
C17   C     C_R   0.517634 0.588246 0.136274 -0.134629
C18   C     C_R   0.505553 0.361069 0.121884 -0.197053
C19   C     C_R   0.509128 0.362620 0.193528 0.150990
C20   C     C_R   0.415851 0.433978 0.866232 -0.156467
C21   C     C_R   0.420329 0.423639 0.794538 -0.205485
C22   C     C_R   0.528213 0.638680 0.804739 -0.193687
C23   C     C_R   0.521647 0.649692 0.876280 -0.171295
C24   C     C_R   0.468152 0.546671 0.907375 0.195508
H1    H     H_    0.526002 0.680106 0.240263 0.167880
H2    H     H_    0.516371 0.377667 0.986866 0.151475
H3    H     H_    0.024628 0.604789 0.561894 0.149422
H4    H     H_    0.371493 0.354305 0.889477 0.136553
H5    H     H_    0.524708 0.677401 0.116320 0.139968
H6    H     H_    0.561412 0.737414 0.907528 0.135424
H7    H     H_    0.594919 0.033600 0.562591 0.147889
H8    H     H_    0.405178 0.971181 0.436815 0.171442
H9    H     H_    0.980364 0.393670 0.437451 0.168635
H10   H     H_    0.380429 0.335765 0.763528 0.160547
H11   H     H_    0.571836 0.718914 0.781672 0.160337
H12   H     H_    0.454251 0.647494 0.010382 0.151748
H13   H     H_    0.498340 0.271658 0.088844 0.151453
I1    I     I_    0.493972 0.185691 0.231371 -0.371570
O1    O     O_3   0.500000 0.500000 0.500000 -0.498561
O2    O     O_R   0.410860 0.431690 0.648970 -0.644504
O3    O     O_R   0.578570 0.421470 0.344370 -0.614220
O4    O     O_R   0.567340 0.590030 0.662290 -0.648132
O5    O     O_R   0.443230 0.556810 0.344370 -0.643026
O6    O     O_R   0.229880 0.548640 0.449830 -0.630401
O7    O     O_R   0.775840 0.445670 0.468570 -0.637117
O8    O     O_R   0.404020 0.217050 0.524780 -0.637881
O9    O     O_R   0.590260 0.788640 0.556820 -0.646614
O10   O     O_R   0.555650 0.222860 0.449830 -0.617753
O11   O     O_R   0.450070 0.771450 0.468560 -0.638402
O12   O     O_R   0.213590 0.407490 0.524780 -0.633255
O13   O     O_R   0.780700 0.598200 0.556830 -0.644186
Zn1   Zn    Zn3+2 0.407400 0.592620 0.441700 0.980372
Zn2   Zn    Zn3+2 0.384130 0.390950 0.548790 0.973593
Zn3   Zn    Zn3+2 0.607710 0.617180 0.567810 0.967738
Zn4   Zn    Zn3+2 0.600760 0.399250 0.441700 1.000628

loop_
_geom_bond_atom_site_label_1
_geom_bond_atom_site_label_2
_ccdc_geom_bond_type
C12   C17   A    
C8    C9    D    
O10   Zn4   S    
C15   C19   A    
C23   C24   A    
O2    Zn2   S    
C1    O10   A    
C6    C7    D    
C21   H10   S    
C19   I1    S    
C17   H5    S    
C9    C10   S    
C5    C13   S    
C4    O11   A    
O13   Zn3   S    
C2    C12   S    
O6    Zn1   S    
C2    C3    D    
C2    H2    S    
O4    Zn3   S    
C9    H9    S    
C22   H11   S    
C3    C24   S    
O1    Zn2   S    
C3    H12   S    
C8    C11   S    
O8    Zn2   S    
C13   O4    A    
C18   H13   S    
O1    Zn1   S    
O9    Zn3   S    
C14   O3    A    
C1    O8    A    
C16   C17   A    
O5    Zn1   S    
C11   O7    A    
O1    Zn3   S    
C11   O13   A    
C10   O6    A    
C15   C16   A    
O12   Zn2   S    
C23   H6    S    
C5    C21   A    
C20   C21   A    
O7    Zn4   S    
C4    C6    S    
C18   C19   A    
C12   C18   A    
C16   H1    S    
C8    H3    S    
C14   C15   S    
O3    Zn4   S    
C13   O2    A    
C6    H7    S    
C7    H8    S    
C20   H4    S    
C1    C7    S    
C22   C23   A    
O1    Zn4   S    
C5    C22   A    
C20   C24   A    
O11   Zn1   S    
C14   O5    A    
C4    O9    A    
C10   O12   A    
