data_mof_unit_9762.cif
_audit_creation_date              2012-12-11T14:17:30-0500
_audit_creation_method            fapswitch 2.2
_symmetry_space_group_name_H-M    P1
_symmetry_Int_Tables_number       1
_space_group_crystal_system       triclinic
_cell_length_a                    6.932661
_cell_length_b                    13.633467
_cell_length_c                    20.4041
_cell_angle_alpha                 101.956181
_cell_angle_beta                  90.080195
_cell_angle_gamma                 90.611908
_cell_volume                      1886.56099274

loop_
_atom_site_label
_atom_site_type_symbol
_atom_type_description
_atom_site_fract_x
_atom_site_fract_y
_atom_site_fract_z
_atom_type_partial_charge
O1    O     O_R   0.506860 0.599390 0.449240 -0.536455
O2    O     O_R   0.180220 0.594600 0.586780 -0.541807
O3    O     O_R   0.004500 0.400610 0.550760 -0.542862
C1    C     C_R   0.348434 0.616086 0.613279 0.746556
O4    O     O_R   0.177490 0.611290 0.451970 -0.540065
O5    O     O_R   0.001750 0.417420 0.414990 -0.550547
C2    C     C_R   0.347094 0.638514 0.435584 0.704750
O6    O     O_R   0.509610 0.582580 0.585010 -0.543454
O7    O     O_3   0.337420 0.436370 0.488020 -0.375853
V1    V     V_3+5 0.064680 0.511800 0.502220 1.396019
O8    O     O_R   0.671710 0.405400 0.413220 -0.541209
C3    C     C_R   0.839473 0.381365 0.387298 0.644253
O9    O     O_R   0.674440 0.388710 0.548030 -0.540532
C4    C     C_R   0.842815 0.363107 0.566074 0.702795
V2    V     V_3+5 0.564010 0.488200 0.497780 1.397510
O10   O     O_3   0.841140 0.563630 0.511980 -0.366388
C5    C     C_R   0.010339 0.131607 0.619183 -0.192222
H1    H     H_    0.027038 0.190144 0.529926 0.128650
H2    H     H_    0.073980 0.011921 0.703855 0.134302
H3    H     H_    0.091481 0.065389 0.597366 0.124154
C6    C     C_R   0.856496 0.284636 0.605647 -0.059186
C7    C     C_R   0.807784 0.314244 0.927892 0.449645
C8    C     C_R   0.800256 0.389776 0.890756 -0.197905
C9    C     C_R   0.821990 0.366623 0.821402 -0.271255
C10   C     C_R   0.849098 0.266857 0.786973 0.088614
C11   C     C_R   0.887859 0.193522 0.825570 0.005620
C12   C     C_R   0.859930 0.240047 0.715623 0.057513
C13   C     C_R   0.957811 0.150573 0.686746 0.127195
C14   C     C_R   0.004569 0.081362 0.725801 -0.227580
C15   C     C_R   0.960944 0.100072 0.793516 -0.205575
C16   C     C_R   0.780727 0.298028 0.671403 0.053478
C17   C     C_R   0.970855 0.201523 0.580407 -0.208369
C18   C     C_R   0.858979 0.216639 0.895742 -0.186578
H4    H     H_    0.822994 0.427975 0.795169 0.125719
H5    H     H_    0.777751 0.466913 0.915784 0.131053
H6    H     H_    0.995388 0.042651 0.821056 0.139330
C19   C     C_2   0.991754 0.302024 0.280195 -0.224283
C20   C     C_2   0.843739 0.303714 0.323612 0.312159
H7    H     H_    0.106882 0.357600 0.292025 0.084876
C21   C     C_2   0.010558 0.226944 0.215932 -0.098056
C22   C     C_2   0.857709 0.188990 0.177760 -0.247262
H8    H     H_    0.155358 0.207885 0.197800 0.116824
H9    H     H_    0.713721 0.213696 0.193169 0.158414
C23   C     C_2   0.211384 0.783355 0.783520 0.306750
C24   C     C_2   0.364744 0.836638 0.813549 0.192769
C25   C     C_2   0.214390 0.742490 0.709270 0.101828
C26   C     C_2   0.353264 0.676339 0.682382 -0.306407
H10   H     H_    0.468460 0.659651 0.714418 0.118441
C27   C     C_R   0.433059 0.888596 0.389239 0.156586
H11   H     H_    0.428268 0.832861 0.480927 0.103955
H12   H     H_    0.469561 0.011751 0.300221 0.157627
C28   C     C_R   0.360312 0.716428 0.396160 -0.061407
C29   C     C_R   0.315266 0.686784 0.073227 -0.166269
C30   C     C_R   0.295754 0.612048 0.109805 -0.116460
C31   C     C_R   0.312070 0.634971 0.179394 -0.154411
C32   C     C_R   0.349396 0.734581 0.214649 0.090054
C33   C     C_R   0.373230 0.810315 0.176527 0.067715
C34   C     C_R   0.364926 0.761206 0.286187 0.045087
C35   C     C_R   0.410769 0.862319 0.318222 0.109231
C36   C     C_R   0.434987 0.934411 0.278614 -0.197610
C37   C     C_R   0.414910 0.909235 0.209552 -0.198837
C38   C     C_R   0.337246 0.690168 0.326926 -0.220477
C39   C     C_R   0.409112 0.814397 0.426999 -0.205152
C40   C     C_R   0.354263 0.785562 0.105795 -0.075092
H13   H     H_    0.299916 0.612977 0.306630 0.096923
H14   H     H_    0.299821 0.667575 0.019201 0.103273
H15   H     H_    0.295833 0.572465 0.203677 0.103568
H16   H     H_    0.266802 0.535539 0.084039 0.121941
H17   H     H_    0.434310 0.968602 0.182101 0.121499
O11   O     O_R   0.203230 0.917310 0.915020 -0.524223
O12   O     O_R   0.535500 0.888690 0.048040 -0.543420
O13   O     O_R   0.711080 0.082610 0.085000 -0.546795
C41   C     C_R   0.366177 0.862269 0.065103 0.684561
O14   O     O_R   0.532630 0.905370 0.913230 -0.529619
O15   O     O_R   0.708190 0.099410 0.949230 -0.546171
C42   C     C_R   0.364678 0.887799 0.885447 0.693284
O16   O     O_R   0.206120 0.900510 0.050790 -0.537445
O17   O     O_3   0.375360 0.063570 0.011990 -0.384938
V3    V     V_3+5 0.648170 0.988200 0.997780 1.461883
O18   O     O_R   0.038240 0.111390 0.951940 -0.548381
C43   C     C_R   0.869528 0.138333 0.935353 0.752651
O19   O     O_R   0.041120 0.094710 0.086750 -0.544139
C44   C     C_R   0.872495 0.117052 0.112965 0.736024
V4    V     V_3+5 0.148810 0.011930 0.002180 1.449155
O20   O     O_3   0.871750 0.936430 0.988010 -0.357150
O21   O     O_3   0.715950 0.222316 0.313970 -0.552214
C45   C     C_3   0.522346 0.253248 0.312908 -0.246313
H18   H     H_    0.504885 0.322742 0.292806 0.110896
H19   H     H_    0.458308 0.262323 0.363619 0.172191
H20   H     H_    0.438681 0.192995 0.279619 0.139715
O22   O     O_3   0.043332 0.779552 0.820362 -0.549412
C46   C     C_3   0.954862 0.683887 0.803269 -0.213512
H21   H     H_    0.060704 0.622440 0.801421 0.103546
H22   H     H_    0.875262 0.674630 0.755092 0.141992
H23   H     H_    0.847573 0.677194 0.842437 0.162252
O23   O     O_3   0.530540 0.842947 0.776437 -0.559175
C47   C     C_3   0.548370 0.941093 0.764770 -0.225931
H24   H     H_    0.590957 0.995111 0.811259 0.146453
H25   H     H_    0.413295 0.966010 0.743853 0.111487
H26   H     H_    0.663596 0.941857 0.727252 0.167349
C48   C     C_3   0.057670 0.778881 0.667902 -0.298142
C49   C     C_3   0.140538 0.831293 0.614425 -0.772070
H27   H     H_    0.255402 0.885873 0.635925 0.213613
H28   H     H_    0.202012 0.776706 0.571989 0.225046
H29   H     H_    0.023787 0.871826 0.594235 0.207614
H30   H     H_    0.959350 0.716643 0.644636 0.193523
H31   H     H_    0.965802 0.833881 0.701453 0.191287
C50   C     C_3   0.485420 0.993795 0.426687 -0.363470
C51   C     C_3   0.309701 0.061835 0.435888 -0.757285
H32   H     H_    0.247951 0.068884 0.386907 0.228881
H33   H     H_    0.197115 0.031041 0.464934 0.225484
H34   H     H_    0.352631 0.137733 0.463887 0.213923
H35   H     H_    0.543254 0.992074 0.477314 0.179264
H36   H     H_    0.603233 0.026431 0.400898 0.190104
C52   C     C_3   0.595735 0.357758 0.688070 -0.396510
C53   C     C_3   0.422592 0.301479 0.650787 -0.666138
H37   H     H_    0.444937 0.282683 0.595876 0.234071
H38   H     H_    0.396672 0.230604 0.668370 0.218780
H39   H     H_    0.291750 0.348402 0.661259 0.204681
H40   H     H_    0.555497 0.369248 0.741376 0.189300
H41   H     H_    0.611627 0.433264 0.676106 0.168467
O24   O     O_3   0.786494 0.337308 0.996809 -0.563776
C54   C     C_3   0.591329 0.359276 0.012179 -0.253181
H42   H     H_    0.493904 0.296906 0.987538 0.142506
H43   H     H_    0.548885 0.430790 0.998353 0.133935
H44   H     H_    0.572059 0.368595 0.067085 0.158377

loop_
_geom_bond_atom_site_label_1
_geom_bond_atom_site_label_2
_ccdc_geom_bond_type
C34   C38   A    
C31   C32   A    
C48   H31   S    
C48   C49   S    
C52   H41   S    
O18   V4    S    
O12   V3    S    
C47   H24   S    
C54   H42   S    
C29   C30   A    
C53   H37   S    
C6    C16   A    
C19   C20   D    
O14   C42   A    
C20   O21   S    
C24   C42   S    
C27   C39   A    
C4    C6    S    
C13   C14   A    
C2    C28   S    
C19   C21   S    
C51   H33   S    
O5    C3    A    
C29   C40   A    
C54   H43   S    
C30   H16   S    
V2    O10   S    
C22   C44   S    
C5    H3    S    
C50   C51   S    
C49   H29   S    
C50   H36   S    
C47   H25   S    
C30   C31   A    
O8    V2    S    
C53   H38   S    
C40   C41   S    
O1    V2    S    
O11   V4    S    
O7    V1    S    
C1    O6    A    
C21   H8    S    
C35   C36   A    
O1    C2    A    
O9    C4    A    
C3    C20   S    
H11   C39   S    
C22   H9    S    
C16   C52   S    
C6    C17   A    
C23   C25   S    
C7    O24   S    
C27   C50   S    
C25   C48   S    
C12   C16   A    
C9    C10   A    
C51   H34   S    
O22   C46   S    
O12   C41   A    
O17   V3    S    
O15   C43   A    
C54   H44   S    
O16   V4    S    
C34   C35   A    
O19   C44   A    
C46   H23   S    
C9    H4    S    
C36   C37   A    
C50   H35   S    
O2    C1    A    
C14   C15   A    
C11   C18   A    
C26   H10   S    
C8    C9    A    
O23   C47   S    
C46   H22   S    
V4    O20   S    
C49   H28   S    
C29   H14   S    
C23   O22   S    
O3    C4    A    
C21   C22   D    
C11   C15   A    
O6    V2    S    
C8    H5    S    
O14   V3    S    
C45   H19   S    
O11   C42   A    
C10   C12   A    
H1    C17   S    
C32   C33   A    
O2    V1    S    
V3    O20   S    
C47   H26   S    
C23   C24   D    
C33   C40   A    
O4    C2    A    
C37   H17   S    
C48   H30   S    
C7    C18   A    
C25   C26   D    
C38   H13   S    
O21   C45   S    
C5    C13   A    
O18   C43   A    
C28   C39   A    
O5    V1    S    
C31   H15   S    
O8    C3    A    
C33   C37   A    
O13   V3    S    
O19   V4    S    
C27   C35   A    
C53   H39   S    
C15   H6    S    
O9    V2    S    
C10   C11   A    
O4    V1    S    
C19   H7    S    
O3    V1    S    
V1    O10   S    
C51   H32   S    
O15   V3    S    
C46   H21   S    
C32   C34   A    
O7    V2    S    
C49   H27   S    
O13   C44   A    
O17   V4    S    
C45   H18   S    
C52   H40   S    
C45   H20   S    
C12   C13   A    
C5    C17   A    
C41   O16   A    
C7    C8    A    
C28   C38   A    
H12   C36   S    
O24   C54   S    
C24   O23   S    
C18   C43   S    
C52   C53   S    
C1    C26   S    
H2    C14   S    
