data_mof_unit_47141.cif
_audit_creation_date              2012-12-10T20:47:43-0500
_audit_creation_method            fapswitch 2.2
_symmetry_space_group_name_H-M    P1
_symmetry_Int_Tables_number       1
_space_group_crystal_system       triclinic
_cell_length_a                    14.887322
_cell_length_b                    9.255619
_cell_length_c                    8.127999
_cell_angle_alpha                 90.179521
_cell_angle_beta                  91.831292
_cell_angle_gamma                 88.294841
_cell_volume                      1118.89783012

loop_
_atom_site_label
_atom_site_type_symbol
_atom_type_description
_atom_site_fract_x
_atom_site_fract_y
_atom_site_fract_z
_atom_type_partial_charge
C1    C     C_R   0.500105 0.217510 0.499845 0.909087
C2    C     C_R   0.231498 0.503703 0.490366 -0.046749
C3    C     C_R   0.909745 0.363613 0.486020 -0.063488
C4    C     C_R   0.088867 0.630369 0.479939 -0.068957
C5    C     C_R   0.903840 0.625760 0.521187 -0.062234
C6    C     C_R   0.097321 0.368355 0.500103 -0.057187
C7    C     C_R   0.953287 0.495573 0.501718 -0.062672
C8    C     C_R   0.046638 0.498088 0.495170 -0.066690
C9    C     C_R   0.961342 0.235884 0.462497 0.371536
C10   C     C_R   0.036317 0.757539 0.470741 0.381934
C11   C     C_R   0.948065 0.756321 0.524094 0.366233
C12   C     C_R   0.499905 0.782490 0.500158 0.911533
C13   C     C_R   0.053786 0.237221 0.502215 0.364551
C14   C     C_1   0.500042 0.064531 0.499792 -0.194308
C15   C     C_1   0.499975 0.935470 0.500222 -0.192327
C16   C     C_3   0.879392 0.116921 0.259453 0.124409
C17   C     C_3   0.801917 0.012547 0.252639 -0.783565
C18   C     C_3   0.071477 0.863133 0.230941 0.156508
C19   C     C_3   0.119014 0.989843 0.158529 -0.799885
C20   C     C_3   0.898112 0.891183 0.737789 0.133264
C21   C     C_3   0.855198 0.036312 0.782842 -0.799387
C22   C     C_3   0.127268 0.097881 0.697329 0.139460
C23   C     C_R   0.326614 0.505048 0.497300 0.864693
C24   C     C_3   0.200152 0.979758 0.718652 -0.807822
C25   C     C_R   0.673372 0.494953 0.502699 0.863018
C26   C     C_R   0.810936 0.623834 0.525775 -0.210515
C27   C     C_R   0.190511 0.372017 0.499122 -0.197463
C28   C     C_R   0.816363 0.363306 0.494124 -0.222863
C29   C     C_R   0.182114 0.632664 0.474486 -0.230041
C30   C     C_R   0.768549 0.493488 0.509570 -0.043944
H1    H     H_    0.770903 0.723342 0.534477 0.161442
H2    H     H_    0.002003 0.859516 0.176751 0.114700
H3    H     H_    0.109083 0.762889 0.194259 0.116743
H4    H     H_    0.190216 0.989652 0.203743 0.258118
H5    H     H_    0.116713 0.979470 0.023276 0.177808
H6    H     H_    0.085564 0.093832 0.192264 0.260124
H7    H     H_    0.966017 0.881685 0.799208 0.107148
H8    H     H_    0.855542 0.804882 0.785620 0.124812
H9    H     H_    0.900093 0.125230 0.752908 0.248896
H10   H     H_    0.843899 0.039726 0.916143 0.185992
H11   H     H_    0.789610 0.052414 0.715401 0.256140
H12   H     H_    0.231771 0.273395 0.502796 0.163591
H13   H     H_    0.067704 0.069307 0.767608 0.132669
H14   H     H_    0.154492 0.199122 0.750924 0.115474
H15   H     H_    0.234382 0.988725 0.841399 0.204627
H16   H     H_    0.169911 0.871954 0.708356 0.247804
H17   H     H_    0.251449 0.990240 0.623416 0.258186
H18   H     H_    0.780348 0.263427 0.487542 0.157138
H19   H     H_    0.216505 0.733715 0.463878 0.165141
H20   H     H_    0.927978 0.085834 0.164402 0.128273
H21   H     H_    0.852083 0.226308 0.225459 0.114962
H22   H     H_    0.760531 0.026060 0.363209 0.259936
H23   H     H_    0.757659 0.033843 0.142524 0.195747
H24   H     H_    0.828526 0.899305 0.247788 0.250940
N1    N     N_1   0.500000 0.500000 0.073640 -0.037247
N2    N     N_1   0.500000 0.500000 0.926360 -0.037209
O1    O     O_R   0.500000 0.285350 0.636850 -0.615942
O2    O     O_3   0.069324 0.880017 0.403617 -0.502308
O3    O     O_3   0.903350 0.882641 0.564924 -0.529794
O4    O     O_3   0.102906 0.110818 0.528307 -0.525327
O5    O     O_R   0.500000 0.714650 0.363150 -0.615116
O6    O     O_R   0.500000 0.714650 0.636850 -0.615703
O7    O     O_R   0.500000 0.285350 0.363150 -0.615667
O8    O     O_R   0.367850 0.500000 0.636890 -0.616682
O9    O     O_R   0.632150 0.500000 0.363110 -0.616891
O10   O     O_R   0.632150 0.500000 0.636890 -0.620535
O11   O     O_R   0.367850 0.500000 0.363110 -0.618543
O12   O     O_3   0.922431 0.107939 0.417393 -0.501954
Zn1   Zn    Zn3+2 0.500000 0.500000 0.682780 0.992746
Zn2   Zn    Zn3+2 0.500000 0.500000 0.317220 0.993633

loop_
_geom_bond_atom_site_label_1
_geom_bond_atom_site_label_2
_ccdc_geom_bond_type
O5    Zn2   S    
C6    C8    A    
N1    N2    T    
C12   C15   S    
C5    C11   A    
C2    C27   A    
C16   O12   S    
C20   H7    S    
C12   O6    A    
C4    C29   A    
C21   H9    S    
O7    Zn2   S    
C4    C8    A    
O11   Zn2   S    
C24   H16   S    
C2    C23   S    
C28   C30   A    
C9    O12   S    
C25   O9    A    
C26   H1    S    
C13   O4    S    
C19   H5    S    
O8    Zn1   S    
C6    C13   A    
C12   O5    A    
C27   H12   S    
C6    C27   A    
C21   H10   S    
C22   H14   S    
C2    C29   A    
C11   O3    S    
C24   H15   S    
C1    O7    A    
C17   H22   S    
C3    C28   A    
C10   O2    S    
C16   H20   S    
C26   C30   A    
C3    C7    A    
C19   H6    S    
C22   O4    S    
C18   H3    S    
C22   C24   S    
C3    C9    A    
N1    Zn2   S    
C18   H2    S    
C10   C11   A    
C4    C10   A    
C5    C26   A    
O10   Zn1   S    
C17   H23   S    
C7    C8    A    
C20   H8    S    
C20   C21   S    
C5    C7    A    
C18   C19   S    
C21   H11   S    
C23   O11   A    
C25   C30   S    
N2    Zn1   S    
C9    C13   A    
C14   C15   T    
C23   O8    A    
C16   H21   S    
C29   H19   S    
C1    C14   S    
O1    Zn1   S    
C24   H17   S    
C17   H24   S    
C18   O2    S    
C22   H13   S    
C28   H18   S    
C25   O10   A    
O9    Zn2   S    
O6    Zn1   S    
C16   C17   S    
C20   O3    S    
C19   H4    S    
C1    O1    A    
