data_mof_unit_26199.cif
_audit_creation_date              2012-12-11T15:06:50-0500
_audit_creation_method            fapswitch 2.2
_symmetry_space_group_name_H-M    P1
_symmetry_Int_Tables_number       1
_space_group_crystal_system       triclinic
_cell_length_a                    19.712723
_cell_length_b                    11.288144
_cell_length_c                    18.710203
_cell_angle_alpha                 90.117585
_cell_angle_beta                  90.119563
_cell_angle_gamma                 89.870855
_cell_volume                      4163.36704815

loop_
_atom_site_label
_atom_site_type_symbol
_atom_type_description
_atom_site_fract_x
_atom_site_fract_y
_atom_site_fract_z
_atom_type_partial_charge
C1    C     C_R   0.761371 0.523444 0.639170 0.534472
C2    C     C_R   0.238637 0.523781 0.360793 0.535310
C3    C     C_R   0.261371 0.023444 0.639170 0.534472
C4    C     C_R   0.738637 0.023781 0.360793 0.535310
C5    C     C_3   0.810542 0.130978 0.449228 -0.260467
C6    C     C_3   0.189311 0.130879 0.550960 -0.260178
C7    C     C_3   0.310542 0.630978 0.449228 -0.260468
C8    C     C_3   0.689312 0.630879 0.550960 -0.260178
C9    C     C_3   0.746979 0.056857 0.436784 0.066129
C10   C     C_3   0.252944 0.056546 0.563201 0.066214
C11   C     C_3   0.246979 0.556857 0.436784 0.066128
C12   C     C_3   0.752945 0.556546 0.563201 0.066214
C13   C     C_3   0.760194 0.090351 0.574259 0.065864
C14   C     C_3   0.239785 0.090397 0.425748 0.065599
C15   C     C_3   0.260194 0.590351 0.574259 0.065864
C16   C     C_3   0.739785 0.590398 0.425748 0.065599
C17   C     C_3   0.753715 0.957658 0.561758 -0.262582
C18   C     C_3   0.246387 0.957625 0.437888 -0.262058
C19   C     C_3   0.253716 0.457659 0.561759 -0.262581
C20   C     C_3   0.746387 0.457625 0.437888 -0.262057
C21   C     C_3   0.822943 0.133388 0.530167 -0.216354
C22   C     C_3   0.176991 0.133595 0.470000 -0.216306
C23   C     C_3   0.322943 0.633388 0.530167 -0.216353
C24   C     C_3   0.676991 0.633596 0.470000 -0.216307
C25   C     C_3   0.003970 0.204454 0.458761 -0.232130
C26   C     C_3   0.996079 0.204271 0.540745 -0.232840
C27   C     C_3   0.503970 0.704454 0.458761 -0.232131
C28   C     C_3   0.496080 0.704271 0.540745 -0.232841
C29   C     C_3   0.064405 0.406069 0.474575 -0.214368
C30   C     C_3   0.935518 0.406032 0.525615 -0.214016
C31   C     C_3   0.564406 0.906069 0.474575 -0.214367
C32   C     C_3   0.435519 0.906032 0.525615 -0.214016
C33   C     C_3   0.941777 0.390665 0.444515 -0.261997
C34   C     C_3   0.058212 0.390182 0.555600 -0.261551
C35   C     C_3   0.441778 0.890665 0.444516 -0.261997
C36   C     C_3   0.558212 0.890182 0.555601 -0.261551
C37   C     C_3   0.010550 0.333202 0.430933 0.064663
C38   C     C_3   0.989479 0.332886 0.569023 0.064336
C39   C     C_3   0.510550 0.833202 0.430934 0.064663
C40   C     C_3   0.489480 0.832886 0.569023 0.064336
C41   C     C_3   0.814391 0.010786 0.044622 -0.221476
C42   C     C_3   0.178922 0.030828 0.951444 -0.226744
C43   C     C_3   0.314391 0.510786 0.044622 -0.221476
C44   C     C_3   0.678921 0.530828 0.951444 -0.226744
C45   C     C_R   0.774181 0.120858 0.649535 0.538970
C46   C     C_R   0.225791 0.121055 0.350491 0.537777
C47   C     C_R   0.274181 0.620858 0.649535 0.538969
C48   C     C_R   0.725791 0.621056 0.350491 0.537777
C49   C     C_3   0.816906 0.017595 0.964411 -0.232919
C50   C     C_3   0.176379 0.037397 0.031790 -0.222412
C51   C     C_3   0.316906 0.517595 0.964411 -0.232919
C52   C     C_3   0.676379 0.537397 0.031790 -0.222412
C53   C     C_3   0.684174 0.037435 0.031389 -0.205679
C54   C     C_3   0.305562 0.014399 0.967621 -0.217408
C55   C     C_3   0.184174 0.537435 0.031389 -0.205679
C56   C     C_3   0.805562 0.514399 0.967621 -0.217408
C57   C     C_3   0.757799 0.201992 0.063764 -0.261873
C58   C     C_3   0.253182 0.206135 0.938406 -0.255665
C59   C     C_3   0.257799 0.701992 0.063764 -0.261873
C60   C     C_3   0.753182 0.706135 0.938406 -0.255665
C61   C     C_3   0.748722 0.069988 0.075079 0.053376
C62   C     C_3   0.249039 0.074015 0.923764 0.053611
C63   C     C_3   0.248722 0.569988 0.075079 0.053376
C64   C     C_3   0.749039 0.574015 0.923764 0.053611
C65   C     C_3   0.761958 0.104799 0.936492 0.024577
C66   C     C_3   0.237956 0.106823 0.063053 0.045368
C67   C     C_3   0.261958 0.604799 0.936492 0.024577
C68   C     C_3   0.737956 0.606823 0.063053 0.045368
C69   C     C_3   0.693775 0.048992 0.949729 -0.215548
C70   C     C_3   0.298631 0.027079 0.049799 -0.255873
C71   C     C_3   0.193775 0.548992 0.949729 -0.215548
C72   C     C_3   0.798631 0.527079 0.049799 -0.255873
C73   C     C_3   0.763613 0.219955 0.981851 -0.241980
C74   C     C_3   0.253311 0.223290 0.020689 -0.221413
C75   C     C_3   0.263613 0.719955 0.981851 -0.241980
C76   C     C_3   0.753311 0.723290 0.020689 -0.221413
C77   C     C_3   0.011285 0.480519 0.038308 0.256604
C78   C     C_3   0.000843 0.481006 0.957842 0.260897
C79   C     C_3   0.511285 0.980519 0.038308 0.256604
C80   C     C_3   0.500843 0.981006 0.957842 0.260897
C81   C     C_3   0.062150 0.271030 0.026595 -0.281711
C82   C     C_3   0.932928 0.296867 0.973069 -0.283862
C83   C     C_3   0.562150 0.771030 0.026595 -0.281711
C84   C     C_3   0.432928 0.796867 0.973069 -0.283862
C85   C     C_3   0.942050 0.300774 0.055046 -0.262502
C86   C     C_3   0.054674 0.281956 0.944822 -0.261856
C87   C     C_3   0.442050 0.800774 0.055046 -0.262502
C88   C     C_3   0.554674 0.781956 0.944822 -0.261856
C89   C     C_R   0.969141 0.341994 0.644985 0.536934
C90   C     C_R   0.030892 0.342222 0.355017 0.536509
C91   C     C_R   0.469141 0.841994 0.644985 0.536934
C92   C     C_R   0.530892 0.842222 0.355017 0.536510
C93   C     C_3   0.011981 0.352139 0.068714 0.039469
C94   C     C_3   0.990809 0.352965 0.929917 0.045444
C95   C     C_3   0.511981 0.852139 0.068714 0.039469
C96   C     C_3   0.490809 0.852965 0.929917 0.045444
C97   C     C_R   0.759272 0.537066 0.847382 0.526792
C98   C     C_R   0.239506 0.533600 0.151200 0.531964
C99   C     C_R   0.259272 0.037066 0.847382 0.526792
C100  C     C_R   0.739506 0.033600 0.151200 0.531964
C101  C     C_R   0.774975 0.133787 0.859291 0.536018
C102  C     C_R   0.225057 0.134055 0.140570 0.535455
C103  C     C_R   0.274975 0.633787 0.859291 0.536018
C104  C     C_R   0.725057 0.634055 0.140570 0.535455
C105  C     C_R   0.969348 0.353337 0.853383 0.560322
C106  C     C_R   0.032271 0.353380 0.145532 0.553885
C107  C     C_R   0.469348 0.853337 0.853383 0.560322
C108  C     C_R   0.532271 0.853380 0.145532 0.553885
C109  C     C_3   0.687293 0.132235 0.465493 -0.235172
C110  C     C_3   0.312455 0.131952 0.534688 -0.234620
C111  C     C_3   0.187293 0.632235 0.465493 -0.235172
C112  C     C_3   0.812455 0.631952 0.534688 -0.234619
C113  C     C_3   0.692643 0.145048 0.546694 -0.230764
C114  C     C_3   0.307215 0.144710 0.453500 -0.230927
C115  C     C_3   0.192643 0.645048 0.546694 -0.230765
C116  C     C_3   0.807215 0.644710 0.453500 -0.230926
C117  C     C_3   0.756525 0.938940 0.480390 -0.217704
C118  C     C_3   0.243555 0.938756 0.519217 -0.217958
C119  C     C_3   0.256525 0.438940 0.480390 -0.217702
C120  C     C_3   0.743555 0.438756 0.519217 -0.217958
Cr1   Cr    Cr6+3 0.885690 0.492860 0.745310 1.016576
Cr2   Cr    Cr6+3 0.114310 0.492860 0.254690 1.020600
Cr3   Cr    Cr6+3 0.385690 0.992860 0.745310 1.016576
Cr4   Cr    Cr6+3 0.614310 0.992860 0.254690 1.020600
Cr5   Cr    Cr6+3 0.729880 0.332270 0.748190 1.010162
Cr6   Cr    Cr6+3 0.270120 0.332270 0.251810 1.010980
Cr7   Cr    Cr6+3 0.229880 0.832270 0.748190 1.010163
Cr8   Cr    Cr6+3 0.770120 0.832270 0.251810 1.010980
Cr9   Cr    Cr6+3 0.888120 0.178590 0.753010 0.997899
Cr10  Cr    Cr6+3 0.111880 0.178590 0.246990 0.998328
Cr11  Cr    Cr6+3 0.388120 0.678590 0.753010 0.997899
Cr12  Cr    Cr6+3 0.611880 0.678590 0.246990 0.998328
H1    H     H_    0.638531 0.095307 0.450491 0.131351
H2    H     H_    0.361299 0.095317 0.549737 0.131337
H3    H     H_    0.138531 0.595306 0.450492 0.131352
H4    H     H_    0.861299 0.595317 0.549737 0.131337
H5    H     H_    0.863505 0.067460 0.540297 0.126554
H6    H     H_    0.136535 0.067846 0.459653 0.126778
H7    H     H_    0.363506 0.567461 0.540297 0.126555
H8    H     H_    0.636536 0.567846 0.459653 0.126778
H9    H     H_    0.808874 0.908683 0.469342 0.126404
H10   H     H_    0.191263 0.908583 0.530134 0.125960
H11   H     H_    0.308874 0.408682 0.469341 0.126405
H12   H     H_    0.691263 0.408583 0.530134 0.125960
H13   H     H_    0.795922 0.909665 0.588525 0.121188
H14   H     H_    0.204270 0.909757 0.410964 0.121622
H15   H     H_    0.295923 0.409666 0.588525 0.121189
H16   H     H_    0.704269 0.409758 0.410964 0.121622
H17   H     H_    0.046498 0.149987 0.442037 0.131114
H18   H     H_    0.953473 0.150185 0.557187 0.130531
H19   H     H_    0.546498 0.649987 0.442037 0.131114
H20   H     H_    0.453474 0.650186 0.557187 0.130532
H21   H     H_    0.959586 0.160772 0.433869 0.107894
H22   H     H_    0.040427 0.160139 0.565493 0.107844
H23   H     H_    0.459587 0.660772 0.433869 0.107894
H24   H     H_    0.540427 0.660139 0.565493 0.107844
H25   H     H_    0.616217 0.891136 0.456113 0.110768
H26   H     H_    0.383734 0.890921 0.543961 0.111155
H27   H     H_    0.116216 0.391136 0.456112 0.110768
H28   H     H_    0.883733 0.390921 0.543961 0.111156
H29   H     H_    0.599919 0.834506 0.576746 0.105274
H30   H     H_    0.400134 0.835283 0.423070 0.105075
H31   H     H_    0.099919 0.334505 0.576745 0.105274
H32   H     H_    0.900134 0.335283 0.423070 0.105075
H33   H     H_    0.938592 0.478152 0.417705 0.124199
H34   H     H_    0.061435 0.477522 0.582795 0.124746
H35   H     H_    0.438593 0.978153 0.417706 0.124199
H36   H     H_    0.561435 0.977522 0.582795 0.124747
H37   H     H_    0.947578 0.500224 0.536166 0.130349
H38   H     H_    0.052249 0.500390 0.464431 0.129647
H39   H     H_    0.447578 0.000224 0.536166 0.130349
H40   H     H_    0.552250 0.000390 0.464431 0.129647
H41   H     H_    0.820785 0.918814 0.060553 0.146658
H42   H     H_    0.166499 0.938424 0.936492 0.147813
H43   H     H_    0.320786 0.418814 0.060553 0.146658
H44   H     H_    0.666499 0.438424 0.936492 0.147813
H45   H     H_    0.687443 0.220897 0.440400 0.107852
H46   H     H_    0.312013 0.220622 0.559951 0.107890
H47   H     H_    0.187443 0.720896 0.440400 0.107852
H48   H     H_    0.812014 0.720622 0.559951 0.107890
H49   H     H_    0.859852 0.055406 0.067387 0.121274
H50   H     H_    0.138473 0.085297 0.927380 0.118077
H51   H     H_    0.359852 0.555406 0.067387 0.121274
H52   H     H_    0.638473 0.585297 0.927380 0.118077
H53   H     H_    0.869252 0.042221 0.949548 0.141398
H54   H     H_    0.127780 0.072980 0.047852 0.140633
H55   H     H_    0.369252 0.542221 0.949548 0.141398
H56   H     H_    0.627780 0.572980 0.047852 0.140633
H57   H     H_    0.808622 0.929286 0.940648 0.121113
H58   H     H_    0.175824 0.945926 0.053915 0.121391
H59   H     H_    0.308622 0.429286 0.940648 0.121113
H60   H     H_    0.675824 0.445926 0.053915 0.121391
H61   H     H_    0.663727 0.951163 0.046182 0.095182
H62   H     H_    0.300483 0.924038 0.952143 0.107243
H63   H     H_    0.163727 0.451163 0.046182 0.095182
H64   H     H_    0.800483 0.424038 0.952143 0.107243
H65   H     H_    0.689565 0.961819 0.922656 0.130524
H66   H     H_    0.291707 0.939711 0.075564 0.103831
H67   H     H_    0.189565 0.461819 0.922656 0.130524
H68   H     H_    0.791707 0.439711 0.075564 0.103831
H69   H     H_    0.714181 0.252973 0.085637 0.119036
H70   H     H_    0.300696 0.240914 0.914592 0.123083
H71   H     H_    0.214181 0.752973 0.085637 0.119036
H72   H     H_    0.800696 0.740914 0.914592 0.123083
H73   H     H_    0.803866 0.233748 0.092149 0.105480
H74   H     H_    0.209905 0.253420 0.913434 0.103023
H75   H     H_    0.303866 0.733748 0.092149 0.105480
H76   H     H_    0.709905 0.753420 0.913434 0.103023
H77   H     H_    0.812906 0.251371 0.973028 0.120700
H78   H     H_    0.220913 0.296586 0.036766 0.107668
H79   H     H_    0.312906 0.751371 0.973028 0.120700
H80   H     H_    0.720913 0.796586 0.036766 0.107668
H81   H     H_    0.724191 0.282202 0.963294 0.127030
H82   H     H_    0.305857 0.247358 0.034907 0.136043
H83   H     H_    0.224191 0.782202 0.963294 0.127030
H84   H     H_    0.805857 0.747358 0.034907 0.136043
H85   H     H_    0.646539 0.105886 0.046396 0.142317
H86   H     H_    0.354305 0.050959 0.950701 0.139307
H87   H     H_    0.146539 0.605886 0.046396 0.142317
H88   H     H_    0.854305 0.550959 0.950701 0.139307
H89   H     H_    0.687087 0.237332 0.562552 0.138749
H90   H     H_    0.312740 0.236866 0.437807 0.138223
H91   H     H_    0.187087 0.737331 0.562553 0.138749
H92   H     H_    0.812740 0.736866 0.437807 0.138223
H93   H     H_    0.655869 0.110916 0.927139 0.225359
H94   H     H_    0.344629 0.067223 0.073395 0.214446
H95   H     H_    0.155869 0.610916 0.927139 0.225359
H96   H     H_    0.844629 0.567222 0.073395 0.214446
H97   H     H_    0.057973 0.523820 0.050842 0.174959
H98   H     H_    0.957098 0.537706 0.946054 0.185903
H99   H     H_    0.557973 0.023820 0.050842 0.174959
H100  H     H_    0.457098 0.037706 0.946054 0.185903
H101  H     H_    0.614655 0.783025 0.043760 0.111937
H102  H     H_    0.392140 0.854087 0.959537 0.094951
H103  H     H_    0.114655 0.283025 0.043760 0.111937
H104  H     H_    0.892140 0.354087 0.959537 0.094951
H105  H     H_    0.599618 0.825417 0.921130 0.159438
H106  H     H_    0.402293 0.855908 0.080679 0.164504
H107  H     H_    0.099618 0.325417 0.921130 0.159438
H108  H     H_    0.902293 0.355908 0.080679 0.164504
H109  H     H_    0.937837 0.210325 0.077910 0.109173
H110  H     H_    0.048890 0.193055 0.920202 0.116447
H111  H     H_    0.437837 0.710325 0.077910 0.109173
H112  H     H_    0.548890 0.693055 0.920202 0.116447
H113  H     H_    0.924103 0.204903 0.955349 0.145107
H114  H     H_    0.046973 0.179631 0.040104 0.140609
H115  H     H_    0.424103 0.704903 0.955349 0.145107
H116  H     H_    0.546973 0.679631 0.040104 0.140609
H117  H     H_    0.648955 0.100789 0.572352 0.109088
H118  H     H_    0.350940 0.100231 0.427791 0.109006
H119  H     H_    0.148956 0.600788 0.572352 0.109088
H120  H     H_    0.850940 0.600231 0.427791 0.109006
H121  H     H_    0.722127 0.868827 0.463344 0.109246
H122  H     H_    0.278004 0.868490 0.536038 0.109040
H123  H     H_    0.222127 0.368828 0.463345 0.109245
H124  H     H_    0.778003 0.368489 0.536038 0.109040
H125  H     H_    0.705644 0.923597 0.584299 0.105627
H126  H     H_    0.294487 0.923401 0.415242 0.105241
H127  H     H_    0.205646 0.423597 0.584300 0.105626
H128  H     H_    0.794487 0.423401 0.415242 0.105241
H129  H     H_    0.854758 0.090818 0.421538 0.124062
H130  H     H_    0.145162 0.090750 0.578491 0.124009
H131  H     H_    0.354758 0.590820 0.421538 0.124063
H132  H     H_    0.645163 0.590751 0.578492 0.124009
H133  H     H_    0.803908 0.221626 0.427921 0.104916
H134  H     H_    0.195828 0.221428 0.572616 0.104807
H135  H     H_    0.303908 0.721627 0.427921 0.104917
H136  H     H_    0.695828 0.721429 0.572616 0.104807
H137  H     H_    0.841836 0.219316 0.548231 0.111762
H138  H     H_    0.158075 0.219664 0.452261 0.111839
H139  H     H_    0.341835 0.719317 0.548231 0.111761
H140  H     H_    0.658075 0.719665 0.452261 0.111839
O1    O     O_R   0.957210 0.449410 0.665480 -0.529388
O2    O     O_R   0.042790 0.449410 0.334520 -0.530094
O3    O     O_R   0.457210 0.949410 0.665480 -0.529388
O4    O     O_R   0.542790 0.949410 0.334520 -0.530094
O5    O     O_R   0.736260 0.212010 0.826560 -0.499814
O6    O     O_R   0.263740 0.212010 0.173440 -0.499407
O7    O     O_R   0.236260 0.712010 0.826560 -0.499814
O8    O     O_R   0.763740 0.712010 0.173440 -0.499407
O9    O     O_R   0.832520 0.095300 0.836000 -0.530536
O10   O     O_R   0.167480 0.095300 0.164000 -0.530861
O11   O     O_R   0.332520 0.595300 0.836000 -0.530536
O12   O     O_R   0.667480 0.595300 0.164000 -0.530861
O13   O     O_R   0.946380 0.253940 0.826940 -0.522517
O14   O     O_R   0.053620 0.253940 0.173060 -0.521149
O15   O     O_R   0.446380 0.753940 0.826940 -0.522517
O16   O     O_R   0.553620 0.753940 0.173060 -0.521149
O17   O     O_3   0.834560 0.334570 0.748840 -0.281393
O18   O     O_3   0.165440 0.334570 0.251160 -0.284342
O19   O     O_3   0.334560 0.834570 0.748840 -0.281393
O20   O     O_3   0.665440 0.834570 0.251160 -0.284343
O21   O     O_R   0.820730 0.541240 0.668250 -0.516863
O22   O     O_R   0.179270 0.541240 0.331750 -0.516536
O23   O     O_R   0.320730 0.041240 0.668250 -0.516863
O24   O     O_R   0.679270 0.041240 0.331750 -0.516536
O25   O     O_R   0.714240 0.455060 0.663710 -0.532269
O26   O     O_R   0.285760 0.455060 0.336290 -0.531734
O27   O     O_R   0.214240 0.955060 0.663710 -0.532268
O28   O     O_R   0.785760 0.955060 0.336290 -0.531733
O29   O     O_R   0.736780 0.204870 0.675910 -0.511921
O30   O     O_R   0.263220 0.204870 0.324090 -0.512440
O31   O     O_R   0.236780 0.704870 0.675910 -0.511921
O32   O     O_R   0.763220 0.704870 0.324090 -0.512439
O33   O     O_R   0.833070 0.087590 0.673490 -0.529402
O34   O     O_R   0.166930 0.087590 0.326510 -0.528987
O35   O     O_R   0.333070 0.587590 0.673490 -0.529402
O36   O     O_R   0.666930 0.587590 0.326510 -0.528986
O37   O     O_R   0.946890 0.246800 0.676300 -0.513606
O38   O     O_R   0.053110 0.246800 0.323700 -0.513171
O39   O     O_R   0.446890 0.746800 0.676300 -0.513606
O40   O     O_R   0.553110 0.746800 0.323700 -0.513171
O41   O     O_R   0.956650 0.457120 0.827980 -0.483690
O42   O     O_R   0.043350 0.457120 0.172020 -0.473451
O43   O     O_R   0.456650 0.957120 0.827980 -0.483690
O44   O     O_R   0.543350 0.957120 0.172020 -0.473451
O45   O     O_R   0.820220 0.548390 0.818890 -0.512861
O46   O     O_R   0.179780 0.548390 0.181110 -0.512165
O47   O     O_R   0.320220 0.048390 0.818890 -0.512861
O48   O     O_R   0.679780 0.048390 0.181110 -0.512165
O49   O     O_R   0.713680 0.462770 0.826210 -0.528840
O50   O     O_R   0.286320 0.462770 0.173790 -0.528651
O51   O     O_R   0.213680 0.962770 0.826210 -0.528840
O52   O     O_R   0.786320 0.962770 0.173790 -0.528651
F1    F     F_    0.961927 0.548738 0.071151 -0.692185
F2    F     F_    0.053667 0.533667 0.922762 -0.704724
F3    F     F_    0.461927 0.048738 0.071151 -0.692185
F4    F     F_    0.553667 0.033667 0.922762 -0.704724

loop_
_geom_bond_atom_site_label_1
_geom_bond_atom_site_label_2
_ccdc_geom_bond_type
C5    H133  S    
C82   C94   S    
C119  H11   S    
C120  H12   S    
C21   H5    S    
C53   C69   S    
C104  O8    A    
C43   C63   S    
C44   C64   S    
Cr6   O6    S    
C84   H115  S    
C112  H4    S    
C63   C98   S    
Cr2   O2    S    
C19   H127  S    
C31   H40   S    
C110  H46   S    
C36   H36   S    
C30   C38   S    
Cr9   O33   S    
C56   C72   S    
C45   O33   A    
C8    H132  S    
C18   C118  S    
C81   C86   S    
C83   C88   S    
C87   H106  S    
C48   O32   A    
C74   H82   S    
C89   O1    A    
C41   C49   S    
C54   H86   S    
Cr1   O45   S    
Cr2   O42   S    
C109  H1    S    
Cr4   O48   S    
C26   C38   S    
Cr10  O34   S    
C14   C114  S    
Cr11  O39   S    
C60   C76   S    
C24   H8    S    
Cr8   O52   S    
C69   H93   S    
C30   H37   S    
C6    C10   S    
C54   C70   S    
C48   O36   A    
C68   C72   S    
C23   H139  S    
C97   O45   A    
C13   C21   S    
C99   O47   A    
C79   H99   S    
C31   H25   S    
C64   C97   S    
C36   H29   S    
C15   C115  S    
C20   C120  S    
C1    O25   A    
C77   H97   S    
C70   H94   S    
Cr4   O20   S    
C57   C61   S    
C82   C85   S    
Cr6   O50   S    
C59   C63   S    
Cr11  O19   S    
C60   C64   S    
Cr9   O13   S    
C13   C45   S    
C102  O6    A    
C78   C94   S    
C43   H51   S    
C95   C108  S    
C113  H89   S    
C62   C99   S    
C107  O43   A    
C5    C21   S    
C58   H70   S    
C28   C40   S    
C31   C36   S    
C47   O35   A    
C4    O28   A    
C55   C71   S    
C90   O38   A    
C54   H62   S    
Cr1   O21   S    
C84   H102  S    
Cr2   O18   S    
C65   C101  S    
Cr10  O14   S    
Cr3   O23   S    
Cr11  O11   S    
C67   C103  S    
C66   C70   S    
C37   C90   S    
C24   H140  S    
C73   H77   S    
Cr5   O17   S    
C115  H119  S    
C66   C74   S    
C113  H117  S    
C25   H17   S    
C57   C73   S    
C53   C61   S    
C60   H72   S    
C83   H101  S    
C56   H88   S    
C55   C63   S    
C6    H134  S    
C56   C64   S    
C7    H131  S    
Cr7   O51   S    
C42   C62   S    
C112  H48   S    
Cr5   O29   S    
C44   C52   S    
C70   H66   S    
C56   H64   S    
C1    C12   S    
C43   H43   S    
C80   H100  S    
C50   H58   S    
C2    C11   S    
Cr3   O3    S    
C7    C11   S    
C53   H85   S    
C111  H47   S    
C6    H130  S    
C42   H42   S    
Cr9   O37   S    
C55   H87   S    
C25   C26   S    
C105  O13   A    
C107  O15   A    
C5    C9    S    
C108  O16   A    
C59   H71   S    
C93   C106  S    
C8    C12   S    
C90   O2    A    
C51   C67   S    
C7    H135  S    
C42   C50   S    
C71   H95   S    
Cr2   O46   S    
Cr3   O43   S    
C110  H2    S    
C61   C100  S    
C79   F3    S    
C17   H125  S    
C91   O3    A    
C50   H54   S    
C112  C116  S    
C51   H59   S    
C58   C74   S    
Cr10  O38   S    
C59   H75   S    
C41   H41   S    
C78   F2    S    
C81   H114  S    
C33   H33   S    
C44   H44   S    
C68   C76   S    
C1    O21   A    
C98   O46   A    
C85   H108  S    
C14   C22   S    
C3    O23   A    
C7    C23   S    
C8    C24   S    
C40   C91   S    
C101  O9    A    
Cr7   O27   S    
C46   O30   A    
C99   O51   A    
Cr8   O20   S    
C67   C75   S    
C57   H69   S    
C52   H56   S    
Cr7   O7    S    
C4    C9    S    
Cr4   O24   S    
Cr8   O8    S    
C86   H110  S    
C58   C62   S    
C5    H129  S    
C88   C96   S    
C94   C105  S    
C82   H104  S    
C53   H61   S    
C12   C112  S    
C41   H49   S    
C21   H137  S    
C14   C46   S    
C77   C78   S    
C42   H50   S    
C15   C19   S    
C115  H91   S    
C75   H79   S    
C101  O5    A    
C58   H74   S    
C6    C22   S    
C2    O22   A    
Cr11  O35   S    
Cr6   O18   S    
Cr8   O28   S    
Cr2   O22   S    
C103  O7    A    
Cr3   O19   S    
C46   O34   A    
C82   H113  S    
C17   C117  S    
C19   C119  S    
C27   H23   S    
C73   H81   S    
C81   H103  S    
Cr12  O36   S    
C16   C116  S    
C9    C109  S    
C25   H21   S    
C80   F4    S    
C26   H18   S    
C105  O41   A    
C60   H76   S    
C54   C62   S    
C18   H14   S    
Cr3   O47   S    
C29   C34   S    
C108  O44   A    
C33   C37   S    
C41   C61   S    
C116  H92   S    
C117  H9    S    
C79   C95   S    
Cr5   O25   S    
C76   H84   S    
Cr6   O30   S    
C85   H109  S    
C86   H107  S    
C114  H90   S    
Cr12  O12   S    
C32   H39   S    
C91   O39   A    
C100  O52   A    
C39   C92   S    
C27   H19   S    
C106  O14   A    
C14   C18   S    
C68   C104  S    
C119  H123  S    
C17   H13   S    
C88   H112  S    
C71   H67   S    
C13   C17   S    
C78   H98   S    
C22   H6    S    
Cr5   O49   S    
C19   H15   S    
C104  O12   A    
C43   C51   S    
Cr5   O5    S    
C65   C69   S    
C77   C93   S    
C10   C110  S    
C67   C71   S    
C111  H3    S    
Cr1   O1    S    
C18   H126  S    
C51   H55   S    
C3    O27   A    
C109  H45   S    
C72   H96   S    
C29   C37   S    
C11   C111  S    
C34   H34   S    
C55   H63   S    
C9    C117  S    
C102  O10   A    
C35   C39   S    
C84   C87   S    
C15   C47   S    
C8    H136  S    
C11   C119  S    
C16   C48   S    
C29   H27   S    
C30   H28   S    
C38   C89   S    
C49   C65   S    
C74   H78   S    
C23   H7    S    
Cr7   O31   S    
Cr8   O32   S    
C49   H57   S    
Cr1   O41   S    
C114  H118  S    
C57   H73   S    
C65   C73   S    
C52   H60   S    
Cr4   O44   S    
C118  H122  S    
C25   C37   S    
C12   C120  S    
C27   C39   S    
C83   H116  S    
C35   H35   S    
Cr12  O20   S    
C29   H38   S    
C80   C96   S    
C86   C94   S    
C44   H52   S    
C52   C68   S    
C16   C20   S    
C22   H138  S    
C15   C23   S    
Cr9   O17   S    
C16   C24   S    
C69   H65   S    
C59   C75   S    
C85   C93   S    
C2    O26   A    
C103  O11   A    
C32   H26   S    
C35   H30   S    
C117  H121  S    
C32   C35   S    
C36   C40   S    
C33   H32   S    
C34   H31   S    
C97   O49   A    
C66   C102  S    
Cr7   O19   S    
C116  H120  S    
C87   C95   S    
C120  H124  S    
C10   C118  S    
C72   H68   S    
C81   C93   S    
C87   H111  S    
C83   C95   S    
Cr10  O18   S    
C20   H16   S    
C49   H53   S    
Cr12  O40   S    
Cr9   O9    S    
C50   C66   S    
C100  O48   A    
C20   H128  S    
C28   H20   S    
C45   O29   A    
C26   H22   S    
C92   O4    A    
C84   C96   S    
C106  O42   A    
C92   O40   A    
C110  C114  S    
C30   C33   S    
C34   C38   S    
C77   F1    S    
C96   C107  S    
C47   O31   A    
C4    O24   A    
C118  H10   S    
C89   O37   A    
Cr6   O26   S    
C109  C113  S    
Cr1   O17   S    
Cr10  O10   S    
C3    C10   S    
Cr11  O15   S    
Cr4   O4    S    
C76   H80   S    
Cr12  O16   S    
C88   H105  S    
C75   H83   S    
C31   C39   S    
C32   C40   S    
C79   C80   S    
C98   O50   A    
C27   C28   S    
C28   H24   S    
C111  C115  S    
C13   C113  S    
