data_mof_unit_23159.cif
_audit_creation_date              2012-12-10T17:21:00-0500
_audit_creation_method            fapswitch 2.2
_symmetry_space_group_name_H-M    P1
_symmetry_Int_Tables_number       1
_space_group_crystal_system       triclinic
_cell_length_a                    18.354971
_cell_length_b                    25.938966
_cell_length_c                    18.264628
_cell_angle_alpha                 90.024245
_cell_angle_beta                  90.10057
_cell_angle_gamma                 89.536144
_cell_volume                      8695.65410349

loop_
_atom_site_label
_atom_site_type_symbol
_atom_type_description
_atom_site_fract_x
_atom_site_fract_y
_atom_site_fract_z
_atom_type_partial_charge
C1    C     C_R   0.390085 0.250260 0.139526 0.785024
C2    C     C_R   0.444418 0.112008 0.747406 -0.203827
C3    C     C_R   0.111099 0.134849 0.317721 -0.100136
C4    C     C_R   0.440449 0.870370 0.349924 -0.162700
C5    C     C_R   0.571591 0.384858 0.777255 -0.178554
C6    C     C_R   0.430382 0.137237 0.363111 -0.113943
C7    C     C_R   0.415280 0.843858 0.620261 -0.116224
C8    C     C_R   0.144871 0.214282 0.706241 0.108800
C9    C     C_R   0.140172 0.793753 0.286780 0.125203
C10   C     C_R   0.118239 0.817970 0.728918 0.110046
C11   C     C_R   0.115801 0.172399 0.263171 0.119757
C12   C     C_R   0.492406 0.830634 0.357622 0.120745
C13   C     C_R   0.557218 0.362696 0.140831 -0.180577
C14   C     C_R   0.588155 0.340923 0.735720 0.119200
C15   C     C_R   0.486113 0.173508 0.366874 0.112635
C16   C     C_R   0.483343 0.821183 0.633110 0.103850
C17   C     C_R   0.240315 0.053742 0.858377 0.108576
C18   C     C_R   0.280245 0.950081 0.858107 0.160188
C19   C     C_R   0.888208 0.542389 0.519238 0.185290
C20   C     C_R   0.841899 0.455295 0.596842 0.188984
C21   C     C_R   0.270997 0.031984 0.794446 0.205137
C22   C     C_R   0.299179 0.981497 0.797790 0.215142
C23   C     C_R   0.934132 0.521071 0.574103 0.171282
C24   C     C_R   0.586854 0.662385 0.889629 -0.148974
C25   C     C_R   0.909134 0.478552 0.615723 0.187214
C26   C     C_R   0.260185 0.973665 0.926544 -0.025909
C27   C     C_R   0.249646 0.027749 0.927077 -0.039264
C28   C     C_R   0.800608 0.475024 0.536644 -0.028100
C29   C     C_R   0.815377 0.524724 0.512724 -0.039442
C30   C     C_R   0.250581 0.946465 0.994337 -0.098093
C31   C     C_R   0.248246 0.053787 0.995628 -0.099551
C32   C     C_R   0.747612 0.446992 0.496557 -0.134059
C33   C     C_R   0.756752 0.553369 0.481410 -0.157460
C34   C     C_R   0.244605 0.972837 0.061908 0.067283
C35   C     C_R   0.844961 0.304673 0.854060 -0.199008
C36   C     C_R   0.247008 0.026887 0.062656 0.062584
C37   C     C_R   0.700806 0.472752 0.445534 0.063887
C38   C     C_R   0.702136 0.527153 0.442234 0.074040
C39   C     C_R   0.239140 0.946152 0.129638 -0.144084
C40   C     C_R   0.247059 0.053034 0.130912 -0.141078
C41   C     C_R   0.653749 0.446176 0.396815 -0.140712
C42   C     C_R   0.653818 0.553430 0.394284 -0.129897
C43   C     C_R   0.237552 0.972698 0.195922 -0.149944
C44   C     C_R   0.242135 0.026068 0.196588 -0.126182
C45   C     C_R   0.605973 0.472886 0.350856 -0.130607
C46   C     C_R   0.842555 0.698986 0.144606 -0.190327
C47   C     C_R   0.605313 0.526379 0.350324 -0.147642
C48   C     C_R   0.249938 0.109381 0.998135 0.813853
C49   C     C_R   0.250051 0.890719 0.997513 0.816615
C50   C     C_R   0.751315 0.609103 0.494724 0.808044
C51   C     C_R   0.749398 0.390925 0.498855 0.809609
C52   C     C_R   0.246461 0.391227 0.999791 0.782826
C53   C     C_R   0.246500 0.608799 0.000133 0.781729
C54   C     C_R   0.748627 0.891324 0.499600 0.774371
C55   C     C_R   0.750688 0.108721 0.499095 0.786510
C56   C     C_3   0.198199 0.469678 0.068502 0.025914
C57   C     C_R   0.900483 0.628858 0.798182 -0.189050
C58   C     C_3   0.200575 0.530872 0.929573 0.018516
C59   C     C_3   0.203383 0.530024 0.072536 0.058227
C60   C     C_3   0.205998 0.470491 0.925623 0.053314
C61   C     C_3   0.677504 0.971640 0.540220 0.059116
C62   C     C_3   0.758376 0.028289 0.414832 0.035053
C63   C     C_3   0.675688 0.031919 0.533116 0.031390
C64   C     C_3   0.744265 0.969084 0.415609 0.042777
C65   C     C_3   0.319123 0.469882 0.003713 -0.560183
C66   C     C_3   0.319216 0.529251 0.998973 -0.556202
C67   C     C_3   0.814679 0.969780 0.535304 -0.556538
C68   C     C_R   0.896995 0.368259 0.200613 -0.208325
C69   C     C_3   0.812016 0.029165 0.541565 -0.550277
C70   C     C_3   0.240104 0.448873 0.999133 0.111345
C71   C     C_3   0.240115 0.551201 0.000494 0.109874
C72   C     C_3   0.744611 0.949080 0.497196 0.096982
C73   C     C_3   0.747493 0.051196 0.495560 0.107841
C74   C     C_R   0.969114 0.287066 0.890290 -0.130389
C75   C     C_R   0.966187 0.715825 0.107584 -0.141149
C76   C     C_R   0.003893 0.669475 0.855267 -0.149978
C77   C     C_R   0.003255 0.328987 0.145626 -0.123769
C78   C     C_R   0.610310 0.673715 0.249593 -0.153550
C79   C     C_R   0.502065 0.671416 0.142617 -0.177600
C80   C     C_R   0.532128 0.157481 0.674394 -0.135400
C81   C     C_R   0.609378 0.324474 0.249454 -0.167309
C82   C     C_R   0.630010 0.691106 0.771771 -0.181171
C83   C     C_R   0.899199 0.304762 0.907489 0.159472
C84   C     C_R   0.895808 0.699642 0.090379 0.154422
C85   C     C_R   0.953824 0.629116 0.852800 0.183825
C86   C     C_R   0.951470 0.368768 0.147622 0.172625
C87   C     C_R   0.611954 0.635566 0.195692 0.145204
C88   C     C_R   0.497697 0.111626 0.693527 0.165495
C89   C     C_R   0.611091 0.362216 0.194945 0.154658
C90   C     C_R   0.424949 0.157834 0.781563 -0.182783
C91   C     C_R   0.640565 0.662097 0.835797 0.169393
C92   C     C_3   0.190215 0.100212 0.851183 -0.822376
C93   C     C_3   0.274682 0.893103 0.843996 -0.906057
C94   C     C_3   0.921929 0.572628 0.456925 -0.785180
C95   C     C_3   0.810797 0.414613 0.646964 -0.889032
C96   C     C_3   0.270057 0.061823 0.722810 -0.946688
C97   C     C_3   0.346221 0.960427 0.736293 -0.937800
C98   C     C_3   0.008446 0.543924 0.589285 -0.883557
C99   C     C_3   0.954209 0.455889 0.678006 -0.880957
C100  C     C_3   0.120696 0.447786 0.077788 -0.853545
C101  C     C_R   0.502680 0.325684 0.141101 -0.182065
C102  C     C_3   0.123282 0.553467 0.917774 -0.835596
C103  C     C_3   0.133013 0.558016 0.099009 -0.904618
C104  C     C_3   0.136651 0.443350 0.896074 -0.891016
C105  C     C_3   0.604177 0.945118 0.525236 -0.937044
C106  C     C_3   0.724726 0.056575 0.347282 -0.818665
C107  C     C_3   0.605630 0.055454 0.499727 -0.882598
C108  C     C_3   0.677199 0.951890 0.369314 -0.804420
C109  C     C_R   0.390407 0.748945 0.860957 0.780096
C110  C     C_R   0.523006 0.690936 0.879871 -0.196207
C111  C     C_R   0.860399 0.286794 0.784001 -0.178077
C112  C     C_R   0.859261 0.714885 0.215335 -0.168034
C113  C     C_R   0.896683 0.668664 0.747186 -0.192323
C114  C     C_R   0.894507 0.328568 0.251632 -0.172415
C115  C     C_R   0.500049 0.710818 0.196316 0.077342
C116  C     C_R   0.462638 0.204203 0.766769 0.077184
C117  C     C_R   0.500192 0.287246 0.196096 0.071167
C118  C     C_R   0.511445 0.720379 0.815642 0.073713
C119  C     C_R   0.930549 0.267410 0.765939 0.073719
C120  C     C_R   0.390367 0.749094 0.138825 0.782803
C121  C     C_R   0.929623 0.733267 0.233312 0.074598
C122  C     C_R   0.947680 0.709291 0.748260 0.072724
C123  C     C_R   0.947723 0.288682 0.251868 0.072274
C124  C     C_R   0.985830 0.267489 0.819547 0.012220
C125  C     C_R   0.984026 0.733690 0.178936 0.009748
C126  C     C_R   0.002412 0.709562 0.802511 0.034529
C127  C     C_R   0.002955 0.288692 0.198325 0.023566
C128  C     C_R   0.554474 0.711906 0.250839 0.022860
C129  C     C_R   0.517249 0.204197 0.712596 0.008666
C130  C     C_R   0.553958 0.286575 0.251156 0.040633
C131  C     C_R   0.389749 0.249951 0.860203 0.784554
C132  C     C_R   0.565804 0.720912 0.761071 0.045797
C133  C     C_R   0.446027 0.749757 0.195165 -0.131240
C134  C     C_R   0.446478 0.250223 0.804842 -0.143707
C135  C     C_R   0.445536 0.249429 0.196465 -0.128276
C136  C     C_R   0.446190 0.748322 0.804334 -0.127709
C137  C     C_R   0.946343 0.248725 0.695276 -0.135935
C138  C     C_R   0.946527 0.750419 0.304597 -0.135970
C139  C     C_R   0.944473 0.749821 0.696835 -0.131025
C140  C     C_R   0.946272 0.248991 0.304386 -0.127647
C141  C     C_R   0.445961 0.790521 0.246264 0.047144
C142  C     C_R   0.888973 0.749478 0.640422 0.790315
C143  C     C_R   0.486922 0.295670 0.793186 0.042031
C144  C     C_R   0.442596 0.211305 0.251662 0.050821
C145  C     C_R   0.434934 0.777350 0.739989 0.053707
C146  C     C_R   0.016458 0.230023 0.676664 0.041265
C147  C     C_R   0.016571 0.769168 0.322424 0.037012
C148  C     C_R   0.996770 0.789307 0.696368 0.056866
C149  C     C_R   0.000522 0.209989 0.306182 0.057711
C150  C     C_R   0.073650 0.231406 0.729051 0.067650
C151  C     C_R   0.071457 0.771122 0.267856 0.073169
C152  C     C_R   0.057262 0.785805 0.744022 0.034428
C153  C     C_R   0.889669 0.249787 0.360191 0.782056
C154  C     C_R   0.058529 0.210409 0.254592 0.032690
C155  C     C_R   0.498033 0.790810 0.303564 0.058719
C156  C     C_R   0.543884 0.295766 0.740862 0.076515
C157  C     C_R   0.494747 0.211056 0.309312 0.026628
C158  C     C_R   0.492155 0.783040 0.689132 0.035754
C159  C     C_R   0.056690 0.249278 0.801298 -0.149188
C160  C     C_R   0.054757 0.751665 0.196691 -0.149202
C161  C     C_R   0.055703 0.748774 0.801578 -0.136920
C162  C     C_R   0.056958 0.249141 0.198790 -0.130587
C163  C     C_R   0.552810 0.751259 0.304701 -0.144252
C164  C     C_R   0.889577 0.249832 0.639784 0.777196
C165  C     C_R   0.555813 0.250364 0.698085 -0.154021
C166  C     C_R   0.551583 0.248446 0.306740 -0.130067
C167  C     C_R   0.555563 0.751679 0.697683 -0.137274
C168  C     C_R   0.393630 0.830896 0.241369 -0.161467
C169  C     C_R   0.473394 0.340628 0.835487 -0.154768
C170  C     C_R   0.387048 0.173701 0.250520 -0.141166
C171  C     C_R   0.367650 0.802224 0.726665 -0.165323
C172  C     C_R   0.029974 0.209324 0.606090 -0.143712
C173  C     C_R   0.032059 0.787466 0.393865 -0.154545
C174  C     C_R   0.991942 0.830874 0.646186 -0.161991
C175  C     C_R   0.889946 0.750081 0.360309 0.784842
C176  C     C_R   0.998471 0.171083 0.360505 -0.158198
C177  C     C_R   0.391949 0.870583 0.292003 -0.180968
C178  C     C_R   0.514443 0.384756 0.826399 -0.177827
C179  C     C_R   0.381658 0.137051 0.305305 -0.189536
C180  C     C_R   0.357020 0.833179 0.665581 -0.196323
C181  C     C_R   0.098681 0.191976 0.586140 -0.168390
C182  C     C_R   0.099822 0.807237 0.411525 -0.171214
C183  C     C_R   0.047869 0.866341 0.640240 -0.206816
C184  C     C_R   0.052756 0.133855 0.365449 -0.214294
C185  C     C_R   0.111678 0.249023 0.858755 0.840628
C186  C     C_R   0.557445 0.634392 0.142420 -0.203659
C187  C     C_R   0.110179 0.750184 0.139932 0.846697
C188  C     C_R   0.109997 0.749598 0.859936 0.782719
C189  C     C_R   0.111059 0.249533 0.140694 0.779120
C190  C     C_R   0.609685 0.750658 0.360567 0.832290
C191  C     C_R   0.610034 0.249779 0.639920 0.845835
C192  C     C_R   0.609050 0.248994 0.361330 0.783549
C193  C     C_R   0.610863 0.749860 0.640627 0.787185
C194  C     C_R   0.155734 0.194929 0.635400 -0.183725
C195  C     C_R   0.153271 0.810598 0.358460 -0.182853
C196  C     C_R   0.111563 0.859020 0.679829 -0.103986
H1    H     H_    0.228427 0.454824 0.117256 0.152832
H2    H     H_    0.431823 0.342306 0.877231 0.141706
H3    H     H_    0.841059 0.377642 0.641034 0.260041
H4    H     H_    0.288172 0.101898 0.732303 0.239345
H5    H     H_    0.306089 0.045605 0.680002 0.246765
H6    H     H_    0.214123 0.062344 0.699663 0.246056
H7    H     H_    0.375673 0.924699 0.752514 0.267053
H8    H     H_    0.312358 0.952652 0.687138 0.239129
H9    H     H_    0.389647 0.988283 0.722531 0.230508
H10   H     H_    0.020771 0.578302 0.555875 0.246960
H11   H     H_    0.011457 0.556708 0.647245 0.247123
H12   H     H_    0.051555 0.514675 0.578303 0.243367
H13   H     H_    0.346723 0.172190 0.207316 0.129707
H14   H     H_    0.961736 0.413789 0.669520 0.253724
H15   H     H_    0.009435 0.472166 0.683319 0.243490
H16   H     H_    0.926038 0.462603 0.730902 0.234267
H17   H     H_    0.079588 0.469495 0.045882 0.252023
H18   H     H_    0.118024 0.406671 0.061604 0.237617
H19   H     H_    0.104511 0.449946 0.136279 0.238641
H20   H     H_    0.081368 0.531609 0.947537 0.255829
H21   H     H_    0.119661 0.594339 0.935041 0.232539
H22   H     H_    0.109050 0.552226 0.858672 0.245107
H23   H     H_    0.087314 0.555734 0.060121 0.243760
H24   H     H_    0.323058 0.798066 0.763996 0.151116
H25   H     H_    0.114999 0.541023 0.151660 0.242523
H26   H     H_    0.142079 0.599292 0.110649 0.261490
H27   H     H_    0.090108 0.444952 0.933895 0.247869
H28   H     H_    0.119535 0.461445 0.843668 0.241659
H29   H     H_    0.146545 0.402337 0.882711 0.263717
H30   H     H_    0.577009 0.958067 0.474438 0.259133
H31   H     H_    0.612850 0.903289 0.520638 0.242921
H32   H     H_    0.566134 0.952559 0.571376 0.249699
H33   H     H_    0.669343 0.071847 0.357502 0.251051
H34   H     H_    0.759865 0.088796 0.329249 0.260418
H35   H     H_    0.987474 0.205938 0.565301 0.128916
H36   H     H_    0.723532 0.031317 0.298369 0.229132
H37   H     H_    0.606654 0.097955 0.504644 0.229150
H38   H     H_    0.597631 0.044691 0.442076 0.245106
H39   H     H_    0.556961 0.042479 0.529830 0.261676
H40   H     H_    0.653473 0.914995 0.387461 0.262892
H41   H     H_    0.632649 0.980725 0.369636 0.237303
H42   H     H_    0.693775 0.946063 0.311423 0.228363
H43   H     H_    0.843099 0.300151 0.001891 0.193300
H44   H     H_    0.862646 0.360561 0.974717 0.169901
H45   H     H_    0.837996 0.708859 0.997367 0.194825
H46   H     H_    0.991863 0.787258 0.437072 0.138035
H47   H     H_    0.856885 0.647100 0.019376 0.164683
H48   H     H_    0.916749 0.561794 0.897554 0.174630
H49   H     H_    0.954166 0.603165 0.957132 0.185268
H50   H     H_    0.962653 0.444287 0.125622 0.180400
H51   H     H_    0.904941 0.413281 0.069712 0.177193
H52   H     H_    0.697162 0.601503 0.145122 0.173444
H53   H     H_    0.647028 0.561670 0.197457 0.183567
H54   H     H_    0.470510 0.048997 0.634600 0.171006
H55   H     H_    0.535995 0.038654 0.698081 0.189150
H56   H     H_    0.660449 0.426344 0.153160 0.171198
H57   H     H_    0.945495 0.836140 0.610360 0.134609
H58   H     H_    0.717000 0.380740 0.185961 0.175940
H59   H     H_    0.734899 0.648782 0.889259 0.179368
H60   H     H_    0.738265 0.633242 0.800138 0.172510
H61   H     H_    0.955105 0.169119 0.400430 0.123248
H62   H     H_    0.107844 0.176506 0.531820 0.148631
H63   H     H_    0.110491 0.820932 0.466500 0.147905
H64   H     H_    0.043590 0.897741 0.601396 0.139097
H65   H     H_    0.232258 0.545474 0.881938 0.153320
H66   H     H_    0.050285 0.104592 0.407610 0.136460
H67   H     H_    0.351669 0.901115 0.287185 0.137288
H68   H     H_    0.503027 0.418674 0.859139 0.138476
H69   H     H_    0.338676 0.108744 0.303459 0.138919
H70   H     H_    0.304716 0.851573 0.656052 0.153029
H71   H     H_    0.241810 0.046676 0.248119 0.121958
H72   H     H_    0.233521 0.951704 0.246951 0.119966
H73   H     H_    0.568907 0.546994 0.313733 0.146805
H74   H     H_    0.570075 0.451904 0.314615 0.154727
H75   H     H_    0.236864 0.904551 0.132393 0.115949
H76   H     H_    0.242691 0.538263 0.117633 0.151129
H77   H     H_    0.251188 0.094475 0.134296 0.117488
H78   H     H_    0.653784 0.404795 0.391587 0.158517
H79   H     H_    0.655387 0.594721 0.387000 0.150660
H80   H     H_    0.345274 0.457557 0.055984 0.194273
H81   H     H_    0.347143 0.541258 0.947733 0.194149
H82   H     H_    0.351653 0.544999 0.045339 0.191733
H83   H     H_    0.353137 0.453738 0.958623 0.187835
H84   H     H_    0.820893 0.953073 0.591124 0.214066
H85   H     H_    0.864700 0.045356 0.522557 0.181866
H86   H     H_    0.806048 0.040272 0.600159 0.211992
H87   H     H_    0.246963 0.461899 0.882142 0.150850
H88   H     H_    0.863728 0.957907 0.503517 0.180422
H89   H     H_    0.209396 0.181972 0.618501 0.141532
H90   H     H_    0.205315 0.827320 0.372698 0.136303
H91   H     H_    0.157639 0.883811 0.669459 0.135472
H92   H     H_    0.154126 0.106328 0.323816 0.131319
H93   H     H_    0.436226 0.900850 0.390294 0.125564
H94   H     H_    0.604751 0.419055 0.772497 0.137502
H95   H     H_    0.424430 0.108948 0.406283 0.142966
H96   H     H_    0.408524 0.872000 0.576907 0.138103
H97   H     H_    0.009792 0.289234 0.933075 0.138856
H98   H     H_    0.688345 0.962892 0.599071 0.147898
H99   H     H_    0.006060 0.714587 0.064072 0.135655
H100  H     H_    0.044575 0.668459 0.898169 0.119897
H101  H     H_    0.044125 0.330622 0.103110 0.129013
H102  H     H_    0.653817 0.673312 0.289672 0.117190
H103  H     H_    0.571281 0.155368 0.630372 0.148273
H104  H     H_    0.652077 0.325496 0.290360 0.122765
H105  H     H_    0.672726 0.690435 0.731005 0.115395
H106  H     H_    0.558281 0.604947 0.100361 0.127992
H107  H     H_    0.417681 0.076631 0.762637 0.160143
H108  H     H_    0.557464 0.391622 0.098094 0.126304
H109  H     H_    0.817846 0.032038 0.403491 0.131290
H110  H     H_    0.594373 0.640078 0.939238 0.134571
H111  H     H_    0.790758 0.318873 0.866680 0.137719
H112  H     H_    0.788039 0.685934 0.131996 0.142061
H113  H     H_    0.861870 0.597617 0.794802 0.133636
H114  H     H_    0.856465 0.398809 0.202357 0.134766
H115  H     H_    0.461525 0.669188 0.099652 0.123132
H116  H     H_    0.380656 0.155819 0.820290 0.154077
H117  H     H_    0.462599 0.327578 0.097632 0.126906
H118  H     H_    0.482722 0.689409 0.923013 0.125695
H119  H     H_    0.816580 0.288481 0.744387 0.144149
H120  H     H_    0.675889 0.047001 0.590331 0.153731
H121  H     H_    0.816131 0.712653 0.255451 0.139543
H122  H     H_    0.853713 0.666944 0.706629 0.130758
H123  H     H_    0.850701 0.329854 0.291184 0.130595
H124  H     H_    0.233533 0.181630 0.753689 0.152316
H125  H     H_    0.244027 0.243379 0.728437 0.206333
H126  H     H_    0.208079 0.841335 0.232489 0.150670
H127  H     H_    0.243371 0.782411 0.251677 0.196351
H128  H     H_    0.200619 0.765899 0.734903 0.214090
H129  H     H_    0.197279 0.808681 0.806075 0.178706
H130  H     H_    0.208521 0.206600 0.226315 0.195826
H131  H     H_    0.792198 0.950912 0.387973 0.141055
H132  H     H_    0.170590 0.161791 0.167203 0.193713
H133  H     H_    0.527595 0.863180 0.452690 0.176653
H134  H     H_    0.513437 0.799628 0.454877 0.184156
H135  H     H_    0.644673 0.372052 0.653196 0.199949
H136  H     H_    0.696555 0.351417 0.724921 0.159094
H137  H     H_    0.526888 0.206167 0.459844 0.195042
H138  H     H_    0.583286 0.160967 0.418038 0.193238
H139  H     H_    0.567818 0.818874 0.560780 0.180321
H140  H     H_    0.580744 0.857103 0.636475 0.218441
H141  H     H_    0.165246 0.103591 0.796180 0.232842
H142  H     H_    0.353225 0.832503 0.198253 0.131554
H143  H     H_    0.142803 0.096035 0.888198 0.262658
H144  H     H_    0.220414 0.136176 0.862547 0.220304
H145  H     H_    0.271478 0.884544 0.784748 0.244896
H146  H     H_    0.322272 0.872027 0.866792 0.262622
H147  H     H_    0.222180 0.879179 0.865370 0.230086
H148  H     H_    0.970002 0.551289 0.435329 0.218769
H149  H     H_    0.883570 0.577463 0.410275 0.229816
H150  H     H_    0.939658 0.611284 0.475586 0.265741
H151  H     H_    0.813426 0.427413 0.704859 0.228059
H152  H     H_    0.752483 0.408744 0.636003 0.211570
N1    N     N_3   0.207705 0.217561 0.752447 -0.445138
N2    N     N_3   0.878759 0.684160 0.017214 -0.477423
N3    N     N_3   0.959546 0.587702 0.904618 -0.486459
N4    N     N_3   0.955297 0.410165 0.096122 -0.478538
N5    N     N_3   0.669955 0.598396 0.195155 -0.481469
N6    N     N_3   0.517510 0.064488 0.658094 -0.487718
N7    N     N_3   0.667763 0.400009 0.195931 -0.479953
N8    N     N_3   0.705388 0.631787 0.846722 -0.475463
N9    N     N_3   0.196508 0.801948 0.233957 -0.459403
N10   N     N_3   0.190560 0.804172 0.750046 -0.502672
N11   N     N_3   0.181740 0.171404 0.221444 -0.505565
N12   N     N_3   0.535194 0.829205 0.423035 -0.473863
N13   N     N_3   0.652149 0.342506 0.691404 -0.460210
N14   N     N_3   0.529983 0.171205 0.431633 -0.496146
N15   N     N_3   0.543463 0.844499 0.597153 -0.501165
N16   N     N_3   0.883903 0.323221 0.979615 -0.461250
O1    O     O_3   0.249990 0.250010 0.000000 -0.485658
O2    O     O_R   0.835430 0.219350 0.353840 -0.641267
O3    O     O_R   0.835430 0.219350 0.646160 -0.633821
O4    O     O_R   0.835430 0.780650 0.353840 -0.637850
O5    O     O_R   0.164550 0.280640 0.853840 -0.629229
O6    O     O_R   0.164550 0.719360 0.146160 -0.633695
O7    O     O_R   0.164550 0.719360 0.853840 -0.650692
O8    O     O_R   0.164550 0.280640 0.146160 -0.645043
O9    O     O_R   0.664550 0.780640 0.353840 -0.624879
O10   O     O_R   0.664550 0.219360 0.646160 -0.642604
O11   O     O_R   0.664550 0.219360 0.353840 -0.640114
O12   O     O_3   0.249990 0.749990 0.000000 -0.486020
O13   O     O_R   0.664550 0.780640 0.646160 -0.648748
O14   O     O_R   0.396160 0.219380 0.914560 -0.635830
O15   O     O_R   0.396160 0.780620 0.085440 -0.631736
O16   O     O_R   0.396160 0.780620 0.914560 -0.636232
O17   O     O_R   0.396160 0.219380 0.085440 -0.632838
O18   O     O_R   0.896160 0.719380 0.414560 -0.649922
O19   O     O_R   0.896160 0.280620 0.585440 -0.640912
O20   O     O_R   0.896160 0.280620 0.414560 -0.633869
O21   O     O_R   0.896160 0.719380 0.585440 -0.640712
O22   O     O_R   0.103840 0.219370 0.085450 -0.635100
O23   O     O_3   0.749990 0.750010 0.500000 -0.483379
O24   O     O_R   0.103840 0.780630 0.914550 -0.631350
O25   O     O_R   0.103840 0.780630 0.085450 -0.635643
O26   O     O_R   0.103840 0.219370 0.914550 -0.639876
O27   O     O_R   0.603840 0.719370 0.585450 -0.627670
O28   O     O_R   0.603840 0.280630 0.414550 -0.648643
O29   O     O_R   0.603840 0.280630 0.585450 -0.626719
O30   O     O_R   0.603840 0.719370 0.414550 -0.648523
O31   O     O_R   0.310730 0.133160 0.000000 -0.640651
O32   O     O_R   0.310730 0.866840 0.000000 -0.636619
O33   O     O_R   0.810730 0.633160 0.500000 -0.643589
O34   O     O_3   0.749990 0.249990 0.500000 -0.483545
O35   O     O_R   0.810730 0.366840 0.500000 -0.621996
O36   O     O_R   0.249970 0.366860 0.060720 -0.648038
O37   O     O_R   0.249970 0.633140 0.939280 -0.647606
O38   O     O_R   0.249970 0.633140 0.060720 -0.654027
O39   O     O_R   0.249970 0.366860 0.939280 -0.655751
O40   O     O_R   0.749970 0.866860 0.560720 -0.648197
O41   O     O_R   0.749970 0.133140 0.439280 -0.650062
O42   O     O_R   0.749970 0.133140 0.560720 -0.651993
O43   O     O_R   0.749970 0.866860 0.439280 -0.643359
O44   O     O_R   0.189290 0.133150 0.000000 -0.647062
O45   O     O_R   0.335430 0.280650 0.146160 -0.638701
O46   O     O_R   0.189290 0.866850 0.000000 -0.638684
O47   O     O_R   0.689290 0.633150 0.500000 -0.642702
O48   O     O_R   0.689290 0.366850 0.500000 -0.658826
O49   O     O_R   0.335430 0.719350 0.853840 -0.640601
O50   O     O_R   0.335430 0.719350 0.146160 -0.639045
O51   O     O_R   0.335430 0.280650 0.853840 -0.642801
O52   O     O_R   0.835430 0.780650 0.646160 -0.638725
Zn1   Zn    Zn3+2 0.249990 0.293780 0.913250 0.945034
Zn2   Zn    Zn3+2 0.336760 0.793760 0.000000 0.961446
Zn3   Zn    Zn3+2 0.836760 0.706240 0.500000 0.937837
Zn4   Zn    Zn3+2 0.836760 0.293760 0.500000 0.962268
Zn5   Zn    Zn3+2 0.163250 0.206230 0.000000 0.952097
Zn6   Zn    Zn3+2 0.163250 0.793770 0.000000 0.968269
Zn7   Zn    Zn3+2 0.663250 0.706230 0.500000 0.959409
Zn8   Zn    Zn3+2 0.663250 0.293770 0.500000 0.951107
Zn9   Zn    Zn3+2 0.249990 0.706220 0.086750 0.950659
Zn10  Zn    Zn3+2 0.249990 0.706220 0.913250 0.940395
Zn11  Zn    Zn3+2 0.249990 0.293780 0.086750 0.946921
Zn12  Zn    Zn3+2 0.749990 0.793780 0.413250 0.958834
Zn13  Zn    Zn3+2 0.749990 0.206220 0.586750 0.958003
Zn14  Zn    Zn3+2 0.749990 0.206220 0.413250 0.936341
Zn15  Zn    Zn3+2 0.749990 0.793780 0.586750 0.949724
Zn16  Zn    Zn3+2 0.336760 0.206240 0.000000 0.963514

loop_
_geom_bond_atom_site_label_1
_geom_bond_atom_site_label_2
_ccdc_geom_bond_type
C46   C112  A    
C6    C179  A    
C4    C177  A    
H60   N8    S    
C110  C118  A    
C53   O37   A    
O34   Zn14  S    
C84   N2    S    
C1    O45   A    
C192  O11   A    
C100  H18   S    
C86   N4    S    
H128  N10   S    
C122  C139  A    
C139  C142  S    
C176  H61   S    
C58   C60   S    
C29   C33   A    
H53   N5    S    
C54   O40   A    
O41   Zn14  S    
C105  H32   S    
C2    C90   A    
C4    H93   S    
C62   C64   S    
C11   C154  A    
C134  C143  A    
C146  C150  A    
H133  N12   S    
C113  C122  A    
C184  H66   S    
C90   C116  A    
C4    C12   A    
C196  H91   S    
C61   C105  S    
C3    C184  A    
C74   C83   A    
C104  H27   S    
C171  H24   S    
C82   H105  S    
H48   N3    S    
C107  H37   S    
C21   C22   A    
C65   H80   S    
C113  H122  S    
C98   H12   S    
C90   H116  S    
C158  C167  A    
C87   C186  A    
C40   C44   A    
C45   C47   A    
C3    H92   S    
C139  C148  A    
O23   Zn12  S    
C150  C159  A    
C16   C158  A    
C137  C146  A    
C28   C32   A    
C24   C110  A    
O39   Zn1   S    
O15   Zn2   S    
C190  O9    A    
O28   Zn8   S    
C33   C50   S    
C88   N6    S    
C82   C91   A    
C106  H34   S    
C19   C23   A    
C43   C44   A    
C37   C38   A    
O49   Zn10  S    
C7    H96   S    
C174  H57   S    
C94   H148  S    
O23   Zn3   S    
O45   Zn11  S    
C183  C196  A    
C181  C194  A    
C19   C94   S    
C115  C133  A    
C46   C84   A    
C30   C49   S    
C1    O17   A    
C173  C182  A    
C31   C48   S    
C58   H65   S    
H49   N3    S    
C97   H8    S    
C93   H145  S    
C53   C71   S    
C118  C136  A    
C83   N16   S    
C77   H101  S    
C64   H131  S    
C176  C184  A    
C9    C151  A    
C141  C168  A    
C14   C156  A    
H124  N1    S    
C57   C113  A    
C9    C195  A    
C96   H6    S    
C62   C106  S    
C33   C38   A    
C56   C59   S    
C57   H113  S    
C177  H67   S    
C80   C88   A    
C178  H68   S    
C103  H25   S    
O12   Zn10  S    
O23   Zn15  S    
C57   C85   A    
C163  C190  S    
C51   O48   A    
C3    C11   A    
C195  H90   S    
C49   O46   A    
C108  H41   S    
C175  O18   A    
C183  H64   S    
C41   C45   A    
C31   C36   A    
C98   H10   S    
C180  H70   S    
C76   C85   A    
C78   C87   A    
C95   H151  S    
C79   C115  A    
O9    Zn12  S    
O44   Zn5   S    
O1    Zn16  S    
C99   H15   S    
H129  N10   S    
H140  N15   S    
C66   H81   S    
C79   H115  S    
C120  C133  S    
C161  C188  S    
C48   O44   A    
C75   C84   A    
C65   C70   S    
H56   N7    S    
C111  C119  A    
C67   C72   S    
C172  C181  A    
C187  O25   A    
O51   Zn1   S    
C109  O16   A    
C54   O43   A    
C60   C70   S    
C93   H147  S    
C152  C161  A    
C80   H103  S    
C62   H109  S    
C167  C193  S    
C186  H106  S    
C189  O22   A    
H51   N4    S    
C153  O20   A    
C39   H75   S    
C64   C108  S    
C44   H71   S    
C45   H74   S    
C185  O26   A    
C60   H87   S    
O40   Zn15  S    
C30   C34   A    
H50   N4    S    
C34   C39   A    
C17   C27   A    
C9    N9    S    
C142  O52   A    
C11   N11   S    
C155  C163  A    
C194  H89   S    
C115  C128  A    
O8    Zn11  S    
O30   Zn7   S    
C147  C151  A    
C121  C125  A    
C10   C196  A    
C123  C127  A    
C69   H86   S    
O26   Zn5   S    
C32   C37   A    
C8    C194  A    
C92   H141  S    
C52   O36   A    
C114  C123  A    
C102  H20   S    
O33   Zn3   S    
C127  C162  A    
C168  H142  S    
C96   H4    S    
O37   Zn10  S    
C185  O5    A    
C80   C129  A    
C18   C22   A    
C154  C162  A    
C148  C152  A    
C142  O21   A    
O50   Zn9   S    
C26   C30   A    
C114  H123  S    
H132  N11   S    
C50   O33   A    
C170  C179  A    
C59   C103  S    
C188  O24   A    
C189  O8    A    
C112  C121  A    
O1    Zn1   S    
C120  O50   A    
O13   Zn15  S    
C40   H77   S    
O14   Zn16  S    
C7    C180  A    
C34   C36   A    
C105  H31   S    
C37   C41   A    
C5    C178  A    
C118  C132  A    
C102  H22   S    
O5    Zn1   S    
C55   C73   S    
C10   N10   S    
C23   C98   S    
C138  C175  S    
C18   C93   S    
C182  C195  A    
C160  C187  S    
C144  C157  A    
C60   C104  S    
C63   C107  S    
C140  C149  A    
C104  H28   S    
O29   Zn8   S    
C74   C124  A    
C108  H40   S    
H136  N13   S    
C79   C186  A    
C46   H112  S    
C76   C126  A    
O35   Zn4   S    
C18   C26   A    
C132  C167  A    
C131  C134  S    
C78   C128  A    
C5    H94   S    
O12   Zn6   S    
C104  H29   S    
C191  O29   A    
O36   Zn11  S    
C26   C27   A    
C28   C29   A    
C35   H111  S    
C58   C71   S    
C116  C134  A    
C20   C25   A    
C168  C177  A    
H54   N6    S    
C144  C170  A    
C55   O42   A    
C92   H143  S    
C75   H99   S    
C48   O31   A    
C10   C152  A    
C173  H46   S    
C25   C99   S    
C94   H149  S    
C8    N1    S    
O10   Zn13  S    
O47   Zn7   S    
C13   H108  S    
C69   C73   S    
C58   C102  S    
C51   O35   A    
C2    H107  S    
C126  C161  A    
C15   C157  A    
C140  C153  S    
C81   C89   A    
H125  N1    S    
O3    Zn13  S    
H126  N9    S    
C68   H114  S    
C97   H7    S    
O7    Zn10  S    
C53   O38   A    
C172  H35   S    
O34   Zn13  S    
C100  H17   S    
C125  C160  A    
C49   O32   A    
C35   C83   A    
H130  N11   S    
C141  C155  A    
C181  H62   S    
C63   C73   S    
H44   N16   S    
C27   C31   A    
H52   N5    S    
C87   N5    S    
C149  C154  A    
C32   C51   S    
C193  O13   A    
C130  C166  A    
C75   C125  A    
C66   C71   S    
C131  O14   A    
C109  O49   A    
H55   N6    S    
C5    C14   A    
C89   N7    S    
C42   H79   S    
C61   C72   S    
C7    C16   A    
C107  H38   S    
C108  H42   S    
C12   N12   S    
O52   Zn15  S    
C98   H11   S    
C81   H104  S    
C82   C132  A    
C19   C29   A    
C6    H95   S    
H134  N12   S    
C56   H1    S    
C74   H97   S    
O24   Zn6   S    
C67   H88   S    
C174  C183  A    
C147  C173  A    
C38   C42   A    
C91   N8    S    
C52   O39   A    
C20   C28   A    
C133  C141  A    
C106  H33   S    
C129  C165  A    
H138  N14   S    
C149  C176  A    
C101  C117  A    
C103  H26   S    
O25   Zn6   S    
C145  C158  A    
O22   Zn5   S    
C159  C185  S    
C81   C130  A    
C156  C165  A    
C165  C191  S    
C166  C192  S    
C24   H110  S    
C148  C174  A    
H45   N2    S    
C164  O19   A    
O43   Zn12  S    
O42   Zn13  S    
O38   Zn9   S    
O27   Zn7   S    
C97   H9    S    
C93   H146  S    
C162  C189  S    
C41   H78   S    
C103  H23   S    
C17   C21   A    
O6    Zn9   S    
C145  C171  A    
C100  H19   S    
O19   Zn4   S    
C146  C172  A    
C68   C86   A    
C8    C150  A    
H58   N7    S    
C50   O47   A    
H43   N16   S    
C96   H5    S    
C119  C124  A    
C131  O51   A    
C182  H63   S    
C61   H98   S    
C187  O6    A    
H137  N14   S    
C76   H100  S    
O11   Zn14  S    
O34   Zn4   S    
H59   N8    S    
O12   Zn9   S    
O48   Zn8   S    
O32   Zn2   S    
C124  C159  A    
O20   Zn4   S    
O21   Zn3   S    
C63   H120  S    
C47   H73   S    
C188  O7    A    
H47   N2    S    
C6    C15   A    
C69   H85   S    
C116  C129  A    
C59   H76   S    
C2    C88   A    
C136  C145  A    
O12   Zn2   S    
C23   C25   A    
C95   H152  S    
O23   Zn7   S    
C22   C97   S    
C190  O30   A    
C109  C136  S    
C85   N3    S    
O31   Zn16  S    
C193  O27   A    
C17   C92   S    
O16   Zn2   S    
C99   H16   S    
O2    Zn14  S    
C175  O4    A    
C119  C137  A    
C36   C40   A    
C143  C169  A    
C39   C43   A    
C102  H21   S    
C112  H121  S    
O34   Zn8   S    
C123  C140  A    
C128  C163  A    
C67   C69   S    
C121  C138  A    
C122  C126  A    
C65   H83   S    
C111  H119  S    
C78   H102  S    
C138  C147  A    
C61   C63   S    
H139  N15   S    
C62   C73   S    
C105  H30   S    
C117  C130  A    
O1    Zn5   S    
C101  H117  S    
C179  H69   S    
C15   N14   S    
C135  C144  A    
C20   C95   S    
C77   C86   A    
C56   C70   S    
C171  C180  A    
C56   C100  S    
C12   C155  A    
C13   C101  A    
O18   Zn3   S    
C24   C91   A    
C169  C178  A    
C35   C111  A    
H127  N9    S    
C55   O41   A    
C191  O10   A    
C107  H39   S    
C16   N15   S    
C13   C89   A    
C14   N13   S    
C110  H118  S    
C77   C127  A    
C157  C166  A    
C137  C164  S    
C192  O28   A    
H135  N13   S    
C21   C96   S    
C120  O15   A    
C151  C160  A    
C164  O3    A    
C43   H72   S    
C1    C135  S    
C143  C156  A    
O4    Zn12  S    
C170  H13   S    
C153  O2    A    
C106  H36   S    
C66   H82   S    
C42   C47   A    
C64   C72   S    
C92   H144  S    
C52   C70   S    
C94   H150  S    
C54   C72   S    
C95   H3    S    
C65   C66   S    
C59   C71   S    
O46   Zn6   S    
C67   H84   S    
O17   Zn16  S    
O1    Zn11  S    
C68   C114  A    
C169  H2    S    
C99   H14   S    
C117  C135  A    
