data_mof_unit_48931.cif
_audit_creation_date              2012-12-10T20:28:41-0500
_audit_creation_method            fapswitch 2.2
_symmetry_space_group_name_H-M    P1
_symmetry_Int_Tables_number       1
_space_group_crystal_system       triclinic
_cell_length_a                    10.769086
_cell_length_b                    10.771979
_cell_length_c                    9.913368
_cell_angle_alpha                 87.569036
_cell_angle_beta                  88.659888
_cell_angle_gamma                 90.735328
_cell_volume                      1148.5347549

loop_
_atom_site_label
_atom_site_type_symbol
_atom_type_description
_atom_site_fract_x
_atom_site_fract_y
_atom_site_fract_z
_atom_type_partial_charge
C1    C     C_R   0.500896 0.259859 0.501218 0.886834
C2    C     C_R   0.057670 0.515653 0.627343 0.087927
C3    C     C_R   0.127606 0.524772 0.504991 -0.190260
C4    C     C_R   0.068767 0.525346 0.381269 -0.233124
C5    C     C_R   0.942618 0.509979 0.376226 0.394436
C6    C     C_R   0.874041 0.483007 0.497567 -0.221513
C7    C     C_R   0.420038 0.057768 0.586821 0.090213
C8    C     C_R   0.496859 0.127175 0.497445 -0.099256
C9    C     C_R   0.554577 0.069104 0.388497 -0.214953
C10   C     C_R   0.550128 0.940585 0.383348 -0.189976
C11   C     C_R   0.489272 0.871132 0.488140 -0.139909
C12   C     C_R   0.260645 0.511314 0.501529 0.927179
C13   C     C_R   0.417307 0.930179 0.583249 0.119147
C14   C     C_3   0.419252 0.913553 0.732714 0.205654
C15   C     C_3   0.422697 0.052514 0.736000 -0.504295
C16   C     C_R   0.498507 0.391850 0.077754 0.147594
C17   C     C_R   0.514067 0.607394 0.066561 -0.057170
C18   C     C_R   0.514592 0.607066 0.923203 -0.055198
C19   C     C_R   0.500619 0.391057 0.935793 0.101728
C20   C     C_3   0.406839 0.286965 0.946015 0.187679
C21   C     C_3   0.402501 0.293590 0.097582 -0.478643
C22   C     C_R   0.499330 0.739659 0.496929 0.885889
C23   C     C_R   0.740033 0.491341 0.498919 0.899068
C24   C     C_R   0.103792 0.547677 0.753984 -0.041430
C25   C     C_R   0.039107 0.512284 0.873352 -0.021066
C26   C     C_R   0.931248 0.440569 0.867807 -0.089375
C27   C     C_R   0.880015 0.418788 0.743240 -0.132845
C28   C     C_R   0.935860 0.470673 0.622363 0.044857
H1    H     H_    0.121023 0.537606 0.286703 0.205383
H2    H     H_    0.506254 0.872610 0.770178 0.107524
H3    H     H_    0.336905 0.091483 0.780130 0.284395
H4    H     H_    0.514139 0.086598 0.770107 0.159797
H5    H     H_    0.523840 0.694520 0.115806 0.149168
H6    H     H_    0.527022 0.693095 0.866427 0.151325
H7    H     H_    0.449207 0.199519 0.920850 0.102908
H8    H     H_    0.313978 0.329092 0.140202 0.242621
H9    H     H_    0.438311 0.208905 0.150603 0.184687
H10   H     H_    0.188817 0.600432 0.762551 0.210919
H11   H     H_    0.076505 0.534535 0.969957 0.186548
H12   H     H_    0.885623 0.403912 0.959593 0.189379
H13   H     H_    0.796900 0.361346 0.742784 0.153856
H14   H     H_    0.607921 0.122300 0.311525 0.167899
H15   H     H_    0.601298 0.895786 0.303977 0.170671
N1    N     N_R   0.499160 0.499140 0.142800 -0.096285
N2    N     N_R   0.499160 0.499180 0.857150 -0.090369
O1    O     O_R   0.500020 0.316790 0.614690 -0.606969
O2    O     O_R   0.500000 0.316760 0.385350 -0.626912
O3    O     O_R   0.316770 0.500020 0.614690 -0.575825
O4    O     O_R   0.316760 0.499980 0.385350 -0.627914
O5    O     O_R   0.500000 0.683240 0.614650 -0.629493
O6    O     O_R   0.499980 0.683210 0.385310 -0.626121
O7    O     O_R   0.683240 0.500020 0.614650 -0.639690
O8    O     O_R   0.683230 0.499980 0.385310 -0.549016
Zn1   Zn    Zn3+2 0.500010 0.500020 0.653130 0.996612
Zn2   Zn    Zn3+2 0.499990 0.499980 0.346870 0.995619
Cl1   Cl    Cl    0.262669 0.319543 0.869770 -0.610928
Cl2   Cl    Cl    0.880222 0.524108 0.213034 -0.660243
Cl3   Cl    Cl    0.278482 0.845726 0.801781 -0.628739

loop_
_geom_bond_atom_site_label_1
_geom_bond_atom_site_label_2
_ccdc_geom_bond_type
C24   H10   S    
C24   C25   A    
C19   N2    A    
C12   O4    A    
C16   C21   S    
C1    C8    S    
C11   C13   A    
C9    C10   A    
C16   N1    A    
C11   C22   S    
O6    Zn2   S    
C19   C20   S    
C5    Cl2   S    
C20   Cl1   S    
O1    Zn1   S    
C7    C15   S    
C17   C18   A    
C23   O7    A    
C17   N1    A    
C7    C8    A    
C21   H8    S    
C13   C14   S    
C25   H11   S    
O3    Zn1   S    
C4    C5    A    
C18   H6    S    
N1    Zn2   S    
C26   H12   S    
C9    H14   S    
O5    Zn1   S    
C17   H5    S    
C14   H2    S    
C16   C19   A    
C6    C23   S    
C1    O2    A    
C12   O3    A    
O7    Zn1   S    
N2    Zn1   S    
C23   O8    A    
C2    C3    A    
O8    Zn2   S    
C26   C27   A    
C5    C6    A    
C14   Cl3   S    
C1    O1    A    
C2    C24   A    
C10   C11   A    
C3    C4    A    
C18   N2    A    
C22   O5    A    
C7    C13   A    
C21   H9    S    
C20   C21   S    
O2    Zn2   S    
C27   C28   A    
C27   H13   S    
C14   C15   S    
C22   O6    A    
C2    C28   A    
C3    C12   S    
C25   C26   A    
O4    Zn2   S    
C20   H7    S    
C15   H3    S    
C6    C28   A    
C4    H1    S    
C10   H15   S    
C8    C9    A    
C15   H4    S    
