data_mof_unit_39529.cif
_audit_creation_date              2012-12-10T20:28:42-0500
_audit_creation_method            fapswitch 2.2
_symmetry_space_group_name_H-M    P1
_symmetry_Int_Tables_number       1
_space_group_crystal_system       triclinic
_cell_length_a                    10.715808
_cell_length_b                    10.64819
_cell_length_c                    9.879429
_cell_angle_alpha                 89.69893
_cell_angle_beta                  91.125634
_cell_angle_gamma                 88.280086
_cell_volume                      1126.53740905

loop_
_atom_site_label
_atom_site_type_symbol
_atom_type_description
_atom_site_fract_x
_atom_site_fract_y
_atom_site_fract_z
_atom_type_partial_charge
C1    C     C_R   0.502057 0.260388 0.500144 0.873746
C2    C     C_R   0.071686 0.401212 0.585412 0.077958
C3    C     C_R   0.128066 0.483322 0.492957 -0.196301
C4    C     C_R   0.056193 0.558225 0.400575 -0.034401
C5    C     C_R   0.929130 0.560359 0.410145 -0.267575
C6    C     C_R   0.872087 0.486990 0.505849 -0.114422
C7    C     C_R   0.584314 0.059415 0.578085 0.018385
C8    C     C_R   0.497812 0.128823 0.500168 -0.086933
C9    C     C_R   0.403122 0.070682 0.427094 -0.300790
C10   C     C_R   0.402626 0.939895 0.422428 0.511991
C11   C     C_R   0.491902 0.871582 0.501027 -0.178158
C12   C     C_R   0.260274 0.496529 0.498140 0.869132
C13   C     C_R   0.578179 0.931177 0.582884 0.010570
C14   C     C_3   0.716733 0.911356 0.583973 -0.491521
C15   C     C_3   0.724530 0.053076 0.572263 -0.231901
C16   C     C_R   0.447717 0.404270 0.070711 0.194212
C17   C     C_R   0.540613 0.600152 0.072220 -0.129107
C18   C     C_R   0.540582 0.600194 0.928420 -0.150950
C19   C     C_R   0.448326 0.403851 0.928297 0.196272
C20   C     C_3   0.489339 0.268633 0.925245 0.323808
C21   C     C_3   0.486765 0.269090 0.079481 -0.567761
C22   C     C_R   0.496862 0.739552 0.499683 0.941917
C23   C     C_R   0.739591 0.493651 0.501917 0.873053
C24   C     C_R   0.141929 0.311127 0.663937 -0.113921
C25   C     C_R   0.084485 0.235484 0.758062 -0.073379
C26   C     C_R   0.956173 0.244963 0.773193 -0.160046
C27   C     C_R   0.884386 0.327242 0.691296 -0.138282
C28   C     C_R   0.941091 0.406338 0.595775 0.150876
H1    H     H_    0.750431 0.857583 0.494776 0.211368
H2    H     H_    0.769557 0.094765 0.662631 0.137450
H3    H     H_    0.576602 0.679667 0.126499 0.154447
H4    H     H_    0.576527 0.679793 0.874864 0.160251
H5    H     H_    0.583784 0.255333 0.881023 0.080961
H6    H     H_    0.412400 0.211773 0.123341 0.217147
H7    H     H_    0.580807 0.254089 0.127455 0.208442
H8    H     H_    0.241042 0.295417 0.651346 0.181202
H9    H     H_    0.139449 0.167984 0.818077 0.171225
H10   H     H_    0.911457 0.185236 0.845563 0.132760
H11   H     H_    0.784708 0.323717 0.702076 0.142753
H12   H     H_    0.873498 0.620156 0.341180 0.173525
H13   H     H_    0.332827 0.126463 0.371575 0.160440
H14   H     H_    0.752253 0.873684 0.683052 0.194263
N1    N     N_R   0.499160 0.499140 0.142800 -0.098309
N2    N     N_R   0.499160 0.499180 0.857150 -0.142365
O1    O     O_R   0.500020 0.316790 0.614690 -0.619414
O2    O     O_R   0.500000 0.316760 0.385350 -0.614952
O3    O     O_R   0.316770 0.500020 0.614690 -0.615409
O4    O     O_R   0.316760 0.499980 0.385350 -0.568912
O5    O     O_R   0.500000 0.683240 0.614650 -0.628785
O6    O     O_R   0.499980 0.683210 0.385310 -0.603648
O7    O     O_R   0.683240 0.500020 0.614650 -0.640333
O8    O     O_R   0.683230 0.499980 0.385310 -0.614783
Zn1   Zn    Zn3+2 0.500010 0.500020 0.653130 0.952364
Zn2   Zn    Zn3+2 0.499990 0.499980 0.346870 0.988545
C29   C     C_2   0.107885 0.635387 0.291213 0.963192
O9    O     O_2   0.086611 0.748803 0.288832 -0.601155
O10   O     O_R   0.170317 0.576882 0.184528 -0.779294
H15   H     H_    0.195740 0.638235 0.112140 0.324421
C30   C     C_2   0.777181 0.095001 0.438900 0.965544
O11   O     O_2   0.727185 0.066021 0.331527 -0.639420
O12   O     O_R   0.885404 0.164702 0.438923 -0.807789
H16   H     H_    0.911970 0.187762 0.344289 0.345660
O13   O     O_3   0.395538 0.195798 0.865110 -0.591846
C31   C     C_3   0.431843 0.067463 0.872356 -0.305136
H17   H     H_    0.416610 0.029979 0.975191 0.153408
H18   H     H_    0.530981 0.049582 0.845142 0.163174
H19   H     H_    0.372664 0.014767 0.800357 0.190534
O14   O     O_3   0.314876 0.877850 0.345247 -0.573134
C32   C     C_3   0.331998 0.905717 0.207151 -0.206426
H20   H     H_    0.278132 0.839491 0.144831 0.190413
H21   H     H_    0.431689 0.893874 0.178168 0.131712
H22   H     H_    0.295384 0.001861 0.181813 0.149435

loop_
_geom_bond_atom_site_label_1
_geom_bond_atom_site_label_2
_ccdc_geom_bond_type
C32   H22   S    
C23   O8    A    
C29   O9    D    
C17   N1    A    
C30   O11   D    
C16   C21   S    
C21   H7    S    
C18   N2    A    
C1    C8    S    
C2    C24   A    
C9    C10   A    
C11   C22   S    
C9    H13   S    
C19   C20   S    
O3    Zn1   S    
C22   O6    A    
C31   H17   S    
O2    Zn2   S    
C20   O13   S    
C7    C15   S    
C17   C18   A    
O10   H15   S    
O1    Zn1   S    
C7    C8    A    
O6    Zn2   S    
C14   H14   S    
C24   C25   A    
O4    Zn2   S    
C4    C5    A    
C11   C13   A    
C16   N1    A    
C1    O1    A    
C26   C27   A    
C24   H8    S    
C15   C30   S    
C12   O3    A    
O5    Zn1   S    
C6    C23   S    
C25   C26   A    
C12   O4    A    
O8    Zn2   S    
C2    C3    A    
C10   O14   S    
C32   H20   S    
C29   O10   S    
C4    C29   S    
C16   C19   A    
C5    C6    A    
C17   H3    S    
C3    C12   S    
C1    O2    A    
C30   O12   S    
C18   H4    S    
O12   H16   S    
C20   H5    S    
C14   H1    S    
O13   C31   S    
C31   H19   S    
C7    C13   A    
C19   N2    A    
C15   H2    S    
C10   C11   A    
C5    H12   S    
C22   O5    A    
C27   C28   A    
C32   H21   S    
C14   C15   S    
C26   H10   S    
C2    C28   A    
C21   H6    S    
N1    Zn2   S    
C25   H9    S    
C20   C21   S    
C13   C14   S    
C23   O7    A    
N2    Zn1   S    
O14   C32   S    
C6    C28   A    
C3    C4    A    
C27   H11   S    
C8    C9    A    
O7    Zn1   S    
C31   H18   S    
