data_mof_unit_61212.cif
_audit_creation_date              2012-12-10T17:59:47-0500
_audit_creation_method            fapswitch 2.2
_symmetry_space_group_name_H-M    P1
_symmetry_Int_Tables_number       1
_space_group_crystal_system       triclinic
_cell_length_a                    18.284257
_cell_length_b                    18.28412
_cell_length_c                    34.424697
_cell_angle_alpha                 90.002962
_cell_angle_beta                  90.002728
_cell_angle_gamma                 89.839826
_cell_volume                      11508.5287822

loop_
_atom_site_label
_atom_site_type_symbol
_atom_type_description
_atom_site_fract_x
_atom_site_fract_y
_atom_site_fract_z
_atom_type_partial_charge
C1    C     C_R   0.033204 0.557682 0.418173 0.013347
C2    C     C_R   0.545214 0.950962 0.081575 0.015461
C3    C     C_R   0.445498 0.960630 0.541046 -0.003383
C4    C     C_R   0.041164 0.553432 0.458935 -0.003574
C5    C     C_R   0.960366 0.445606 0.541049 -0.003392
C6    C     C_R   0.446343 0.959152 0.458926 -0.003543
C7    C     C_R   0.554624 0.039353 0.541054 -0.003366
C8    C     C_R   0.552520 0.957561 0.958942 -0.004894
C9    C     C_R   0.447377 0.042304 0.040952 -0.005292
C10   C     C_R   0.042528 0.447554 0.958941 -0.004881
C11   C     C_R   0.957625 0.552555 0.040953 -0.005279
C12   C     C_R   0.447483 0.042444 0.958942 -0.004890
C13   C     C_R   0.950700 0.544960 0.918327 0.015856
C14   C     C_R   0.552628 0.957708 0.040952 -0.005291
C15   C     C_R   0.957497 0.552465 0.958943 -0.004881
C16   C     C_R   0.042376 0.447433 0.040952 -0.005281
C17   C     C_R   0.196157 0.696177 0.250044 0.009655
C18   C     C_R   0.803522 0.304144 0.750192 0.008348
C19   C     C_R   0.303874 0.196113 0.250086 0.017756
C20   C     C_R   0.696125 0.803862 0.750037 0.010719
C21   C     C_R   0.803845 0.303821 0.250041 0.009656
C22   C     C_R   0.196478 0.695851 0.750203 0.008712
C23   C     C_R   0.696126 0.803887 0.250086 0.017756
C24   C     C_R   0.049103 0.454849 0.081576 0.015437
C25   C     C_R   0.303875 0.196137 0.750037 0.010733
C26   C     C_R   0.196137 0.303875 0.750037 0.010732
C27   C     C_R   0.803887 0.696126 0.250086 0.017756
C28   C     C_R   0.304145 0.803525 0.750202 0.008709
C29   C     C_R   0.696177 0.196157 0.250045 0.009655
C30   C     C_R   0.803862 0.696125 0.750037 0.010718
C31   C     C_R   0.196112 0.303873 0.250086 0.017758
C32   C     C_R   0.695853 0.196474 0.750195 0.008367
C33   C     C_R   0.303821 0.803845 0.250041 0.009653
C34   C     C_R   0.000008 0.499962 0.479445 -0.010322
C35   C     C_R   0.545018 0.950751 0.918328 0.015888
C36   C     C_R   0.000005 0.499961 0.520475 -0.010412
C37   C     C_R   0.500062 0.999986 0.479443 -0.010307
C38   C     C_R   0.500066 0.999987 0.520474 -0.010398
C39   C     C_R   0.500002 0.000004 0.979459 -0.010758
C40   C     C_R   0.500002 0.000005 0.020437 -0.010859
C41   C     C_R   0.000011 0.500006 0.979459 -0.010755
C42   C     C_R   0.000006 0.500000 0.020437 -0.010858
C43   C     C_R   0.454788 0.049046 0.081576 0.015454
C44   C     C_R   0.049322 0.455064 0.918327 0.015873
C45   C     C_R   0.950892 0.545129 0.081576 0.015445
C46   C     C_R   0.000002 0.499985 0.398172 0.019172
C47   C     C_R   0.999993 0.499979 0.601777 0.019599
C48   C     C_R   0.500026 0.000002 0.398169 0.019298
C49   C     C_R   0.969693 0.440890 0.581681 0.012912
C50   C     C_R   0.500034 0.000000 0.601778 0.019686
C51   C     C_R   0.500003 0.000002 0.898224 0.014833
C52   C     C_R   0.499998 0.000002 0.101708 0.013180
C53   C     C_R   0.000007 0.500007 0.898223 0.014868
C54   C     C_R   0.000001 0.499994 0.101708 0.013218
C55   C     C_R   0.910205 0.400772 0.479776 0.041957
C56   C     C_R   0.088532 0.600093 0.520551 0.042270
C57   C     C_R   0.599774 0.089220 0.479780 0.041965
C58   C     C_R   0.399458 0.911988 0.520533 0.042273
C59   C     C_R   0.089821 0.599146 0.479792 0.041956
C60   C     C_R   0.442129 0.967152 0.418165 0.013287
C61   C     C_R   0.911481 0.399828 0.520537 0.042270
C62   C     C_R   0.400356 0.910747 0.479774 0.041965
C63   C     C_R   0.600673 0.087986 0.520542 0.042272
C64   C     C_R   0.611337 0.925324 0.979565 0.041546
C65   C     C_R   0.388578 0.074552 0.020309 0.041457
C66   C     C_R   0.074847 0.388780 0.979562 0.041548
C67   C     C_R   0.925287 0.611305 0.020312 0.041460
C68   C     C_R   0.388667 0.074684 0.979563 0.041550
C69   C     C_R   0.611429 0.925458 0.020310 0.041458
C70   C     C_R   0.925173 0.611230 0.979566 0.041551
C71   C     C_R   0.559273 0.030027 0.581690 0.012863
C72   C     C_R   0.074707 0.388680 0.020307 0.041461
C73   C     C_R   0.500007 0.000002 0.355816 0.523685
C74   C     C_R   0.500010 1.000000 0.644160 0.523409
C75   C     C_R   0.000001 0.499998 0.355817 0.523626
C76   C     C_R   0.999998 0.499993 0.644160 0.523367
C77   C     C_R   0.000001 0.500002 0.855847 0.521156
C78   C     C_R   0.000002 0.499998 0.144130 0.520630
C79   C     C_R   0.500001 0.000000 0.855847 0.521137
C80   C     C_R   0.499999 0.000001 0.144130 0.520609
C81   C     C_R   0.359987 0.139958 0.250033 0.523728
C82   C     C_R   0.966804 0.442272 0.418162 0.013350
C83   C     C_R   0.639990 0.859994 0.750011 0.520281
C84   C     C_R   0.859976 0.359953 0.250013 0.521058
C85   C     C_R   0.140161 0.639911 0.750095 0.520868
C86   C     C_R   0.640012 0.860042 0.250033 0.523702
C87   C     C_R   0.360011 0.140005 0.750011 0.520262
C88   C     C_R   0.140025 0.640045 0.250014 0.521057
C89   C     C_R   0.859845 0.360080 0.750086 0.520730
C90   C     C_R   0.360087 0.859840 0.750093 0.520868
C91   C     C_R   0.640045 0.140025 0.250014 0.521059
C92   C     C_R   0.859994 0.639990 0.750011 0.520280
C93   C     C_R   0.030281 0.559061 0.581678 0.012933
C94   C     C_R   0.139958 0.359986 0.250033 0.523725
C95   C     C_R   0.639915 0.140157 0.750091 0.520739
C96   C     C_R   0.359954 0.859976 0.250013 0.521058
C97   C     C_R   0.140005 0.360010 0.750011 0.520258
C98   C     C_R   0.860042 0.640012 0.250033 0.523701
C99   C     C_R   0.230257 0.823706 0.255979 0.009790
C100  C     C_R   0.727695 0.218435 0.714891 0.009952
C101  C     C_R   0.196047 0.250200 0.279294 0.008635
C102  C     C_R   0.823588 0.769541 0.743952 0.009235
C103  C     C_R   0.769742 0.176297 0.255982 0.009792
C104  C     C_R   0.557944 0.032841 0.418161 0.013274
C105  C     C_R   0.271604 0.782246 0.714957 0.009920
C106  C     C_R   0.803936 0.749782 0.279306 0.008639
C107  C     C_R   0.176416 0.230463 0.743942 0.009228
C108  C     C_R   0.230464 0.176416 0.743942 0.009241
C109  C     C_R   0.749781 0.803937 0.279307 0.008643
C110  C     C_R   0.217750 0.728386 0.714958 0.009932
C111  C     C_R   0.823704 0.230257 0.255980 0.009786
C112  C     C_R   0.769540 0.823588 0.743952 0.009233
C113  C     C_R   0.250203 0.196047 0.279295 0.008640
C114  C     C_R   0.781532 0.272303 0.714887 0.009930
C115  C     C_R   0.440813 0.969979 0.581676 0.012878
C116  C     C_R   0.176297 0.769745 0.255980 0.009789
C117  C     C_R   0.771398 0.282565 0.785533 0.009862
C118  C     C_R   0.269738 0.676303 0.244172 0.009004
C119  C     C_R   0.676411 0.730460 0.756174 0.009420
C120  C     C_R   0.304215 0.250092 0.221058 0.009674
C121  C     C_R   0.229301 0.716741 0.785481 0.009817
C122  C     C_R   0.730263 0.323694 0.244170 0.009005
C123  C     C_R   0.323584 0.269536 0.756184 0.009413
C124  C     C_R   0.695801 0.749925 0.221045 0.009677
C125  C     C_R   0.749924 0.695801 0.221045 0.009679
C126  C     C_R   0.454984 0.049252 0.918328 0.015874
C127  C     C_R   0.269535 0.323585 0.756184 0.009425
C128  C     C_R   0.676304 0.269737 0.244171 0.009000
C129  C     C_R   0.283262 0.770708 0.785481 0.009828
C130  C     C_R   0.250092 0.304215 0.221058 0.009676
C131  C     C_R   0.730461 0.676411 0.756174 0.009415
C132  C     C_R   0.323694 0.730261 0.244171 0.009003
C133  C     C_R   0.717436 0.228615 0.785534 0.009836
C134  C     C_R   0.958853 0.446499 0.458926 -0.003573
C135  C     C_R   0.039633 0.554322 0.541053 -0.003404
C136  C     C_R   0.553770 0.040823 0.458927 -0.003535
Cl1   Cl    Cl    0.837774 0.353656 0.456352 -0.033906
Cl2   Cl    Cl    0.307417 0.103380 0.044214 -0.032622
Cl3   Cl    Cl    0.104094 0.307841 0.955594 -0.033348
Cl4   Cl    Cl    0.896303 0.692400 0.044222 -0.032624
Cl5   Cl    Cl    0.307681 0.103816 0.955598 -0.033336
Cl6   Cl    Cl    0.692592 0.896630 0.044217 -0.032621
Cl7   Cl    Cl    0.895959 0.692192 0.955604 -0.033343
Cl8   Cl    Cl    0.103628 0.307543 0.044211 -0.032623
Cl9   Cl    Cl    0.205661 0.915830 0.265249 -0.027736
Cl10  Cl    Cl    0.702944 0.176451 0.670515 -0.022267
Cl11  Cl    Cl    0.127532 0.250303 0.315577 -0.040557
Cl12  Cl    Cl    0.158387 0.649468 0.544874 -0.032508
Cl13  Cl    Cl    0.915607 0.793834 0.734540 -0.032122
Cl14  Cl    Cl    0.794338 0.084179 0.265251 -0.027738
Cl15  Cl    Cl    0.295573 0.825047 0.670675 -0.022785
Cl16  Cl    Cl    0.872429 0.749657 0.315609 -0.040550
Cl17  Cl    Cl    0.084403 0.206174 0.734521 -0.032182
Cl18  Cl    Cl    0.206177 0.084402 0.734519 -0.032119
Cl19  Cl    Cl    0.749653 0.872428 0.315609 -0.040515
Cl20  Cl    Cl    0.174943 0.704408 0.670681 -0.022780
Cl21  Cl    Cl    0.915825 0.205661 0.265251 -0.027748
Cl22  Cl    Cl    0.793833 0.915608 0.734540 -0.032159
Cl23  Cl    Cl    0.647346 0.161347 0.456354 -0.033932
Cl24  Cl    Cl    0.250312 0.127537 0.315582 -0.040517
Cl25  Cl    Cl    0.823395 0.297130 0.670490 -0.022232
Cl26  Cl    Cl    0.084177 0.794343 0.265248 -0.027748
Cl27  Cl    Cl    0.795755 0.325506 0.829795 -0.031037
Cl28  Cl    Cl    0.294386 0.584151 0.235011 -0.029894
Cl29  Cl    Cl    0.584414 0.706205 0.765661 -0.032960
Cl30  Cl    Cl    0.373494 0.250929 0.185230 -0.038897
Cl31  Cl    Cl    0.205749 0.672939 0.829617 -0.031579
Cl32  Cl    Cl    0.705614 0.415841 0.235010 -0.029896
Cl33  Cl    Cl    0.415577 0.293787 0.765680 -0.033031
Cl34  Cl    Cl    0.349757 0.842342 0.544836 -0.032533
Cl35  Cl    Cl    0.626549 0.749114 0.185195 -0.038889
Cl36  Cl    Cl    0.749111 0.626546 0.185196 -0.038877
Cl37  Cl    Cl    0.293785 0.415577 0.765681 -0.032961
Cl38  Cl    Cl    0.584155 0.294386 0.235010 -0.029900
Cl39  Cl    Cl    0.327060 0.794275 0.829619 -0.031571
Cl40  Cl    Cl    0.250927 0.373491 0.185227 -0.038887
Cl41  Cl    Cl    0.706206 0.584413 0.765660 -0.033017
Cl42  Cl    Cl    0.415842 0.705610 0.235012 -0.029899
Cl43  Cl    Cl    0.674504 0.204275 0.829799 -0.031062
Cl44  Cl    Cl    0.053129 0.638473 0.391569 -0.040148
Cl45  Cl    Cl    0.162276 0.646234 0.456378 -0.033903
Cl46  Cl    Cl    0.956279 0.358161 0.607522 -0.043113
Cl47  Cl    Cl    0.361226 0.947701 0.391548 -0.040277
Cl48  Cl    Cl    0.642031 0.043128 0.607561 -0.043204
Cl49  Cl    Cl    0.946863 0.361500 0.391537 -0.040143
Cl50  Cl    Cl    0.043596 0.641829 0.607495 -0.043003
Cl51  Cl    Cl    0.638814 0.052303 0.391530 -0.040290
Cl52  Cl    Cl    0.358004 0.956956 0.607507 -0.043088
Cl53  Cl    Cl    0.419480 0.125716 0.892582 -0.036710
Cl54  Cl    Cl    0.581001 0.874662 0.107269 -0.032487
Cl55  Cl    Cl    0.874197 0.580376 0.892576 -0.036754
Cl56  Cl    Cl    0.841623 0.350441 0.544843 -0.032557
Cl57  Cl    Cl    0.125441 0.419158 0.107278 -0.032541
Cl58  Cl    Cl    0.580516 0.874281 0.892580 -0.036658
Cl59  Cl    Cl    0.419006 0.125351 0.107273 -0.032497
Cl60  Cl    Cl    0.125828 0.419668 0.892576 -0.036706
Cl61  Cl    Cl    0.874537 0.580774 0.107273 -0.032556
Cl62  Cl    Cl    0.352801 0.838610 0.456343 -0.033929
Cl63  Cl    Cl    0.650380 0.157640 0.544843 -0.032579
Cl64  Cl    Cl    0.692322 0.896190 0.955600 -0.033341
O1    O     O_3   0.500000 0.000000 0.250000 -0.465928
O2    O     O_R   0.500000 0.939270 0.662450 -0.529619
O3    O     O_R   0.939270 0.500000 0.337550 -0.529627
O4    O     O_R   0.060730 0.500000 0.662450 -0.529606
O5    O     O_R   0.000000 0.439270 0.837550 -0.529230
O6    O     O_R   1.000000 0.560730 0.162450 -0.529774
O7    O     O_R   0.560730 0.000000 0.837550 -0.529246
O8    O     O_R   0.439270 0.000000 0.162450 -0.529789
O9    O     O_R   0.000000 0.560730 0.837550 -0.529234
O10   O     O_R   1.000000 0.439270 0.162450 -0.529790
O11   O     O_R   0.439270 0.000000 0.837550 -0.529222
O12   O     O_3   0.500000 0.000000 0.750000 -0.465701
O13   O     O_R   0.560730 0.000000 0.162450 -0.529778
O14   O     O_R   0.414490 0.146150 0.273020 -0.530357
O15   O     O_R   0.585510 0.853850 0.726980 -0.531147
O16   O     O_R   0.853850 0.414490 0.273020 -0.529018
O17   O     O_R   0.146150 0.585510 0.726980 -0.529198
O18   O     O_R   0.585510 0.853850 0.273020 -0.530360
O19   O     O_R   0.414490 0.146150 0.726980 -0.531139
O20   O     O_R   0.146150 0.585510 0.273020 -0.529029
O21   O     O_R   0.853850 0.414490 0.726980 -0.529236
O22   O     O_R   0.414490 0.853850 0.726980 -0.529211
O23   O     O_3   0.000000 0.500000 0.250000 -0.465928
O24   O     O_R   0.585510 0.146150 0.273020 -0.529037
O25   O     O_R   0.853850 0.585510 0.726980 -0.531138
O26   O     O_R   0.146150 0.414490 0.273020 -0.530358
O27   O     O_R   0.585510 0.146150 0.726980 -0.529234
O28   O     O_R   0.414490 0.853850 0.273020 -0.529024
O29   O     O_R   0.146150 0.414490 0.726980 -0.531150
O30   O     O_R   0.853850 0.585510 0.273020 -0.530358
O31   O     O_R   0.914490 0.646150 0.773020 -0.529170
O32   O     O_R   0.085510 0.353850 0.226980 -0.528839
O33   O     O_R   0.353850 0.914490 0.773020 -0.529431
O34   O     O_3   0.000000 0.500000 0.750000 -0.465700
O35   O     O_R   0.646150 0.085510 0.226980 -0.530930
O36   O     O_R   0.085510 0.353850 0.773020 -0.529166
O37   O     O_R   0.914490 0.646150 0.226980 -0.528838
O38   O     O_R   0.646150 0.085510 0.773020 -0.529444
O39   O     O_R   0.353850 0.914490 0.226980 -0.530941
O40   O     O_R   0.914490 0.353850 0.226980 -0.530943
O41   O     O_R   0.085510 0.646150 0.773020 -0.529442
O42   O     O_R   0.353850 0.085510 0.226980 -0.528837
O43   O     O_R   0.646150 0.914490 0.773020 -0.529163
O44   O     O_R   0.085510 0.646150 0.226980 -0.530932
O45   O     O_R   0.500000 0.939270 0.337550 -0.529633
O46   O     O_R   0.914490 0.353850 0.773020 -0.529432
O47   O     O_R   0.646150 0.914490 0.226980 -0.528837
O48   O     O_R   0.353850 0.085510 0.773020 -0.529171
O49   O     O_R   0.500000 0.060730 0.662450 -0.529610
O50   O     O_R   0.060730 0.500000 0.337550 -0.529640
O51   O     O_R   0.939270 0.500000 0.662450 -0.529623
O52   O     O_R   0.500000 0.060730 0.337550 -0.529647
Zn1   Zn    Zn3+2 0.413190 0.000000 0.217350 0.972837
Zn2   Zn    Zn3+2 0.086810 0.500000 0.282650 0.973708
Zn3   Zn    Zn3+2 0.500000 0.913190 0.717350 0.971836
Zn4   Zn    Zn3+2 0.500000 0.086810 0.282650 0.973718
Zn5   Zn    Zn3+2 0.086810 0.500000 0.717350 0.971823
Zn6   Zn    Zn3+2 0.913190 0.500000 0.282650 0.973707
Zn7   Zn    Zn3+2 0.500000 0.086810 0.717350 0.971790
Zn8   Zn    Zn3+2 0.500000 0.913190 0.282650 0.973715
Zn9   Zn    Zn3+2 0.586810 0.000000 0.782650 0.972430
Zn10  Zn    Zn3+2 1.000000 0.413190 0.217350 0.972836
Zn11  Zn    Zn3+2 1.000000 0.586810 0.782650 0.972472
Zn12  Zn    Zn3+2 0.586810 0.000000 0.217350 0.972832
Zn13  Zn    Zn3+2 0.413190 0.000000 0.782650 0.972467
Zn14  Zn    Zn3+2 0.000000 0.586810 0.217350 0.972835
Zn15  Zn    Zn3+2 0.000000 0.413190 0.782650 0.972429
Zn16  Zn    Zn3+2 0.913190 0.500000 0.717350 0.971784

loop_
_geom_bond_atom_site_label_1
_geom_bond_atom_site_label_2
_ccdc_geom_bond_type
C58   C62   A    
O34   Zn5   S    
C105  C110  A    
C36   C135  A    
C27   C98   S    
C127  Cl37  S    
C86   O47   A    
C83   O43   A    
C96   O28   A    
C17   C88   S    
C101  C113  A    
C41   C42   A    
C44   Cl60  S    
C102  C112  A    
C16   C72   A    
O1    Zn12  S    
O16   Zn6   S    
C117  C133  A    
C56   Cl12  S    
C18   C114  A    
C72   Cl8   S    
C131  Cl41  S    
C94   O32   A    
C87   O48   A    
C47   C49   A    
C98   O37   A    
O22   Zn3   S    
C117  Cl27  S    
C79   O11   A    
C74   O49   A    
C12   C68   A    
C118  Cl28  S    
C70   Cl7   S    
O35   Zn12  S    
O32   Zn10  S    
C120  C130  A    
C31   C101  A    
C116  Cl26  S    
C29   C128  A    
C58   Cl34  S    
C14   C40   A    
C47   C76   S    
C90   O22   A    
C31   C130  A    
C77   O5    A    
C50   C74   S    
C51   C79   S    
C7    C71   A    
C32   C133  A    
C1    Cl44  S    
C79   O7    A    
C1    C46   A    
C73   O45   A    
C19   C113  A    
C24   C54   A    
C30   C131  A    
C48   C104  A    
C5    C36   A    
C91   O35   A    
O11   Zn13  S    
C23   C124  A    
O17   Zn5   S    
C89   O46   A    
C29   C103  A    
C11   C42   A    
C103  C111  A    
C50   C115  A    
C86   O18   A    
C22   C85   S    
C21   C122  A    
C59   Cl45  S    
O45   Zn8   S    
C85   O17   A    
O23   Zn14  S    
C103  Cl14  S    
C98   O30   A    
C123  C127  A    
C44   C53   A    
C97   O29   A    
C66   Cl3   S    
O5    Zn15  S    
C3    C38   A    
C100  Cl10  S    
C22   C110  A    
C23   C86   S    
O20   Zn2   S    
O39   Zn1   S    
C61   Cl56  S    
C119  C131  A    
C107  C108  A    
C57   C136  A    
C48   C60   A    
C8    C39   A    
C87   O19   A    
C75   O50   A    
C45   C54   A    
C119  Cl29  S    
O25   Zn16  S    
O44   Zn14  S    
O47   Zn12  S    
C35   Cl58  S    
O3    Zn6   S    
C77   O9    A    
O50   Zn2   S    
O52   Zn4   S    
C73   O52   A    
C93   Cl50  S    
C60   Cl47  S    
C57   Cl23  S    
C9    C43   A    
C16   C24   A    
C20   C112  A    
C10   C41   A    
C122  C128  A    
C18   C89   S    
C5    C49   A    
C84   O40   A    
O49   Zn7   S    
C2    C14   A    
C113  Cl24  S    
C48   C73   S    
O15   Zn3   S    
C46   C75   S    
C21   C111  A    
C11   C67   A    
C57   C63   A    
C13   C53   A    
C10   C66   A    
C23   C109  A    
O7    Zn9   S    
C66   C72   A    
O12   Zn9   S    
C37   C136  A    
C106  Cl16  S    
O13   Zn12  S    
C120  Cl30  S    
C15   C70   A    
C46   C82   A    
C122  Cl32  S    
C62   Cl62  S    
C30   C92   S    
O40   Zn10  S    
C99   C116  A    
C3    C115  A    
C75   O3    A    
C133  Cl43  S    
C114  Cl25  S    
O43   Zn9   S    
O48   Zn13  S    
C82   Cl49  S    
C92   O31   A    
C130  Cl40  S    
C69   Cl6   S    
C97   O36   A    
O14   Zn4   S    
C9    C40   A    
C88   O20   A    
C90   O33   A    
O37   Zn14  S    
C43   Cl59  S    
C95   O38   A    
C81   O42   A    
C82   C134  A    
C126  Cl53  S    
C53   C77   S    
C50   C71   A    
C78   O6    A    
C88   O44   A    
C37   C38   A    
C2    C52   A    
C12   C126  A    
C6    C60   A    
O36   Zn15  S    
O28   Zn8   S    
O4    Zn5   S    
O34   Zn16  S    
C81   O14   A    
C105  Cl15  S    
C21   C84   S    
C28   C105  A    
C65   C68   A    
C7    C63   A    
C30   C102  A    
C9    C65   A    
C85   O41   A    
C47   C93   A    
C6    C37   A    
C100  C114  A    
C68   Cl5   S    
C118  C132  A    
C107  Cl17  S    
C64   C69   A    
C67   Cl4   S    
C25   C123  A    
C18   C117  A    
C15   C41   A    
C123  Cl33  S    
C112  Cl22  S    
C17   C118  A    
C8    C64   A    
C10   C44   A    
C121  Cl31  S    
O34   Zn11  S    
C80   O8    A    
C19   C120  A    
C13   C15   A    
C31   C94   S    
C35   C51   A    
C14   C69   A    
C11   C45   A    
O19   Zn7   S    
O8    Zn1   S    
C65   Cl2   S    
O46   Zn15  S    
O1    Zn4   S    
C33   C96   S    
C16   C42   A    
C29   C91   S    
C56   C135  A    
C109  Cl19  S    
C33   C132  A    
C22   C121  A    
C28   C129  A    
C104  Cl51  S    
O31   Zn11  S    
C101  Cl11  S    
C104  C136  A    
C51   C126  A    
C52   C80   S    
C71   Cl48  S    
C129  Cl39  S    
C2    Cl54  S    
C121  C129  A    
C25   C87   S    
C93   C135  A    
C13   Cl55  S    
C26   C107  A    
O12   Zn13  S    
O23   Zn6   S    
C83   O15   A    
C76   O4    A    
O2    Zn3   S    
C80   O13   A    
C84   O16   A    
O9    Zn11  S    
O27   Zn7   S    
O24   Zn4   S    
C55   C134  A    
C74   O2    A    
O6    Zn14  S    
O12   Zn7   S    
C128  Cl38  S    
C55   Cl1   S    
C56   C59   A    
C1    C4    A    
O18   Zn8   S    
C67   C70   A    
O12   Zn3   S    
C64   Cl64  S    
C111  Cl21  S    
O1    Zn8   S    
C78   O10   A    
O21   Zn16  S    
C34   C134  A    
C89   O21   A    
C115  Cl52  S    
C27   C125  A    
O23   Zn2   S    
C6    C62   A    
O34   Zn15  S    
C124  Cl35  S    
C24   Cl57  S    
C12   C39   A    
O1    Zn1   S    
C55   C61   A    
C4    C59   A    
C96   O39   A    
C7    C38   A    
C63   Cl63  S    
C27   C106  A    
C34   C36   A    
C26   C127  A    
O23   Zn10  S    
C4    C34   A    
C99   Cl9   S    
C43   C52   A    
C95   O27   A    
C110  Cl20  S    
C92   O25   A    
C94   O26   A    
C26   C97   S    
O33   Zn13  S    
C49   Cl46  S    
C39   C40   A    
C3    C58   A    
C32   C100  A    
O26   Zn2   S    
C32   C95   S    
C108  Cl18  S    
C25   C108  A    
O41   Zn11  S    
C20   C83   S    
O10   Zn10  S    
O42   Zn1   S    
O30   Zn6   S    
C102  Cl13  S    
O38   Zn9   S    
C28   C90   S    
C125  Cl36  S    
C33   C99   A    
C91   O24   A    
C19   C81   S    
C76   O51   A    
C45   Cl61  S    
O51   Zn16  S    
C8    C35   A    
C20   C119  A    
C5    C61   A    
C17   C116  A    
C132  Cl42  S    
C124  C125  A    
C54   C78   S    
C106  C109  A    
O29   Zn5   S    
