data_mof_unit_37960.cif
_audit_creation_date              2012-12-11T15:57:50-0500
_audit_creation_method            fapswitch 2.2
_symmetry_space_group_name_H-M    P1
_symmetry_Int_Tables_number       1
_space_group_crystal_system       triclinic
_cell_length_a                    10.703933
_cell_length_b                    10.745573
_cell_length_c                    17.03813
_cell_angle_alpha                 99.52856
_cell_angle_beta                  99.857937
_cell_angle_gamma                 61.593999
_cell_volume                      1690.30487542

loop_
_atom_site_label
_atom_site_type_symbol
_atom_type_description
_atom_site_fract_x
_atom_site_fract_y
_atom_site_fract_z
_atom_type_partial_charge
C1    C     C_R   0.353059 0.778589 0.403244 0.564018
C2    C     C_2   0.335919 0.354081 0.835061 -0.147974
C3    C     C_2   0.459090 0.278505 0.803711 -0.139200
C4    C     C_R   0.369297 0.346506 0.357214 0.545458
C5    C     C_2   0.472701 0.277443 0.720067 0.226610
C6    C     C_1   0.818196 0.342088 0.708680 -0.006905
C7    C     C_1   0.844834 0.313571 0.776308 -0.007365
C8    C     C_1   0.358289 0.764718 0.713656 -0.043207
C9    C     C_1   0.325190 0.811892 0.780336 -0.047287
C10   C     C_R   0.891624 0.308538 0.085395 0.545894
C11   C     C_R   0.319075 0.299233 0.119829 0.541759
C12   C     C_2   0.815252 0.337034 0.153895 -0.090450
C13   C     C_R   0.262196 0.948637 0.095575 0.556799
C14   C     C_R   0.885572 0.296986 0.858541 0.553065
C15   C     C_R   0.308955 0.296524 0.896905 0.556630
C16   C     C_R   0.775517 0.377159 0.404625 0.562920
C17   C     C_R   0.280111 0.881293 0.857043 0.560632
C18   C     C_R   0.381242 0.714616 0.631614 0.562181
C19   C     C_R   0.375492 0.350465 0.586523 0.562853
C20   C     C_R   0.773584 0.380946 0.629645 0.548725
C21   C     C_1   0.342636 0.336286 0.273885 -0.049082
C22   C     C_1   0.331743 0.325924 0.203063 -0.045732
C23   C     C_2   0.815675 0.234048 0.189651 -0.045046
C24   C     C_2   0.841693 0.328479 0.330729 -0.012091
C25   C     C_3   0.847088 0.086689 0.150860 -0.347062
C26   C     C_3   0.666006 0.063535 0.691645 0.029823
C27   C     C_3   0.805639 0.993808 0.652957 -0.243332
C28   C     C_3   0.871830 0.831896 0.646247 -0.472639
C29   C     C_3   0.967129 0.352549 0.323406 -0.392622
C30   C     C_2   0.780353 0.268092 0.271388 -0.120669
C31   C     C_2   0.317784 0.871872 0.341518 -0.116639
C32   C     C_2   0.301504 0.898144 0.174151 -0.115311
C33   C     C_2   0.388116 0.931293 0.230295 -0.171294
C34   C     C_2   0.418702 0.882108 0.310058 -0.156201
C35   C     C_2   0.356166 0.337096 0.665995 -0.079916
Cr1   Cr    Cr6+3 0.608020 0.610770 0.522990 1.007143
Cr2   Cr    Cr6+3 0.289390 0.599570 0.488050 1.012541
Cr3   Cr    Cr6+3 0.602610 0.289690 0.489020 1.016760
Cr4   Cr    Cr6+3 0.053780 0.052210 0.965970 1.008253
Cr5   Cr    Cr6+3 0.060060 0.372530 0.992430 1.028145
Cr6   Cr    Cr6+3 0.372600 0.061970 0.991430 1.019976
H1    H     H_    0.246885 0.443674 0.807699 0.101818
H2    H     H_    0.819921 0.029759 0.188563 0.117526
H3    H     H_    0.782208 0.092842 0.091956 0.152896
H4    H     H_    0.962535 0.022991 0.144033 0.162540
H5    H     H_    0.589649 0.029253 0.653878 0.143188
H6    H     H_    0.689284 0.025462 0.751852 0.122502
H7    H     H_    0.784713 0.028720 0.592118 0.185585
H8    H     H_    0.882850 0.027492 0.689486 0.177272
H9    H     H_    0.896253 0.794095 0.706544 0.157121
H10   H     H_    0.972814 0.784783 0.618000 0.167880
H11   H     H_    0.797637 0.795270 0.608733 0.153292
H12   H     H_    0.247639 0.387727 0.681556 0.044979
H13   H     H_    0.029030 0.282520 0.273609 0.135417
H14   H     H_    0.929006 0.465482 0.314374 0.140884
H15   H     H_    0.041507 0.327674 0.379265 0.132658
H16   H     H_    0.694768 0.247319 0.281766 0.153327
H17   H     H_    0.777208 0.443914 0.184399 0.110045
H18   H     H_    0.442011 0.987627 0.216510 0.156771
H19   H     H_    0.527598 0.841705 0.338738 0.155774
H20   H     H_    0.253136 0.835883 0.187116 0.114698
H21   H     H_    0.207763 0.918961 0.314220 0.108321
H22   H     H_    0.550156 0.200321 0.837682 0.152374
O1    O     O_R   0.749250 0.499990 0.439200 -0.511937
O2    O     O_R   0.411120 0.181190 0.091480 -0.528612
O3    O     O_R   0.364220 0.944920 0.062310 -0.485680
O4    O     O_R   0.477870 0.725740 0.440280 -0.493127
O5    O     O_R   0.158740 0.906940 0.874970 -0.506221
O6    O     O_R   0.930920 0.176940 0.885610 -0.498040
O7    O     O_R   0.910730 0.394510 0.895320 -0.511609
O8    O     O_R   0.185840 0.361180 0.920280 -0.492984
O9    O     O_R   0.399210 0.173040 0.915160 -0.517695
O10   O     O_R   0.353170 0.937370 0.898860 -0.487461
O11   O     O_3   0.162150 0.162240 0.983280 -0.267857
O12   O     O_R   0.299400 0.468710 0.556310 -0.522789
O13   O     O_R   0.260770 0.742210 0.412610 -0.509034
O14   O     O_R   0.297990 0.466320 0.394220 -0.494253
O15   O     O_R   0.487720 0.253870 0.385870 -0.522805
O16   O     O_R   0.721940 0.304340 0.422320 -0.511931
O17   O     O_R   0.750770 0.502570 0.614050 -0.525491
O18   O     O_R   0.479280 0.728140 0.602370 -0.497074
O19   O     O_R   0.262290 0.744790 0.587460 -0.517535
O20   O     O_3   0.610657 0.213191 0.698039 -0.539796
O21   O     O_R   0.489240 0.256450 0.560730 -0.473653
O22   O     O_R   0.723350 0.306730 0.584410 -0.479678
O23   O     O_3   0.500010 0.500010 0.500020 -0.267351
O24   O     O_R   0.170650 0.915100 0.051290 -0.522668
O25   O     O_R   0.941960 0.184500 0.049060 -0.514640
O26   O     O_R   0.922640 0.402670 0.071640 -0.511470
O27   O     O_R   0.196880 0.368740 0.083740 -0.495635

loop_
_geom_bond_atom_site_label_1
_geom_bond_atom_site_label_2
_ccdc_geom_bond_type
C27   H7    S    
C17   O10   A    
C26   O20   S    
Cr5   O8    S    
C35   H12   S    
Cr4   O5    S    
C13   C32   S    
C29   H14   S    
Cr4   O24   S    
C25   H2    S    
Cr1   O4    S    
C15   O9    A    
C12   C23   D    
C10   O25   A    
C26   C27   S    
Cr5   O7    S    
Cr3   O23   S    
C32   H20   S    
C5    O20   S    
C28   H10   S    
Cr3   O16   S    
C30   H16   S    
C1    C31   S    
C18   O18   A    
Cr4   O11   S    
C24   C29   S    
C18   O19   A    
Cr6   O11   S    
C28   H9    S    
C7    C14   S    
C10   O26   A    
C8    C9    T    
Cr5   O26   S    
C12   H17   S    
Cr2   O12   S    
C33   H18   S    
C21   C22   T    
C34   H19   S    
C14   O7    A    
C31   H21   S    
Cr4   O25   S    
C25   H3    S    
C13   O3    A    
C20   O17   A    
Cr3   O22   S    
C23   C30   S    
Cr2   O23   S    
Cr1   O17   S    
Cr6   O2    S    
Cr3   O15   S    
Cr1   O23   S    
Cr2   O14   S    
C8    C18   S    
C4    O15   A    
Cr1   O18   S    
C20   O22   A    
C13   O24   A    
C33   C34   S    
Cr4   O6    S    
C31   C34   D    
C2    C15   S    
Cr6   O3    S    
C10   C12   S    
C26   H6    S    
Cr6   O9    S    
C9    C17   S    
Cr2   O13   S    
C14   O6    A    
Cr2   O19   S    
C19   O21   A    
C25   H4    S    
C6    C20   S    
C17   O5    A    
Cr3   O21   S    
C1    O13   A    
C3    C5    S    
C6    C7    T    
C29   H15   S    
C3    H22   S    
C15   O8    A    
C11   C22   S    
C16   O16   A    
C32   C33   D    
C19   O12   A    
C2    C3    D    
C4    O14   A    
C19   C35   S    
C4    C21   S    
C28   H11   S    
C11   O27   A    
C2    H1    S    
C5    C35   D    
C1    O4    A    
Cr5   O11   S    
C23   C25   S    
C24   C30   D    
C26   H5    S    
Cr6   O10   S    
C27   H8    S    
C16   C24   S    
C29   H13   S    
C27   C28   S    
C16   O1    A    
Cr5   O27   S    
Cr1   O1    S    
C11   O2    A    
