data_mof_unit_22931.cif
_audit_creation_date              2013-03-05T15:55:18-0500
_audit_creation_method            fapswitch 2.2
_symmetry_space_group_name_H-M    P1
_symmetry_Int_Tables_number       1
_space_group_crystal_system       triclinic
_cell_length_a                    27.624037
_cell_length_b                    10.613739
_cell_length_c                    9.907659
_cell_angle_alpha                 89.80776
_cell_angle_beta                  90.735767
_cell_angle_gamma                 92.030549
_cell_volume                      2902.79371181

loop_
_atom_site_label
_atom_site_type_symbol
_atom_site_description
_atom_site_fract_x
_atom_site_fract_y
_atom_site_fract_z
_atom_type_partial_charge
O1    O     O_R   0.500000 0.316780 0.614690 -0.641970
O2    O     O_R   0.500000 0.316750 0.385360 -0.626005
C1    C     C_R   0.501066 0.260700 0.500253 0.848056
O3    O     O_R   0.428760 0.500030 0.614650 -0.634812
O4    O     O_R   0.428750 0.500010 0.385320 -0.646896
C2    C     C_R   0.405995 0.499500 0.499135 0.862624
Zn1   Zn    Zn3+2 0.500000 0.500020 0.653130 0.937424
Zn2   Zn    Zn3+2 0.500000 0.499980 0.346870 0.972122
O5    O     O_R   0.500000 0.683250 0.614640 -0.620055
O6    O     O_R   0.500000 0.683220 0.385310 -0.606267
O7    O     O_R   0.571250 0.499990 0.614680 -0.638750
O8    O     O_R   0.571240 0.499970 0.385350 -0.557014
C3    C     C_R   0.501296 0.739439 0.499783 0.877898
C4    C     C_R   0.594068 0.501143 0.501025 0.914042
C5    C     C_R   0.175032 0.373319 0.454584 0.496765
O9    O     O_2   0.198643 0.268163 0.423810 -0.582615
N1    N     N_R   0.200530 0.481864 0.485440 -0.337435
C6    C     C_R   0.178306 0.592360 0.509200 0.552093
C7    C     C_R   0.277659 0.492803 0.370094 -0.168427
C8    C     C_R   0.327883 0.500552 0.373061 -0.241316
C9    C     C_R   0.327341 0.484490 0.617649 -0.288682
C10   C     C_R   0.276786 0.476791 0.615221 0.265189
C11   C     C_R   0.252094 0.481102 0.490400 0.311247
C12   C     C_R   0.100533 0.481515 0.488843 -0.083087
C13   C     C_R   0.124536 0.370407 0.458166 0.006597
C14   C     C_R   0.097649 0.259898 0.428912 -0.163252
C15   C     C_R   0.127388 0.596704 0.503453 -0.157209
C16   C     C_R   0.353069 0.495583 0.496732 -0.061492
H1    H     H_    0.346305 0.480668 0.713922 0.166743
H2    H     H_    0.115063 0.175759 0.395599 0.201907
C17   C     C_R   0.647007 0.496311 0.506714 -0.196551
C18   C     C_R   0.972609 0.354079 0.519299 -0.027822
C19   C     C_R   0.976324 0.581731 0.565593 0.052166
C20   C     C_R   0.949202 0.467299 0.548346 0.044990
C21   C     C_R   0.944880 0.238539 0.527914 0.076811
C22   C     C_R   0.893891 0.239616 0.525884 0.392300
C23   C     C_R   0.870365 0.355440 0.534955 -0.136319
C24   C     C_R   0.898289 0.466853 0.561471 -0.154760
C25   C     C_R   0.875344 0.578573 0.599503 -0.107972
C26   C     C_R   0.824585 0.580167 0.591848 0.634207
N2    N     N_R   0.798641 0.475957 0.549010 -0.354183
C27   C     C_R   0.819773 0.364693 0.522773 0.619012
C28   C     C_R   0.717724 0.435068 0.634447 -0.129063
C29   C     C_R   0.667990 0.441666 0.621756 -0.267496
C30   C     C_R   0.676998 0.545794 0.403234 0.316147
C31   C     C_R   0.727454 0.538073 0.416537 0.404067
C32   C     C_R   0.747431 0.483027 0.532734 0.134963
O10   O     O_2   0.791627 0.265708 0.480854 -0.450488
C33   C     C_R   0.023143 0.360306 0.491491 0.090398
C34   C     C_R   0.049705 0.476981 0.504844 0.026414
C35   C     C_R   0.025789 0.589397 0.531367 -0.064124
C36   C     C_R   0.047685 0.256278 0.440692 -0.157687
H3    H     H_    0.645867 0.403302 0.702582 0.189301
H4    H     H_    0.733380 0.392755 0.723771 0.184245
H5    H     H_    0.029068 0.171762 0.404870 0.209649
O11   O     O_2   0.205703 0.695852 0.541296 -0.577898
C37   C     C_R   0.102323 0.710818 0.507536 0.175230
H6    H     H_    0.346930 0.509769 0.278462 0.174692
H7    H     H_    0.258432 0.497455 0.274352 0.146447
C38   C     C_R   0.954025 0.682656 0.628165 -0.193293
C39   C     C_R   0.904229 0.683238 0.643744 0.457626
O12   O     O_2   0.800944 0.685228 0.621938 -0.429964
C40   C     C_R   0.051598 0.706160 0.512712 0.328801
H8    H     H_    0.975377 0.761478 0.668552 0.197668
H9    H     H_    0.437361 0.108794 0.385144 0.163624
C41   C     C_R   0.583131 0.138414 0.622555 -0.175123
H10   H     H_    0.584873 0.240167 0.622815 0.149385
C42   C     C_R   0.621801 0.076122 0.680969 -0.096210
H11   H     H_    0.651892 0.129785 0.725892 0.162472
C43   C     C_R   0.621995 0.945021 0.680092 -0.077066
H12   H     H_    0.652239 0.896779 0.724353 0.178040
C44   C     C_R   0.583525 0.875849 0.620791 -0.176226
H13   H     H_    0.585648 0.774322 0.619524 0.148827
C45   C     C_R   0.543795 0.937724 0.562263 0.090322
C46   C     C_R   0.543615 0.069689 0.563059 0.101412
C47   C     C_R   0.504230 0.128670 0.500388 -0.082039
C48   C     C_R   0.467011 0.061419 0.434064 -0.210248
H14   H     H_    0.437555 0.880178 0.384203 0.158174
C49   C     C_R   0.467150 0.932754 0.433439 -0.188362
C50   C     C_R   0.504521 0.871971 0.499131 -0.091659
H15   H     H_    0.553847 0.643827 0.126595 0.193140
C51   C     C_R   0.436518 0.333497 0.138476 -0.177539
H16   H     H_    0.435146 0.329585 0.245363 0.205492
C52   C     C_R   0.405504 0.248937 0.067846 0.239411
C53   C     C_R   0.406229 0.249293 0.927404 -0.278963
H17   H     H_    0.382737 0.184466 0.870521 0.152152
C54   C     C_R   0.436918 0.332859 0.858371 -0.187866
H18   H     H_    0.434739 0.327354 0.751290 0.215595
C55   C     C_R   0.468775 0.417837 0.926932 0.170889
C56   C     C_R   0.468667 0.418042 0.071421 0.111850
N3    N     N_R   0.499540 0.498800 0.142780 -0.122844
C57   C     C_R   0.529705 0.578989 0.072261 -0.052265
H19   H     H_    0.554040 0.643307 0.875894 0.156693
C58   C     C_R   0.529742 0.578858 0.929122 -0.097735
N4    N     N_R   0.499520 0.498720 0.857170 -0.122070
N5    N     N_2   0.126365 0.830657 0.488599 -0.251438
H20   H     H_    0.154960 0.834235 0.422791 0.268839
C59   C     C_3   0.133100 0.906109 0.609223 -0.628319
H21   H     H_    0.157910 0.859715 0.681480 0.252429
H22   H     H_    0.097815 0.919910 0.658701 0.240208
H23   H     H_    0.148991 0.000235 0.581956 0.236251
Cl1   Cl    Cl    0.652783 0.623455 0.260846 -0.533058
Cl2   Cl    Cl    0.881457 0.816710 0.723842 -0.443440
Cl3   Cl    Cl    0.766094 0.596868 0.288606 -0.442122
Cl4   Cl    Cl    0.021749 0.843523 0.459427 -0.642563
N6    N     N_2   0.250795 0.468546 0.738081 -0.303046
H24   H     H_    0.267072 0.519987 0.815468 0.230158
C60   C     C_3   0.238212 0.341008 0.779804 -0.773171
H25   H     H_    0.216365 0.343162 0.873006 0.244045
H26   H     H_    0.271547 0.288300 0.801174 0.235234
H27   H     H_    0.216309 0.291276 0.700455 0.270794
N7    N     N_2   0.375543 0.158364 0.137415 -0.318418
H28   H     H_    0.359494 0.089602 0.076646 0.232039
C61   C     C_3   0.342400 0.207811 0.234254 -0.769237
H29   H     H_    0.319698 0.129309 0.276884 0.258151
H30   H     H_    0.318242 0.275888 0.184371 0.250373
H31   H     H_    0.362464 0.253782 0.319419 0.233500
Cl5   Cl    Cl    0.860980 0.092979 0.529222 -0.418508
N8    N     N_2   0.967923 0.122932 0.555388 -0.296922
H32   H     H_    0.952482 0.043810 0.510095 0.320051
C62   C     C_3   0.980885 0.103836 0.695653 -0.630185
H33   H     H_    0.001191 0.015861 0.706285 0.250733
H34   H     H_    0.947730 0.095271 0.757840 0.273622
H35   H     H_    0.004435 0.183622 0.733072 0.227799

loop_
_geom_bond_atom_site_label_1
_geom_bond_atom_site_label_2
_geom_bond_distance
_ccdc_geom_bond_type
C41   C42   1.394544 A    
C54   H18   1.063539 S    
H19   C58   1.081970 S    
N2    C27   1.362991 A    
C21   N8    1.426016 S    
C21   C22   1.408844 A    
C12   C15   1.414269 A    
C4    C17   1.465471 S    
C28   C29   1.382227 A    
N7    C61   1.447119 S    
C61   H29   1.110548 S    
C53   H17   1.083397 S    
Zn1   O7    2.009548 S    
N1    C11   1.424917 S    
N6    C60   1.445912 S    
C22   C23   1.414411 A    
C39   Cl2   1.765184 S    
O4    C2    1.297945 A    
O7    C4    1.297319 A    
C5    C13   1.395049 A    
N6    H24   1.031831 S    
C5    O9    1.350190 S    
C59   H21   1.110694 S    
C26   O12   1.348189 S    
C60   H25   1.110347 S    
N1    C6    1.365395 A    
C23   C27   1.408061 A    
O5    C3    1.283311 A    
C62   H35   1.111164 S    
H15   C57   1.081136 S    
C29   H3    1.083182 S    
C2    C16   1.461041 S    
C7    C8    1.386856 A    
C60   H26   1.111958 S    
C42   H11   1.082651 S    
C37   N5    1.426833 S    
N5    C59   1.447195 S    
C43   H12   1.082536 S    
C40   Cl4   1.775672 S    
C22   Cl5   1.774831 S    
C36   H5    1.076965 S    
C6    O11   1.348223 S    
C48   C49   1.365790 A    
C41   H10   1.079356 S    
C3    C50   1.406322 S    
O1    Zn1   1.983054 S    
C9    C10   1.395945 A    
O3    Zn1   1.999720 S    
N7    H28   1.031924 S    
C37   C40   1.401924 A    
C47   C48   1.390016 A    
N8    C62   1.446033 S    
C12   C34   1.414134 A    
C25   C39   1.412208 A    
H9    C48   1.084409 S    
C17   C29   1.404956 A    
C53   C54   1.389488 A    
C18   C21   1.425584 A    
C35   C40   1.420397 A    
C12   C13   1.409141 A    
C44   C45   1.415686 A    
C15   C37   1.417209 A    
N3    C57   1.366606 A    
H14   C49   1.084876 S    
C27   O10   1.348151 S    
C8    C16   1.403005 A    
C7    H7    1.083024 S    
C13   C14   1.395129 A    
C30   C31   1.403609 A    
C31   Cl3   1.765646 S    
C43   C44   1.394683 A    
C38   C39   1.386401 A    
O1    C1    1.283464 A    
C18   C20   1.416742 A    
C55   N4    1.376755 A    
C7    C11   1.396179 A    
C46   C47   1.410474 A    
C23   C24   1.412311 A    
C14   C36   1.385811 A    
C28   H4    1.083144 S    
Zn2   O8    1.999717 S    
C33   C36   1.413349 A    
N5    H20   1.030246 S    
C57   C58   1.418189 A    
C34   C35   1.411224 A    
N2    C32   1.426306 S    
Zn2   N3    2.022009 S    
C52   N7    1.427586 S    
C52   C53   1.391843 A    
C1    C47   1.407134 S    
C62   H33   1.110210 S    
O3    C2    1.298709 A    
C26   N2    1.362457 A    
C9    C16   1.403272 A    
O8    C4    1.300872 A    
C51   H16   1.060788 S    
C19   C38   1.404369 A    
C59   H22   1.111170 S    
C54   C55   1.407776 A    
C8    H6    1.083174 S    
C25   C26   1.403959 A    
C5    N1    1.362419 A    
C31   C32   1.404723 A    
C20   C24   1.413914 A    
Zn2   O6    1.983054 S    
O2    Zn2   1.980534 S    
C6    C15   1.409371 A    
C44   H13   1.081373 S    
O6    C3    1.282821 A    
O4    Zn2   2.009551 S    
C61   H30   1.111300 S    
N8    H32   1.029946 S    
C14   H2    1.083662 S    
C19   C35   1.411602 A    
C59   H23   1.110815 S    
Zn1   N4    2.021769 S    
C51   C52   1.401262 A    
C51   C56   1.410660 A    
C60   H27   1.109377 S    
C38   H8    1.081262 S    
O2    C1    1.283118 A    
C10   N6    1.422015 S    
C56   N3    1.377914 A    
C24   C25   1.418508 A    
C9    H1    1.083646 S    
C41   C46   1.414578 A    
C19   C20   1.413952 A    
C58   N4    1.366422 A    
C18   C33   1.425539 A    
C62   H34   1.111264 S    
C61   H31   1.108516 S    
C30   Cl1   1.767495 S    
C49   C50   1.390201 A    
Zn1   O5    1.980537 S    
C45   C46   1.400882 A    
C42   C43   1.391727 A    
C33   C34   1.422536 A    
C17   C30   1.414444 A    
C10   C11   1.406018 A    
C45   C50   1.409676 A    
C55   C56   1.431591 A    
C28   C32   1.391506 A    
