data_mof_unit_53527.cif
_audit_creation_date              2012-12-10T18:58:36-0500
_audit_creation_method            fapswitch 2.2
_symmetry_space_group_name_H-M    P1
_symmetry_Int_Tables_number       1
_space_group_crystal_system       triclinic
_cell_length_a                    10.725359
_cell_length_b                    10.032162
_cell_length_c                    17.59618
_cell_angle_alpha                 90.0
_cell_angle_beta                  99.622493
_cell_angle_gamma                 89.999988
_cell_volume                      1866.68513228

loop_
_atom_site_label
_atom_site_type_symbol
_atom_type_description
_atom_site_fract_x
_atom_site_fract_y
_atom_site_fract_z
_atom_type_partial_charge
C1    C     C_R   0.260642 0.499822 0.501123 0.915967
C2    C     C_R   0.739357 0.499822 0.498877 0.915966
C3    C     C_1   0.498994 0.499686 0.966193 0.184880
C4    C     C_1   0.501006 0.499686 0.033807 0.184880
C5    C     C_R   0.064067 0.377380 0.500479 -0.123363
C6    C     C_R   0.935796 0.620149 0.498112 -0.128110
C7    C     C_R   0.935933 0.377380 0.499521 -0.123364
C8    C     C_R   0.064204 0.620149 0.501888 -0.128110
C9    C     C_R   0.501633 0.500065 0.354083 0.958099
C10   C     C_R   0.498367 0.500065 0.645917 0.958100
C11   C     C_R   0.871974 0.499044 0.498397 -0.076972
C12   C     C_R   0.128026 0.499044 0.501603 -0.076972
C13   C     C_R   0.522814 0.618722 0.849333 0.387044
C14   C     C_R   0.530799 0.382112 0.156202 0.398211
C15   C     C_R   0.477186 0.618722 0.150667 0.387045
C16   C     C_R   0.469201 0.382112 0.843798 0.398211
C17   C     C_R   0.522307 0.618406 0.770523 -0.186225
C18   C     C_R   0.531436 0.382881 0.235051 -0.185690
C19   C     C_R   0.477693 0.618406 0.229477 -0.186225
C20   C     C_R   0.468564 0.382881 0.764949 -0.185690
C21   C     C_R   0.496406 0.500416 0.728212 -0.214456
C22   C     C_R   0.503594 0.500416 0.271788 -0.214456
C23   C     C_R   0.585525 0.072979 0.554032 0.261387
C24   C     C_R   0.413016 0.927264 0.446977 0.268623
C25   C     C_R   0.414475 0.072979 0.445968 0.261386
C26   C     C_R   0.586984 0.927264 0.553023 0.268623
C27   C     C_R   0.496844 0.500173 0.885801 -0.121349
C28   C     C_R   0.503157 0.500173 0.114199 -0.121349
H1    H     H_    0.543104 0.710125 0.742723 0.241301
H2    H     H_    0.554470 0.291915 0.267467 0.225252
H3    H     H_    0.456896 0.710125 0.257277 0.241301
H4    H     H_    0.445530 0.291915 0.732533 0.225252
H5    H     H_    0.112459 0.282570 0.500487 0.200199
H6    H     H_    0.887108 0.714706 0.495125 0.219347
H7    H     H_    0.887541 0.282570 0.499513 0.200199
H8    H     H_    0.112892 0.714706 0.504875 0.219347
N1    N     N_R   0.500000 0.857200 0.500000 -0.231285
N2    N     N_R   0.500000 0.142800 0.500000 -0.233163
O1    O     O_R   0.316770 0.614620 0.500000 -0.570786
O2    O     O_R   0.683230 0.385380 0.500000 -0.575371
O3    O     O_R   0.683230 0.614620 0.500000 -0.570786
O4    O     O_R   0.316770 0.385380 0.500000 -0.575372
O5    O     O_R   0.500010 0.614710 0.389120 -0.566665
O6    O     O_R   0.499990 0.385290 0.610880 -0.564403
O7    O     O_R   0.499990 0.614710 0.610880 -0.566664
O8    O     O_R   0.500010 0.385290 0.389120 -0.564403
Zn1   Zn    Zn3+2 0.500000 0.653120 0.500000 1.096140
Zn2   Zn    Zn3+2 0.500000 0.346880 0.500000 1.093284
Cl1   Cl    Cl    0.557039 0.768855 0.900676 -0.395067
Cl2   Cl    Cl    0.564640 0.231864 0.111828 -0.403776
Cl3   Cl    Cl    0.442961 0.768855 0.099323 -0.395068
Cl4   Cl    Cl    0.435360 0.231864 0.888173 -0.403776
S1    S     S_3+6 0.688451 0.159494 0.633123 0.124258
O9    O     O_2   0.631589 0.135098 0.704388 -0.247905
O10   O     O_2   0.819594 0.102915 0.645223 -0.193698
O11   O     O_3   0.718074 0.322777 0.632253 -0.531509
H9    H     H_    0.762693 0.344457 0.684767 0.372323
S2    S     S_3+6 0.288120 0.841792 0.380649 0.109363
O12   O     O_2   0.165828 0.874661 0.407422 -0.290393
O13   O     O_2   0.284587 0.895042 0.300603 -0.185938
O14   O     O_3   0.283014 0.677177 0.366672 -0.538837
H10   H     H_    0.201154 0.659484 0.332834 0.371772
S3    S     S_3+6 0.311549 0.159495 0.366876 0.124258
O15   O     O_2   0.368411 0.135098 0.295612 -0.247905
O16   O     O_2   0.180406 0.102915 0.354777 -0.193698
O17   O     O_3   0.281926 0.322777 0.367747 -0.531509
H11   H     H_    0.237307 0.344457 0.315232 0.372322
S4    S     S_3+6 0.711880 0.841792 0.619351 0.109363
O18   O     O_2   0.834172 0.874661 0.592578 -0.290393
O19   O     O_2   0.715413 0.895042 0.699397 -0.185938
O20   O     O_3   0.716986 0.677177 0.633328 -0.538837
H12   H     H_    0.798846 0.659484 0.667166 0.371772

loop_
_geom_bond_atom_site_label_1
_geom_bond_atom_site_label_2
_ccdc_geom_bond_type
C7    C11   A    
S3    O16   D    
C26   N1    A    
C8    H8    S    
C18   H2    S    
C15   Cl3   S    
C25   N2    A    
N1    Zn1   S    
C23   N2    A    
C17   H1    S    
C14   C18   A    
S1    O10   D    
N2    Zn2   S    
C10   O6    A    
C16   C20   A    
C8    C12   A    
C26   S4    S    
C20   C21   A    
S2    O14   S    
C3    C27   S    
O17   H11   S    
O3    Zn1   S    
S3    O17   S    
C19   H3    S    
C9    O8    A    
O4    Zn2   S    
S1    O9    D    
O11   H9    S    
S1    O11   S    
C15   C19   A    
C6    C11   A    
C15   C28   A    
C14   Cl2   S    
C1    C12   S    
O5    Zn1   S    
C10   O7    A    
S4    O20   S    
C13   Cl1   S    
C2    C11   S    
C16   C27   A    
C4    C28   S    
C23   S1    S    
O7    Zn1   S    
C10   C21   S    
C25   S3    S    
O14   H10   S    
O8    Zn2   S    
C9    C22   S    
C9    O5    A    
C6    H6    S    
C1    O1    A    
C2    O3    A    
S2    O13   D    
S3    O15   D    
C24   S2    S    
C2    O2    A    
C1    O4    A    
O20   H12   S    
C19   C22   A    
C24   C25   A    
C3    C4    T    
C5    C12   A    
S4    O19   D    
C20   H4    S    
C23   C26   A    
C24   N1    A    
C5    C7    A    
O2    Zn2   S    
C13   C27   A    
C6    C8    A    
C14   C28   A    
S2    O12   D    
C18   C22   A    
O1    Zn1   S    
C7    H7    S    
C17   C21   A    
C16   Cl4   S    
O6    Zn2   S    
C13   C17   A    
S4    O18   D    
C5    H5    S    
