data_mof_unit_28235.cif
_audit_creation_date              2012-10-26T20:40:17-0400
_audit_creation_method            fapswitch 2.2
_symmetry_space_group_name_H-M    P1
_symmetry_Int_Tables_number       1
_space_group_crystal_system       triclinic
_cell_length_a                    15.059155
_cell_length_b                    10.882239
_cell_length_c                    9.598972
_cell_angle_alpha                 88.96221
_cell_angle_beta                  89.158049
_cell_angle_gamma                 93.665966
_cell_volume                      1569.37941328

loop_
_atom_site_label
_atom_site_type_symbol
_atom_type_description
_atom_site_fract_x
_atom_site_fract_y
_atom_site_fract_z
_atom_type_partial_charge
C1    C     C_R   0.507062 0.262636 0.501373 0.543302
C2    C     C_R   0.185486 0.474789 0.378169 -0.137924
C3    C     C_R   0.232190 0.507245 0.499003 -0.016299
C4    C     C_R   0.328829 0.501901 0.500365 0.548132
C5    C     C_R   0.186542 0.547020 0.616236 -0.146238
C6    C     C_R   0.501617 0.106499 0.766835 -0.122822
C7    C     C_R   0.465927 0.040324 0.882611 -0.148457
C8    C     C_R   0.421802 0.925958 0.865806 -0.119976
C9    C     C_R   0.421965 0.871990 0.735683 -0.088079
C10   C     C_R   0.467041 0.932499 0.620709 0.014253
C11   C     C_R   0.494479 0.058099 0.630795 0.008955
C12   C     C_R   0.907621 0.540765 0.618915 0.009558
C13   C     C_R   0.515869 0.127732 0.505479 -0.006641
C14   C     C_R   0.535120 0.063716 0.381055 -0.028457
C15   C     C_R   0.523451 0.935887 0.382100 -0.154199
C16   C     C_R   0.494118 0.736605 0.499390 0.533689
C17   C     C_R   0.489594 0.870138 0.498977 -0.026902
C18   C     C_R   0.619104 0.664225 0.138738 -0.111690
C19   C     C_R   0.677938 0.745068 0.064649 -0.169992
C20   C     C_R   0.678864 0.746391 0.920232 -0.032520
C21   C     C_R   0.620027 0.665045 0.850644 -0.078713
C22   C     C_R   0.559123 0.580789 0.922402 0.130389
C23   C     C_R   0.953908 0.450546 0.253259 -0.138694
C24   C     C_R   0.558734 0.580813 0.071843 0.138972
C25   C     C_R   0.444644 0.423096 0.079299 0.000461
C26   C     C_R   0.441960 0.424028 0.931949 0.091816
C27   C     C_R   0.671325 0.501918 0.499151 0.529271
C28   C     C_R   0.814969 0.536031 0.619259 -0.146974
C29   C     C_R   0.768394 0.506144 0.497654 -0.017967
C30   C     C_R   0.814750 0.480869 0.374866 -0.149977
C31   C     C_R   0.907298 0.480972 0.374010 0.011081
C32   C     C_R   0.953973 0.511390 0.496410 0.061998
C33   C     C_3   0.742705 0.834754 0.839456 -0.265820
C34   C     C_R   0.046387 0.448281 0.254317 -0.137819
C35   C     C_3   0.692920 0.936903 0.769233 -0.289397
C36   C     C_3   0.756167 0.027567 0.687489 -0.454483
C37   C     C_3   0.370675 0.336968 0.871811 -0.230085
C38   C     C_3   0.276910 0.374286 0.910656 -0.312808
C39   C     C_3   0.205358 0.295765 0.836080 -0.446987
C40   C     C_3   0.573281 0.124178 0.246701 -0.235993
C41   C     C_3   0.667266 0.183521 0.266253 -0.279282
C42   C     C_3   0.704503 0.240943 0.129448 -0.449606
C43   C     C_R   0.093240 0.478475 0.375456 0.010529
C44   C     C_R   0.047070 0.511972 0.496469 0.060373
C45   C     C_R   0.093935 0.545977 0.617541 0.011113
C46   C     C_R   0.047414 0.577559 0.737903 -0.140511
C47   C     C_R   0.954647 0.573858 0.738998 -0.142004
Cu1   Cu    Cu3+1 0.499990 0.499990 0.640660 0.887812
Cu2   Cu    Cu3+1 0.500010 0.500010 0.359340 0.900116
H1    H     H_    0.779269 0.556503 0.714024 0.120411
H2    H     H_    0.778790 0.459552 0.280560 0.127107
H3    H     H_    0.918812 0.427295 0.158595 0.102231
H4    H     H_    0.081262 0.423102 0.160510 0.103674
H5    H     H_    0.220795 0.446002 0.286283 0.118040
H6    H     H_    0.223028 0.579271 0.705959 0.114502
H7    H     H_    0.082711 0.603356 0.831616 0.105552
H8    H     H_    0.919690 0.597098 0.833484 0.106631
H9    H     H_    0.623580 0.671219 0.248579 0.186352
H10   H     H_    0.805692 0.072424 0.758137 0.152176
H11   H     H_    0.791439 0.979191 0.604340 0.153165
H12   H     H_    0.539196 0.191471 0.788350 0.150254
H13   H     H_    0.717594 0.099886 0.638053 0.146963
H14   H     H_    0.643387 0.895802 0.696260 0.177385
H15   H     H_    0.657464 0.987745 0.850107 0.174742
H16   H     H_    0.793480 0.877327 0.909894 0.143586
H17   H     H_    0.778707 0.783385 0.759644 0.136575
H18   H     H_    0.215425 0.303644 0.721391 0.166357
H19   H     H_    0.207561 0.197619 0.868911 0.152609
H20   H     H_    0.138713 0.327486 0.863050 0.145735
H21   H     H_    0.264714 0.362474 0.024682 0.137432
H22   H     H_    0.271040 0.472799 0.884220 0.168069
H23   H     H_    0.470805 0.079267 0.985179 0.094562
H24   H     H_    0.376431 0.328099 0.759032 0.224608
H25   H     H_    0.377913 0.243598 0.916131 0.108121
H26   H     H_    0.703295 0.171247 0.046194 0.144170
H27   H     H_    0.664717 0.318680 0.096556 0.166000
H28   H     H_    0.774537 0.276028 0.143468 0.132198
H29   H     H_    0.666996 0.255707 0.346323 0.186544
H30   H     H_    0.711726 0.111990 0.302136 0.150135
H31   H     H_    0.578557 0.054193 0.164443 0.120008
H32   H     H_    0.527956 0.190004 0.201766 0.169547
H33   H     H_    0.390307 0.877080 0.954482 0.114960
H34   H     H_    0.387183 0.782505 0.726535 0.141707
H35   H     H_    0.542717 0.886346 0.290665 0.131798
H36   H     H_    0.400342 0.360101 0.140151 0.115852
H37   H     H_    0.722647 0.807624 0.120971 0.110035
H38   H     H_    0.624865 0.671921 0.740435 0.185415
N1    N     N_R   0.500860 0.501210 0.147910 -0.255521
N2    N     N_R   0.500890 0.501290 0.852040 -0.244999
O1    O     O_R   0.499990 0.319640 0.618810 -0.530077
O2    O     O_R   0.500000 0.319660 0.381240 -0.505386
O3    O     O_R   0.370250 0.499960 0.618800 -0.517908
O4    O     O_R   0.370260 0.499980 0.381230 -0.498979
O5    O     O_R   0.500000 0.680340 0.618760 -0.529172
O6    O     O_R   0.500010 0.680360 0.381190 -0.518182
O7    O     O_R   0.629740 0.500020 0.618770 -0.523054
O8    O     O_R   0.629750 0.500040 0.381200 -0.526431

loop_
_geom_bond_atom_site_label_1
_geom_bond_atom_site_label_2
_ccdc_geom_bond_type
C30   H2    S    
C21   H38   S    
C1    O1    A    
C16   O5    A    
C27   C29   S    
C39   H19   S    
C35   C36   S    
C37   H25   S    
C36   H10   S    
C38   H21   S    
C33   H16   S    
C7    C8    A    
C45   C46   A    
C26   N2    A    
C42   H26   S    
C37   C38   S    
Cu1   O5    S    
C12   C28   A    
C8    H33   S    
C34   H4    S    
C6    H12   S    
C28   C29   A    
C30   C31   A    
C10   C17   A    
C18   C19   A    
C41   C42   S    
C38   H22   S    
C28   H1    S    
C18   H9    S    
C27   O8    A    
C19   C20   A    
C8    C9    A    
C40   H31   S    
C35   H15   S    
C18   C24   A    
C9    C10   A    
C19   H37   S    
C1    O2    A    
Cu1   O1    S    
C13   C14   A    
C12   C32   A    
Cu2   N1    S    
C27   O7    A    
Cu2   O2    S    
C12   C47   A    
C36   H13   S    
C33   H17   S    
C32   C44   A    
C41   H29   S    
C2    H5    S    
C6    C11   A    
C16   C17   S    
C3    C5    A    
C25   C26   A    
C5    C45   A    
C25   N1    A    
C23   C31   A    
C43   C44   A    
C29   C30   A    
C47   H8    S    
C31   C32   A    
C2    C43   A    
C23   C34   A    
C25   H36   S    
C39   H20   S    
Cu2   O6    S    
C24   N1    A    
C6    C7    A    
C9    H34   S    
C20   C33   S    
Cu1   Cu2   S    
Cu1   N2    S    
C22   C24   A    
C1    C13   S    
C3    C4    S    
C7    H23   S    
C44   C45   A    
C15   C17   A    
C37   H24   S    
C46   C47   A    
C40   C41   S    
C16   O6    A    
Cu1   O7    S    
C39   H18   S    
C40   H32   S    
C5    H6    S    
C34   C43   A    
C36   H11   S    
C41   H30   S    
C26   C37   S    
C15   H35   S    
C42   H27   S    
C2    C3    A    
C11   C13   A    
C23   H3    S    
C38   C39   S    
C33   C35   S    
C22   N2    A    
Cu2   O8    S    
C10   C11   A    
C14   C40   S    
C4    O4    A    
C20   C21   A    
C42   H28   S    
Cu1   O3    S    
C46   H7    S    
C14   C15   A    
C35   H14   S    
Cu2   O4    S    
C21   C22   A    
C4    O3    A    
