data_mof_unit_15200.cif
_audit_creation_date              2012-12-11T14:42:07-0500
_audit_creation_method            fapswitch 2.2
_symmetry_space_group_name_H-M    P1
_symmetry_Int_Tables_number       1
_space_group_crystal_system       triclinic
_cell_length_a                    19.095052
_cell_length_b                    10.994806
_cell_length_c                    18.908062
_cell_angle_alpha                 89.528146
_cell_angle_beta                  90.221736
_cell_angle_gamma                 90.181063
_cell_volume                      3969.49563673

loop_
_atom_site_label
_atom_site_type_symbol
_atom_type_description
_atom_site_fract_x
_atom_site_fract_y
_atom_site_fract_z
_atom_type_partial_charge
C1    C     C_R   0.725591 0.960071 0.855108 0.553614
C2    C     C_R   0.272376 0.957145 0.146316 0.553581
C3    C     C_R   0.225591 0.460069 0.855108 0.553615
C4    C     C_R   0.772376 0.457146 0.146316 0.553582
C5    C     C_R   0.700640 0.487833 0.035393 0.138857
C6    C     C_R   0.306767 0.457691 0.959772 0.128727
C7    C     C_R   0.200638 0.987829 0.035394 0.138858
C8    C     C_R   0.806766 0.957693 0.959772 0.128726
C9    C     C_R   0.748655 0.417451 0.076415 0.023911
C10   C     C_R   0.240660 0.434403 0.929051 0.018724
C11   C     C_R   0.248655 0.917450 0.076415 0.023910
C12   C     C_R   0.740659 0.934408 0.929052 0.018721
C13   C     C_R   0.783985 0.321667 0.045548 -0.200169
C14   C     C_R   0.183344 0.407438 0.971862 -0.188691
C15   C     C_R   0.283986 0.821668 0.045547 -0.200169
C16   C     C_R   0.683342 0.907449 0.971864 -0.188696
C17   C     C_R   0.780570 0.305122 0.973634 -0.188127
C18   C     C_R   0.190235 0.399720 0.043716 -0.188982
C19   C     C_R   0.280572 0.805125 0.973633 -0.188126
C20   C     C_R   0.690234 0.899728 0.043718 -0.188988
C21   C     C_R   0.740284 0.382779 0.930715 0.026594
C22   C     C_R   0.255787 0.411263 0.075074 0.020417
C23   C     C_R   0.240284 0.882781 0.930715 0.026595
C24   C     C_R   0.755786 0.911266 0.075074 0.020416
C25   C     C_R   0.537694 0.278304 0.523051 0.155866
C26   C     C_R   0.538761 0.265131 0.450081 0.137950
C27   C     C_R   0.037694 0.778304 0.523051 0.155866
C28   C     C_R   0.038761 0.765131 0.450081 0.137950
C29   C     C_R   0.506597 0.162155 0.421094 0.011494
C30   C     C_R   0.518763 0.176706 0.566610 0.022904
C31   C     C_R   0.006598 0.662155 0.421093 0.011494
C32   C     C_R   0.018763 0.676706 0.566609 0.022904
C33   C     C_R   0.489619 0.061207 0.463651 -0.155398
C34   C     C_R   0.496708 0.068127 0.536143 -0.137032
C35   C     C_R   0.989620 0.561207 0.463651 -0.155398
C36   C     C_R   0.996708 0.568127 0.536143 -0.137032
C37   C     C_R   0.782554 0.304345 0.529131 -0.091794
C38   C     C_R   0.195704 0.348833 0.462438 -0.126234
C39   C     C_R   0.282554 0.804344 0.529131 -0.091794
C40   C     C_R   0.695704 0.848833 0.462438 -0.126234
C41   C     C_R   0.786899 0.320356 0.456898 0.253948
C42   C     C_R   0.183662 0.378075 0.531722 0.262862
C43   C     C_R   0.286899 0.820356 0.456898 0.253949
C44   C     C_R   0.683662 0.878076 0.531722 0.262862
C45   C     C_R   0.529740 0.176972 0.850826 0.550529
C46   C     C_R   0.470912 0.177911 0.149702 0.547641
C47   C     C_R   0.029740 0.676972 0.850826 0.550529
C48   C     C_R   0.970912 0.677911 0.149702 0.547641
C49   C     C_R   0.756719 0.424737 0.425977 0.033696
C50   C     C_R   0.240150 0.419418 0.574190 0.030740
C51   C     C_R   0.256719 0.924737 0.425977 0.033695
C52   C     C_R   0.740150 0.919418 0.574190 0.030740
C53   C     C_R   0.721728 0.509686 0.468400 -0.177854
C54   C     C_R   0.307304 0.429386 0.545588 -0.193305
C55   C     C_R   0.221728 0.009686 0.468400 -0.177854
C56   C     C_R   0.807304 0.929386 0.545588 -0.193306
C57   C     C_R   0.718847 0.493391 0.541262 -0.173124
C58   C     C_R   0.319231 0.394838 0.475898 -0.157855
C59   C     C_R   0.218848 0.993391 0.541262 -0.173124
C60   C     C_R   0.819231 0.894838 0.475898 -0.157856
C61   C     C_R   0.748373 0.389903 0.571519 -0.003264
C62   C     C_R   0.262969 0.355104 0.434110 -0.033469
C63   C     C_R   0.248373 0.889903 0.571519 -0.003263
C64   C     C_R   0.762969 0.855104 0.434110 -0.033469
C65   C     C_R   0.735499 0.353573 0.855902 0.555319
C66   C     C_R   0.262951 0.362800 0.146614 0.565472
C67   C     C_R   0.235500 0.853575 0.855901 0.555317
C68   C     C_R   0.762951 0.862800 0.146615 0.565473
C69   C     C_R   0.725549 0.959331 0.645807 0.556125
C70   C     C_R   0.273705 0.958839 0.353804 0.532082
C71   C     C_R   0.225549 0.459331 0.645807 0.556124
C72   C     C_R   0.773705 0.458839 0.353804 0.532082
C73   C     C_R   0.534707 0.178304 0.641713 0.555239
C74   C     C_R   0.471075 0.175103 0.354182 0.536790
C75   C     C_R   0.034707 0.678304 0.641713 0.555239
C76   C     C_R   0.971075 0.675103 0.354182 0.536790
C77   C     C_R   0.738976 0.359214 0.645446 0.544858
C78   C     C_R   0.272544 0.317584 0.361332 0.550409
C79   C     C_R   0.238976 0.859214 0.645446 0.544857
C80   C     C_R   0.772544 0.817584 0.361332 0.550409
C81   C     C_2   0.499986 0.167887 0.922546 -0.103556
C82   C     C_2   0.501869 0.170956 0.078632 -0.113754
C83   C     C_2   0.999986 0.667887 0.922546 -0.103559
C84   C     C_2   0.001869 0.670956 0.078632 -0.113755
C85   C     C_2   0.503807 0.065624 0.041676 0.134638
C86   C     C_2   0.501246 0.063684 0.961600 0.146132
C87   C     C_2   0.003808 0.565624 0.041676 0.134639
C88   C     C_2   0.001247 0.563684 0.961601 0.146137
C89   C     C_R   0.697412 0.471312 0.961621 0.133364
C90   C     C_R   0.315034 0.442603 0.033268 0.133599
C91   C     C_R   0.197410 0.971310 0.961622 0.133365
C92   C     C_R   0.815033 0.942604 0.033269 0.133600
Cr1   Cr    Cr6+3 0.769270 0.163730 0.750710 0.998682
Cr2   Cr    Cr6+3 0.230730 0.163730 0.249290 1.000231
Cr3   Cr    Cr6+3 0.269270 0.663730 0.750710 0.998683
Cr4   Cr    Cr6+3 0.730730 0.663730 0.249290 1.000231
Cr5   Cr    Cr6+3 0.612620 0.009790 0.748780 1.023016
Cr6   Cr    Cr6+3 0.387380 0.009790 0.251220 1.008639
Cr7   Cr    Cr6+3 0.112620 0.509790 0.748780 1.023016
Cr8   Cr    Cr6+3 0.887380 0.509790 0.251220 1.008639
Cr9   Cr    Cr6+3 0.614160 0.322500 0.747710 1.023839
Cr10  Cr    Cr6+3 0.385840 0.322500 0.252290 0.997189
Cr11  Cr    Cr6+3 0.114160 0.822500 0.747710 1.023838
Cr12  Cr    Cr6+3 0.885840 0.822500 0.252290 0.997188
H1    H     H_    0.699259 0.591365 0.445663 0.137165
H2    H     H_    0.349521 0.465395 0.577075 0.116051
H3    H     H_    0.199260 0.091365 0.445664 0.137165
H4    H     H_    0.849521 0.965394 0.577075 0.116051
H5    H     H_    0.692631 0.559605 0.573683 0.113718
H6    H     H_    0.371628 0.400553 0.454400 0.146257
H7    H     H_    0.192632 0.059605 0.573683 0.113718
H8    H     H_    0.871628 0.900553 0.454400 0.146257
H9    H     H_    0.509567 0.258332 0.053426 0.062031
H10   H     H_    0.489732 0.254275 0.946739 0.048809
H11   H     H_    0.009567 0.758332 0.053426 0.062030
H12   H     H_    0.989732 0.754275 0.946739 0.048809
H13   H     H_    0.817553 0.263788 0.076853 0.123457
H14   H     H_    0.132454 0.392164 0.949487 0.164507
H15   H     H_    0.317555 0.763790 0.076852 0.123456
H16   H     H_    0.632452 0.892180 0.949489 0.164514
H17   H     H_    0.809808 0.230488 0.951622 0.160151
H18   H     H_    0.144827 0.374158 0.074317 0.160307
H19   H     H_    0.309811 0.730493 0.951621 0.160151
H20   H     H_    0.644826 0.874167 0.074319 0.160308
H21   H     H_    0.465844 0.980253 0.441604 0.165883
H22   H     H_    0.482776 0.990157 0.568602 0.152837
H23   H     H_    0.965845 0.480253 0.441603 0.165883
H24   H     H_    0.982777 0.490157 0.568602 0.152838
H25   H     H_    0.805717 0.222923 0.551808 0.153422
H26   H     H_    0.150769 0.323428 0.430646 0.152560
H27   H     H_    0.305717 0.722923 0.551808 0.153422
H28   H     H_    0.650769 0.823428 0.430646 0.152560
O1    O     O_R   0.784320 0.290430 0.830510 -0.541052
O2    O     O_R   0.215680 0.290430 0.169490 -0.513072
O3    O     O_R   0.284320 0.790430 0.830510 -0.541051
O4    O     O_R   0.715680 0.790430 0.169490 -0.513071
O5    O     O_R   0.554640 0.080370 0.673500 -0.493019
O6    O     O_R   0.445360 0.080370 0.326500 -0.513732
O7    O     O_R   0.054640 0.580370 0.673500 -0.493019
O8    O     O_R   0.945360 0.580370 0.326500 -0.513732
O9    O     O_R   0.543920 0.282180 0.666790 -0.495966
O10   O     O_R   0.456080 0.282180 0.333210 -0.528067
O11   O     O_R   0.043920 0.782180 0.666790 -0.495966
O12   O     O_R   0.956080 0.782180 0.333210 -0.528067
O13   O     O_R   0.679040 0.374160 0.674430 -0.485920
O14   O     O_R   0.320960 0.374160 0.325570 -0.521592
O15   O     O_R   0.179040 0.874160 0.674430 -0.485921
O16   O     O_R   0.820960 0.874160 0.325570 -0.521593
O17   O     O_3   0.665350 0.165340 0.749070 -0.260680
O18   O     O_3   0.334650 0.165340 0.250930 -0.261929
O19   O     O_3   0.165350 0.665340 0.749070 -0.260679
O20   O     O_3   0.834650 0.665340 0.250930 -0.261929
O21   O     O_R   0.762640 0.040960 0.825200 -0.472825
O22   O     O_R   0.237360 0.040960 0.174800 -0.465993
O23   O     O_R   0.262640 0.540960 0.825200 -0.472823
O24   O     O_R   0.737360 0.540960 0.174800 -0.465994
O25   O     O_R   0.667400 0.923970 0.829950 -0.545793
O26   O     O_R   0.332600 0.923970 0.170050 -0.544289
O27   O     O_R   0.167400 0.423970 0.829950 -0.545795
O28   O     O_R   0.832600 0.423970 0.170050 -0.544289
O29   O     O_R   0.553960 0.081340 0.821780 -0.466233
O30   O     O_R   0.446040 0.081340 0.178220 -0.484173
O31   O     O_R   0.053960 0.581340 0.821780 -0.466230
O32   O     O_R   0.946040 0.581340 0.178220 -0.484173
O33   O     O_R   0.543180 0.283240 0.826740 -0.535160
O34   O     O_R   0.456820 0.283240 0.173260 -0.513328
O35   O     O_R   0.043180 0.783240 0.826740 -0.535158
O36   O     O_R   0.956820 0.783240 0.173260 -0.513328
O37   O     O_R   0.678360 0.375140 0.822710 -0.467285
O38   O     O_R   0.321640 0.375140 0.177290 -0.468094
O39   O     O_R   0.178360 0.875140 0.822710 -0.467289
O40   O     O_R   0.821640 0.875140 0.177290 -0.468094
O41   O     O_R   0.785050 0.289380 0.670560 -0.535397
O42   O     O_R   0.214950 0.289380 0.329440 -0.533667
O43   O     O_R   0.285050 0.789380 0.670560 -0.535397
O44   O     O_R   0.714950 0.789380 0.329440 -0.533667
O45   O     O_R   0.763320 0.039990 0.676930 -0.524893
O46   O     O_R   0.236680 0.039990 0.323070 -0.545265
O47   O     O_R   0.263320 0.539990 0.676930 -0.524894
O48   O     O_R   0.736680 0.539990 0.323070 -0.545264
O49   O     O_R   0.668130 0.922920 0.670000 -0.475911
O50   O     O_R   0.331870 0.922920 0.330000 -0.470080
O51   O     O_R   0.168130 0.422920 0.670000 -0.475911
O52   O     O_R   0.831870 0.422920 0.330000 -0.470079
N1    N     N_2   0.518261 0.955250 0.079497 -0.519680
H29   H     H_    0.545279 0.962610 0.126666 0.251850
C93   C     C_3   0.467530 0.857904 0.077374 -0.290600
H30   H     H_    0.448578 0.837254 0.131526 0.170460
H31   H     H_    0.493655 0.775393 0.057143 0.103336
H32   H     H_    0.422423 0.881362 0.042851 0.177060
N2    N     N_2   0.500654 0.949337 0.925795 -0.489672
H33   H     H_    0.520671 0.875219 0.952167 0.250058
C94   C     C_3   0.438596 0.921104 0.884482 -0.273426
H34   H     H_    0.413005 0.838202 0.906165 0.128463
H35   H     H_    0.453972 0.902735 0.829077 0.162472
H36   H     H_    0.399857 0.996463 0.884621 0.138769
N3    N     N_2   0.018262 0.455250 0.079498 -0.519680
H37   H     H_    0.045281 0.462611 0.126666 0.251850
C95   C     C_3   0.967531 0.357905 0.077376 -0.290598
H38   H     H_    0.948579 0.337256 0.131528 0.170461
H39   H     H_    0.993656 0.275393 0.057145 0.103335
H40   H     H_    0.922423 0.381363 0.042854 0.177058
N4    N     N_2   0.000656 0.449336 0.925796 -0.489672
H41   H     H_    0.020672 0.375218 0.952169 0.250057
C96   C     C_3   0.938600 0.421102 0.884480 -0.273417
H42   H     H_    0.913000 0.338216 0.906172 0.128465
H43   H     H_    0.953982 0.402704 0.829079 0.162463
H44   H     H_    0.899868 0.496473 0.884602 0.138769
O53   O     O_3   0.828578 0.241204 0.419413 -0.564922
C97   C     C_3   0.785653 0.162721 0.379775 -0.108179
H45   H     H_    0.761848 0.210734 0.333827 0.109991
H46   H     H_    0.744639 0.118241 0.412917 0.120355
H47   H     H_    0.819366 0.090898 0.357939 0.175744
O54   O     O_3   0.114723 0.384830 0.553863 -0.542804
C98   C     C_3   0.088395 0.266365 0.565455 -0.114109
H48   H     H_    0.033272 0.273641 0.583140 0.128677
H49   H     H_    0.118060 0.219148 0.608235 0.123588
H50   H     H_    0.088389 0.211308 0.516373 0.094053
O55   O     O_3   0.328578 0.741203 0.419412 -0.564922
C99   C     C_3   0.285652 0.662721 0.379775 -0.108178
H51   H     H_    0.261848 0.710735 0.333827 0.109991
H52   H     H_    0.244637 0.618242 0.412916 0.120354
H53   H     H_    0.319365 0.590898 0.357939 0.175744
O56   O     O_3   0.614723 0.884830 0.553863 -0.542804
C100  C     C_3   0.588395 0.766365 0.565455 -0.114110
H54   H     H_    0.533272 0.773642 0.583141 0.128677
H55   H     H_    0.618060 0.719148 0.608235 0.123587
H56   H     H_    0.588389 0.711308 0.516373 0.094053
N5    N     N_2   0.651411 0.542673 0.918659 -0.503646
H57   H     H_    0.605511 0.569944 0.942112 0.239781
C101  C     C_3   0.685704 0.637634 0.878281 -0.295486
H58   H     H_    0.645722 0.693838 0.850745 0.161475
H59   H     H_    0.720793 0.598701 0.837795 0.153219
H60   H     H_    0.717671 0.694962 0.913838 0.136937
N6    N     N_2   0.383395 0.446524 0.063611 -0.473154
H61   H     H_    0.422923 0.416034 0.031353 0.241902
C102  C     C_3   0.400695 0.559216 0.098223 -0.285430
H62   H     H_    0.408969 0.631018 0.057889 0.090077
H63   H     H_    0.449162 0.547271 0.129809 0.139231
H64   H     H_    0.358441 0.587038 0.134836 0.155956
N7    N     N_2   0.151406 0.042667 0.918661 -0.503646
H65   H     H_    0.105505 0.069931 0.942115 0.239781
C103  C     C_3   0.185694 0.137635 0.878284 -0.295501
H66   H     H_    0.145708 0.193859 0.850770 0.161467
H67   H     H_    0.220764 0.098707 0.837781 0.153239
H68   H     H_    0.217678 0.194942 0.913836 0.136937
N8    N     N_2   0.883395 0.946525 0.063611 -0.473154
H69   H     H_    0.922923 0.916034 0.031354 0.241902
C104  C     C_3   0.900695 0.059217 0.098224 -0.285430
H70   H     H_    0.908969 0.131019 0.057890 0.090078
H71   H     H_    0.949162 0.047271 0.129810 0.139231
H72   H     H_    0.858441 0.087039 0.134836 0.155956
N9    N     N_2   0.659104 0.579319 0.067514 -0.476854
H73   H     H_    0.652037 0.657229 0.037843 0.249954
C105  C     C_3   0.595150 0.534723 0.099215 -0.287218
H74   H     H_    0.569790 0.609801 0.128371 0.128687
H75   H     H_    0.606370 0.459730 0.137326 0.158277
H76   H     H_    0.558716 0.501299 0.057683 0.115125
N10   N     N_2   0.363271 0.502770 0.917781 -0.513684
H77   H     H_    0.397255 0.562841 0.941696 0.235034
C106  C     C_3   0.396324 0.417938 0.870463 -0.289047
H78   H     H_    0.453447 0.418361 0.880518 0.150496
H79   H     H_    0.387816 0.447801 0.814927 0.168640
H80   H     H_    0.375542 0.323943 0.877318 0.127553
N11   N     N_2   0.159101 0.079313 0.067516 -0.476856
H81   H     H_    0.152031 0.157222 0.037844 0.249954
C107  C     C_3   0.095149 0.034713 0.099219 -0.287216
H82   H     H_    0.069789 0.109789 0.128376 0.128686
H83   H     H_    0.106372 0.959721 0.137330 0.158276
H84   H     H_    0.058714 0.001287 0.057689 0.115126
N12   N     N_2   0.863271 0.002769 0.917782 -0.513684
H85   H     H_    0.897255 0.062840 0.941695 0.235034
C108  C     C_3   0.896323 0.917935 0.870464 -0.289048
H86   H     H_    0.953446 0.918358 0.880518 0.150496
H87   H     H_    0.887814 0.947795 0.814928 0.168641
H88   H     H_    0.875541 0.823940 0.877320 0.127551
N13   N     N_2   0.555369 0.393984 0.552059 -0.466674
H89   H     H_    0.590971 0.443305 0.523149 0.269875
C109  C     C_3   0.495791 0.468232 0.569852 -0.298122
H90   H     H_    0.513814 0.548750 0.599827 0.121835
H91   H     H_    0.459018 0.416630 0.604047 0.162994
H92   H     H_    0.468580 0.499469 0.520986 0.125117
N14   N     N_2   0.563832 0.363222 0.406946 -0.523847
H93   H     H_    0.528914 0.433131 0.398116 0.265061
C110  C     C_3   0.609398 0.333482 0.348638 -0.286508
H94   H     H_    0.581960 0.282739 0.306505 0.151608
H95   H     H_    0.653613 0.277959 0.368224 0.131901
H96   H     H_    0.629027 0.418529 0.324219 0.158646
N15   N     N_2   0.055369 0.893984 0.552059 -0.466674
H97   H     H_    0.090971 0.943306 0.523150 0.269875
C111  C     C_3   0.995791 0.968232 0.569852 -0.298123
H98   H     H_    0.013814 0.048750 0.599827 0.121835
H99   H     H_    0.959018 0.916630 0.604047 0.162994
H100  H     H_    0.968580 0.999469 0.520986 0.125117
N16   N     N_2   0.063832 0.863223 0.406946 -0.523847
H101  H     H_    0.028913 0.933132 0.398116 0.265061
C112  C     C_3   0.109398 0.833484 0.348638 -0.286507
H102  H     H_    0.081960 0.782741 0.306505 0.151607
H103  H     H_    0.153613 0.777961 0.368224 0.131901
H104  H     H_    0.129026 0.918532 0.324219 0.158646

loop_
_geom_bond_atom_site_label_1
_geom_bond_atom_site_label_2
_ccdc_geom_bond_type
Cr11  O39   S    
C105  H75   S    
C55   C59   A    
C111  H98   S    
C19   H19   S    
C32   C75   S    
N4    C96   S    
Cr6   O6    S    
C8    N12   S    
N12   H85   S    
C29   C33   A    
C108  H88   S    
Cr2   O46   S    
N3    C95   S    
C9    C13   A    
C11   C15   A    
C57   H5    S    
C91   N7    S    
C59   H7    S    
C8    C92   A    
C47   C83   S    
Cr4   O44   S    
C81   C86   D    
C83   C88   D    
C95   H38   S    
C41   C49   A    
Cr6   O30   S    
N2    H33   S    
C71   O51   A    
C72   O52   A    
C73   O9    A    
C17   C21   A    
C6    N10   S    
C94   H35   S    
C19   C23   A    
C98   H48   S    
N5    H57   S    
C16   C20   A    
C33   H21   S    
Cr4   O48   S    
C35   H23   S    
C75   O11   A    
C18   H18   S    
C76   O12   A    
C101  H59   S    
C106  H79   S    
Cr6   O18   S    
C58   H6    S    
C45   C81   S    
N10   C106  S    
Cr11  O11   S    
C57   C61   A    
C48   O32   A    
Cr2   O18   S    
C82   C85   D    
C59   C63   A    
C60   C64   A    
Cr12  O20   S    
Cr1   O21   S    
C110  H95   S    
C31   C76   S    
Cr4   O24   S    
C73   O5    A    
C49   C53   A    
Cr1   O41   S    
C37   H25   S    
C90   N6    S    
C101  H60   S    
C51   C55   A    
C109  H91   S    
C78   O14   A    
C80   O16   A    
C94   H34   S    
N15   H97   S    
C5    C89   A    
C69   O49   A    
C38   C62   A    
Cr10  O38   S    
Cr11  O35   S    
Cr7   O27   S    
C107  H83   S    
C100  H56   S    
Cr11  O15   S    
N16   C112  S    
C85   C86   S    
Cr8   O20   S    
Cr9   O13   S    
C104  H70   S    
C39   H27   S    
C42   O54   S    
C32   C36   A    
C111  H99   S    
Cr1   O1    S    
C16   H16   S    
C106  H78   S    
C107  H84   S    
N1    C93   S    
Cr4   O20   S    
C45   O29   A    
N7    H65   S    
C23   C67   S    
C56   H4    S    
Cr3   O43   S    
C46   C82   S    
C61   C77   S    
C81   H10   S    
C95   H40   S    
Cr7   O51   S    
C8    C12   A    
C103  H68   S    
C2    O22   A    
C102  H62   S    
C3    O27   A    
C112  H103  S    
Cr7   O7    S    
C36   H24   S    
C1    C12   S    
C2    C11   S    
C24   C92   A    
Cr5   O5    S    
C99   H51   S    
C100  H54   S    
C96   H43   S    
C85   N1    S    
C30   C34   A    
C12   C16   A    
C10   C14   A    
C98   H50   S    
Cr1   O45   S    
C29   C74   S    
C25   C26   A    
C6    C90   A    
C5    C9    A    
C109  H90   S    
C94   H36   S    
O53   C97   S    
N11   C107  S    
C42   C50   A    
Cr7   O31   S    
C97   H46   S    
C72   O48   A    
C104  H72   S    
C18   C22   A    
C62   C78   S    
C82   H9    S    
C106  H80   S    
C107  H82   S    
C97   H47   S    
Cr5   O29   S    
C13   C17   A    
C102  H63   S    
C75   O7    A    
C108  H87   S    
C15   H15   S    
C37   C41   A    
N3    H37   S    
C20   H20   S    
C53   H1    S    
C40   C44   A    
C102  H64   S    
N14   H93   S    
Cr5   O17   S    
Cr10  O10   S    
C4    C9    S    
C99   H53   S    
C105  H74   S    
C58   C62   A    
C87   C88   S    
Cr12  O16   S    
Cr1   O17   S    
C35   C36   A    
O56   C100  S    
Cr4   O4    S    
C21   C89   A    
C15   C19   A    
C74   O6    A    
C50   C54   A    
C38   H26   S    
C103  H66   S    
C7    N11   S    
C93   H32   S    
C52   C69   S    
C69   O45   A    
C70   O50   A    
Cr6   O26   S    
N6    H61   S    
Cr9   O37   S    
C44   O56   S    
Cr11  O19   S    
Cr12  O40   S    
C47   O31   A    
C105  H76   S    
C64   C80   S    
N8    C104  S    
C54   H2    S    
O55   C99   S    
C53   C57   A    
C79   O15   A    
C56   C60   A    
C65   O37   A    
Cr6   O50   S    
C67   O3    A    
C50   C71   S    
N2    C94   S    
C110  H94   S    
C34   H22   S    
C7    C91   A    
C3    O23   A    
C22   C90   A    
Cr8   O32   S    
C27   N15   S    
C1    O21   A    
Cr10  O18   S    
C17   H17   S    
C4    O24   A    
C31   C35   A    
Cr3   O19   S    
C87   N3    S    
N16   H101  S    
C25   C30   A    
C77   O41   A    
C46   O34   A    
C21   C65   S    
C27   C32   A    
C28   C31   A    
C43   O55   S    
C6    C10   A    
C13   H13   S    
C93   H30   S    
N5    C101  S    
C68   O40   A    
C43   C51   A    
N1    H29   S    
N9    H73   S    
Cr8   O52   S    
C24   C68   S    
C95   H39   S    
N15   C111  S    
C45   O33   A    
N4    H41   S    
N14   C110  S    
C112  H102  S    
C14   C18   A    
C84   C87   D    
C99   H52   S    
C63   C79   S    
C96   H42   S    
C7    C11   A    
C86   N2    S    
C38   C42   A    
C110  H96   S    
C98   H49   S    
C5    N9    S    
C109  H92   S    
C71   O47   A    
C22   C66   S    
Cr8   O8    S    
C100  H55   S    
Cr9   O9    S    
C20   C24   A    
C103  H67   S    
C49   C72   S    
Cr12  O12   S    
C51   C70   S    
N11   H81   S    
C2    O26   A    
C41   O53   S    
C74   O10   A    
C66   O2    A    
N6    C102  S    
C92   N8    S    
C76   O8    A    
C104  H71   S    
C79   O43   A    
C68   O4    A    
C111  H100  S    
C80   O44   A    
C25   N13   S    
N9    C105  S    
C30   C73   S    
O54   C98   S    
C70   O46   A    
C39   C43   A    
C67   O39   A    
Cr7   O19   S    
C48   C84   S    
C55   H3    S    
N7    C103  S    
Cr5   O25   S    
Cr9   O33   S    
C60   H8    S    
Cr12  O36   S    
C47   O35   A    
Cr8   O28   S    
C48   O36   A    
Cr2   O22   S    
Cr3   O3    S    
C33   C34   A    
C26   N14   S    
Cr2   O42   S    
Cr3   O47   S    
C84   H11   S    
N13   C109  S    
C112  H104  S    
C23   C91   A    
N10   H77   S    
C77   O13   A    
C101  H58   S    
C14   H14   S    
C54   C58   A    
C96   H44   S    
N12   C108  S    
C83   H12   S    
C66   O38   A    
C37   C61   A    
N8    H69   S    
Cr5   O49   S    
C39   C63   A    
C40   C64   A    
C1    O25   A    
C3    C10   S    
Cr10  O14   S    
C44   C52   A    
C4    O28   A    
Cr9   O17   S    
Cr2   O2    S    
Cr3   O23   S    
C88   N4    S    
C40   H28   S    
C93   H31   S    
C26   C29   A    
Cr10  O34   S    
C97   H45   S    
C46   O30   A    
C27   C28   A    
C78   O42   A    
C28   N16   S    
C89   N5    S    
N13   H89   S    
C65   O1    A    
C52   C56   A    
C108  H86   S    
