data_mof_unit_43031.cif
_audit_creation_date              2012-12-11T15:21:33-0500
_audit_creation_method            fapswitch 2.2
_symmetry_space_group_name_H-M    P1
_symmetry_Int_Tables_number       1
_space_group_crystal_system       monoclinic
_cell_length_a                    19.161254
_cell_length_b                    7.143883
_cell_length_c                    17.715894
_cell_angle_alpha                 90.0
_cell_angle_beta                  108.865344
_cell_angle_gamma                 90.0
_cell_volume                      2294.78237284

loop_
_atom_site_label
_atom_site_type_symbol
_atom_type_description
_atom_site_fract_x
_atom_site_fract_y
_atom_site_fract_z
_atom_type_partial_charge
O1    O     O_R   0.562310 0.505770 0.439670 -0.538329
O2    O     O_R   0.437690 0.005770 0.560330 -0.538329
O3    O     O_R   0.411650 0.169150 0.405330 -0.538641
O4    O     O_R   0.588350 0.669150 0.594670 -0.538641
C1    C     C_R   0.384118 0.346261 0.383517 0.671479
C2    C     C_R   0.615882 0.846262 0.616483 0.671480
O5    O     O_R   0.560140 0.175610 0.430010 -0.541163
O6    O     O_R   0.439860 0.675610 0.569990 -0.541162
O7    O     O_R   0.587240 0.012100 0.585200 -0.541708
O8    O     O_R   0.412760 0.512100 0.414800 -0.541708
C3    C     C_R   0.581319 0.344661 0.415137 0.717278
C4    C     C_R   0.418681 0.844661 0.584863 0.717276
O9    O     O_3   0.508720 0.341420 0.550890 -0.373240
O10   O     O_3   0.491280 0.841420 0.449110 -0.373240
V1    V     V_3+5 0.498380 0.063930 0.490560 1.389638
V2    V     V_3+5 0.501620 0.563930 0.509440 1.389637
C5    C     C_R   0.173820 0.753809 0.868374 -0.216962
C6    C     C_R   0.826180 0.253810 0.131626 -0.216962
C7    C     C_R   0.130604 0.915114 0.865402 -0.084261
C8    C     C_R   0.869396 0.415114 0.134598 -0.084262
C9    C     C_R   0.135314 0.064320 0.815293 -0.229900
C10   C     C_R   0.864686 0.564320 0.184707 -0.229900
C11   C     C_R   0.181971 0.052644 0.768374 0.091258
C12   C     C_R   0.818029 0.552643 0.231626 0.091258
C13   C     C_R   0.225504 0.891073 0.772446 0.055372
C14   C     C_R   0.774495 0.391073 0.227554 0.055372
C15   C     C_R   0.221509 0.741461 0.822827 0.087609
C16   C     C_R   0.778491 0.241461 0.177173 0.087609
C17   C     C_R   0.185864 0.199626 0.717312 -0.186722
C18   C     C_R   0.814136 0.699626 0.282688 -0.186722
C19   C     C_R   0.233086 0.187879 0.671480 -0.194409
C20   C     C_R   0.766914 0.687879 0.328520 -0.194409
C21   C     C_R   0.277207 0.028745 0.675744 0.089539
C22   C     C_R   0.722793 0.528745 0.324256 0.089539
C23   C     C_R   0.273170 0.879112 0.726101 0.054097
C24   C     C_R   0.726830 0.379112 0.273899 0.054097
C25   C     C_R   0.316760 0.717619 0.730256 0.087155
C26   C     C_R   0.683240 0.217619 0.269744 0.087155
C27   C     C_R   0.312767 0.570486 0.781198 -0.183483
C28   C     C_R   0.687233 0.070486 0.218802 -0.183483
C29   C     C_R   0.265526 0.582192 0.826990 -0.195296
C30   C     C_R   0.734474 0.082192 0.173010 -0.195296
C31   C     C_R   0.325145 0.016655 0.630446 -0.217403
C32   C     C_R   0.674855 0.516656 0.369553 -0.217403
C33   C     C_R   0.368641 0.855686 0.633767 -0.079727
C34   C     C_R   0.631359 0.355686 0.366233 -0.079727
C35   C     C_R   0.363678 0.706254 0.683646 -0.215099
C36   C     C_R   0.636322 0.206254 0.316354 -0.215099
H1    H     H_    0.171195 0.638312 0.907068 0.126855
H2    H     H_    0.828805 0.138312 0.092931 0.126855
H3    H     H_    0.102093 0.188772 0.812078 0.128856
H4    H     H_    0.897907 0.688772 0.187922 0.128856
H5    H     H_    0.152627 0.324344 0.713102 0.135050
H6    H     H_    0.847373 0.824343 0.286898 0.135050
H7    H     H_    0.235367 0.303937 0.632955 0.130093
H8    H     H_    0.764632 0.803938 0.367045 0.130093
H9    H     H_    0.327847 0.132162 0.591786 0.123989
H10   H     H_    0.672153 0.632162 0.408214 0.123989
H11   H     H_    0.396989 0.581918 0.687013 0.133368
H12   H     H_    0.603011 0.081917 0.312987 0.133368
H13   H     H_    0.346006 0.445773 0.785418 0.136312
H14   H     H_    0.653994 0.945773 0.214582 0.136312
H15   H     H_    0.263230 0.466108 0.865498 0.130788
H16   H     H_    0.736770 0.966108 0.134502 0.130788
C37   C     C_3   0.761004 0.761590 0.828853 -0.352978
C38   C     C_3   0.238996 0.261591 0.171147 -0.352978
H17   H     H_    0.787090 0.621688 0.839089 0.143024
H18   H     H_    0.212910 0.121689 0.160911 0.143024
H19   H     H_    0.751221 0.798143 0.885688 0.128363
H20   H     H_    0.248779 0.298143 0.114312 0.128363
C39   C     C_3   0.686305 0.746444 0.759130 0.026952
C40   C     C_3   0.313694 0.246444 0.240870 0.026952
H21   H     H_    0.679183 0.597494 0.739472 0.131433
H22   H     H_    0.320817 0.097494 0.260527 0.131433
H23   H     H_    0.751817 0.648657 0.653791 0.148589
H24   H     H_    0.248183 0.148657 0.346210 0.148588
C41   C     C_3   0.829194 0.857333 0.730895 0.031753
C42   C     C_3   0.170806 0.357333 0.269105 0.031753
C43   C     C_3   0.768321 0.094957 0.794782 -0.379865
C44   C     C_3   0.231679 0.594957 0.205218 -0.379866
C45   C     C_3   0.813471 0.910219 0.810746 0.050435
C46   C     C_3   0.186529 0.410219 0.189254 0.050436
H25   H     H_    0.804278 0.215138 0.792441 0.169777
H26   H     H_    0.195722 0.715138 0.207559 0.169777
H27   H     H_    0.747124 0.125142 0.845080 0.112099
H28   H     H_    0.252876 0.625142 0.154920 0.112099
C47   C     C_3   0.688170 0.868935 0.686774 0.053331
C48   C     C_3   0.311830 0.368935 0.313226 0.053330
C49   C     C_3   0.756000 0.801714 0.663944 -0.381765
C50   C     C_3   0.243999 0.301714 0.336056 -0.381765
C51   C     C_3   0.702871 0.081337 0.715406 0.115363
C52   C     C_3   0.297129 0.581337 0.284594 0.115363
H29   H     H_    0.652710 0.136971 0.726496 0.119875
H30   H     H_    0.347290 0.636971 0.273504 0.119875
H31   H     H_    0.847174 0.990893 0.710274 0.128395
H32   H     H_    0.152826 0.490893 0.289726 0.128395
H33   H     H_    0.755602 0.863766 0.606271 0.121391
H34   H     H_    0.244398 0.363766 0.393729 0.121391
O11   O     O_R   0.087220 0.271820 0.085230 -0.534919
O12   O     O_R   0.912780 0.771820 0.914770 -0.534919
O13   O     O_R   0.939860 0.595540 0.069990 -0.540391
O14   O     O_R   0.060140 0.095540 0.930010 -0.540392
C53   C     C_R   0.918922 0.426450 0.085135 0.694067
C54   C     C_R   0.081078 0.926450 0.914865 0.694067
O15   O     O_R   0.088340 0.601930 0.094680 -0.545768
O16   O     O_R   0.911660 0.101930 0.905320 -0.545768
O17   O     O_R   0.062310 0.765410 0.939660 -0.535205
O18   O     O_R   0.937690 0.265410 0.060340 -0.535205
C55   C     C_R   0.115755 0.431456 0.117910 0.668720
C56   C     C_R   0.884245 0.931456 0.882090 0.668720
O19   O     O_3   0.991270 0.429630 0.949130 -0.374228
O20   O     O_3   0.008730 0.929630 0.050870 -0.374228
V3    V     V_3+5 0.001620 0.707150 0.009440 1.363339
V4    V     V_3+5 0.998380 0.207150 0.990560 1.363339
N1    N     N_3   0.623276 0.795545 0.785208 -0.689224
H35   H     H_    0.633446 0.921613 0.816824 0.228652
H36   H     H_    0.617869 0.692507 0.824904 0.230015
N2    N     N_3   0.376724 0.295544 0.214792 -0.689224
H37   H     H_    0.366554 0.421613 0.183177 0.228652
H38   H     H_    0.382130 0.192508 0.175095 0.230015
C57   C     C_3   0.894958 0.724786 0.735780 -0.364184
C58   C     C_3   0.887306 0.519635 0.756574 -0.677988
H39   H     H_    0.883356 0.504199 0.816956 0.237671
H40   H     H_    0.839598 0.451687 0.712341 0.216927
H41   H     H_    0.937451 0.442554 0.755951 0.198353
H42   H     H_    0.903754 0.726926 0.676726 0.174368
H43   H     H_    0.946313 0.782134 0.778881 0.167909
C59   C     C_3   0.105042 0.224786 0.264220 -0.364184
C60   C     C_3   0.112694 0.019635 0.243426 -0.677988
H44   H     H_    0.116644 0.004199 0.183044 0.237670
H45   H     H_    0.160402 0.951687 0.287659 0.216927
H46   H     H_    0.062549 0.942554 0.244049 0.198353
H47   H     H_    0.096246 0.226926 0.323274 0.174368
H48   H     H_    0.053687 0.282134 0.221119 0.167909
N3    N     N_3   0.720235 0.203171 0.656546 -0.694706
H49   H     H_    0.700704 0.151636 0.598434 0.239833
H50   H     H_    0.695515 0.333715 0.656290 0.218200
N4    N     N_3   0.279764 0.703171 0.343454 -0.694706
H51   H     H_    0.299296 0.651636 0.401566 0.239832
H52   H     H_    0.304485 0.833716 0.343709 0.218200

loop_
_geom_bond_atom_site_label_1
_geom_bond_atom_site_label_2
_ccdc_geom_bond_type
H24   C50   S    
C38   H18   S    
O12   C56   A    
C47   C51   S    
O13   V3    S    
O1    C3    A    
C43   H27   S    
C44   H26   S    
O2    C4    A    
C59   C60   S    
O11   V4    S    
N3    H49   S    
C27   C29   A    
C8    C53   S    
C42   C50   S    
O5    C3    A    
C18   H6    S    
C41   C49   S    
O16   V4    S    
C11   C17   A    
O15   V3    S    
C7    C9    A    
C12   C14   A    
C57   H43   S    
C51   H29   S    
N1    H35   S    
O11   C55   A    
C28   H14   S    
C6    C8    A    
O18   V4    S    
C15   C29   A    
N2    H37   S    
O17   V3    S    
C44   H28   S    
C5    C7    A    
C1    C48   S    
C42   H32   S    
C38   C40   S    
C48   C52   S    
C32   H10   S    
C37   H17   S    
C19   C21   A    
C53   O18   A    
C25   C35   A    
C43   C51   S    
C60   H46   S    
O5    V1    S    
C52   N4    S    
O6    V2    S    
C28   C30   A    
C2    O7    A    
O20   V3    S    
C40   C48   S    
C32   C34   A    
C36   H12   S    
N2    H38   S    
C33   C35   A    
C27   H13   S    
C34   C36   A    
C5    C15   A    
C46   C55   S    
C6    C16   A    
C44   C46   S    
N4    H51   S    
C5    H1    S    
C43   C45   S    
H23   C49   S    
N1    H36   S    
C37   C39   S    
C41   H31   S    
C2    C47   S    
C49   H33   S    
C21   C31   A    
C25   C27   A    
O4    V2    S    
O14   V4    S    
C18   C20   A    
C59   H48   S    
C38   C46   S    
C7    C54   S    
C42   C46   S    
C37   C45   S    
C41   C45   S    
O6    C4    A    
C52   H30   S    
C39   N1    S    
O1    V2    S    
O14   C54   A    
O2    V1    S    
C31   C33   A    
C57   C58   S    
N4    H52   S    
C13   C23   A    
C39   C47   S    
C40   H22   S    
C48   C50   S    
C9    C11   A    
C10   C12   A    
O4    C2    A    
C29   H15   S    
C58   H40   S    
C30   H16   S    
C9    H3    S    
O3    V1    S    
C6    H2    S    
C10   H4    S    
C60   H44   S    
O16   C56   A    
C14   C24   A    
N3    H50   S    
C22   C32   A    
O15   C55   A    
C23   C25   A    
C26   C36   A    
O12   V3    S    
C8    C10   A    
C4    C33   S    
O3    C1    A    
C13   C15   A    
C14   C16   A    
O13   C53   A    
C58   H41   S    
C24   C26   A    
O7    V1    S    
C1    O8    A    
C44   C52   S    
O8    V2    S    
C59   H47   S    
C26   C28   A    
C38   H20   S    
C17   H5    S    
C37   H19   S    
C16   C30   A    
C21   C23   A    
C20   H8    S    
O19   V4    S    
C22   C24   A    
C11   C13   A    
C12   C18   A    
C41   C57   S    
C42   C59   S    
C31   H9    S    
C35   H11   S    
C43   H25   S    
C57   H42   S    
C51   N3    S    
C45   C56   S    
C17   C19   A    
O9    V2    S    
C39   H21   S    
C47   C49   S    
O10   V1    S    
C3    C34   S    
C19   H7    S    
C58   H39   S    
C50   H34   S    
C54   O17   A    
C40   N2    S    
C20   C22   A    
C60   H45   S    
