data_mof_unit_21169.cif
_audit_creation_date              2012-12-11T14:57:59-0500
_audit_creation_method            fapswitch 2.2
_symmetry_space_group_name_H-M    P1
_symmetry_Int_Tables_number       1
_space_group_crystal_system       triclinic
_cell_length_a                    6.931679
_cell_length_b                    16.727523
_cell_length_c                    17.080135
_cell_angle_alpha                 100.427293
_cell_angle_beta                  90.216337
_cell_angle_gamma                 90.581028
_cell_volume                      1947.60051307

loop_
_atom_site_label
_atom_site_type_symbol
_atom_type_description
_atom_site_fract_x
_atom_site_fract_y
_atom_site_fract_z
_atom_type_partial_charge
O1    O     O_R   0.506180 0.438940 0.579430 -0.537643
O2    O     O_R   0.170520 0.406230 0.413590 -0.539249
O3    O     O_R   0.005180 0.561060 0.420570 -0.539421
C1    C     C_R   0.339209 0.383392 0.384980 0.694731
O4    O     O_R   0.176140 0.429310 0.578370 -0.543908
O5    O     O_R   0.010830 0.584300 0.586530 -0.534460
C2    C     C_R   0.346318 0.413998 0.605485 0.697698
O6    O     O_R   0.500520 0.415700 0.413470 -0.534083
O7    O     O_3   0.340830 0.550820 0.502480 -0.366921
V1    V     V_3+5 0.064040 0.490570 0.499540 1.417654
O8    O     O_R   0.681400 0.593770 0.586410 -0.539787
C3    C     C_R   0.851259 0.617345 0.613836 0.699252
O9    O     O_R   0.675790 0.570690 0.421630 -0.544275
C4    C     C_R   0.846411 0.586237 0.394678 0.694874
V2    V     V_3+5 0.564650 0.509430 0.500460 1.419236
O10   O     O_3   0.837730 0.449180 0.497520 -0.366452
C5    C     C_R   0.895417 0.865790 0.170327 -0.078034
C6    C     C_R   0.872463 0.637856 0.332771 -0.068975
C7    C     C_R   0.086814 0.680200 0.233710 -0.201184
C8    C     C_R   0.038507 0.626498 0.284524 -0.151455
C9    C     C_R   0.751530 0.703505 0.326982 -0.253704
C10   C     C_R   0.799936 0.758167 0.275666 0.158972
C11   C     C_R   0.970025 0.746893 0.229232 0.159552
C12   C     C_R   0.018900 0.801572 0.178125 -0.256102
C13   C     C_R   0.728817 0.877147 0.218249 -0.157318
C14   C     C_R   0.682273 0.824472 0.270421 -0.197251
H1    H     H_    0.147790 0.791962 0.142132 0.120823
H2    H     H_    0.631174 0.926441 0.214242 0.122117
H3    H     H_    0.216757 0.669830 0.198391 0.118264
H4    H     H_    0.552060 0.834827 0.305562 0.118908
H5    H     H_    0.134598 0.576372 0.287269 0.123669
H6    H     H_    0.624640 0.713719 0.364215 0.121331
H7    H     H_    0.021024 0.609583 0.966334 0.117722
C15   C     C_R   0.832108 0.911030 0.729305 -0.147327
C16   C     C_R   0.789793 0.927943 0.654214 -0.119000
C17   C     C_R   0.771258 0.865058 0.589199 -0.117677
C18   C     C_R   0.795209 0.784823 0.598801 -0.133910
C19   C     C_R   0.837625 0.765760 0.674431 0.072818
C20   C     C_R   0.856224 0.829975 0.741210 0.048189
C21   C     C_R   0.864498 0.684356 0.683754 -0.170957
C22   C     C_R   0.908852 0.666510 0.759734 0.028032
C23   C     C_R   0.925732 0.730214 0.827737 0.071636
C24   C     C_R   0.900276 0.812796 0.817846 -0.187495
C25   C     C_R   0.933980 0.584790 0.768996 -0.148964
C26   C     C_R   0.975400 0.565237 0.842619 -0.161296
C27   C     C_R   0.990603 0.626003 0.909055 -0.157953
C28   C     C_R   0.965045 0.707699 0.903135 0.194131
H8    H     H_    0.846513 0.962424 0.777583 0.094757
H9    H     H_    0.771943 0.990267 0.646445 0.113083
H10   H     H_    0.738933 0.878489 0.530906 0.112960
H11   H     H_    0.780855 0.738096 0.546219 0.093794
H12   H     H_    0.920926 0.534573 0.719472 0.111157
H13   H     H_    0.994202 0.502340 0.848271 0.125748
H14   H     H_    0.570716 0.488628 0.152029 0.115495
C29   C     C_R   0.238854 0.216566 0.396009 -0.138728
C30   C     C_R   0.197535 0.136858 0.404354 -0.118732
C31   C     C_R   0.226734 0.073175 0.341147 -0.125448
C32   C     C_R   0.297743 0.088660 0.269104 -0.144397
C33   C     C_R   0.339557 0.169021 0.258402 0.072665
C34   C     C_R   0.309142 0.234408 0.323327 0.069453
C35   C     C_R   0.413727 0.184421 0.185001 -0.186815
C36   C     C_R   0.457425 0.265515 0.176870 0.069531
C37   C     C_R   0.426986 0.330902 0.241791 0.072177
C38   C     C_R   0.352858 0.315503 0.315200 -0.187683
C39   C     C_R   0.527639 0.283359 0.104176 -0.138803
C40   C     C_R   0.568833 0.363069 0.095809 -0.119308
C41   C     C_R   0.539580 0.426753 0.159006 -0.125479
C42   C     C_R   0.468666 0.411267 0.231066 -0.142115
H15   H     H_    0.215616 0.263747 0.447298 0.102815
H16   H     H_    0.143549 0.124428 0.460384 0.111039
H17   H     H_    0.195473 0.011302 0.348102 0.116537
H18   H     H_    0.321283 0.036770 0.222360 0.100405
H19   H     H_    0.550890 0.236180 0.052886 0.103131
H20   H     H_    0.622743 0.375500 0.039767 0.111011
H21   H     H_    0.445055 0.463159 0.277798 0.102086
C43   C     C_R   0.396751 0.136294 0.831532 -0.065339
C44   C     C_R   0.368853 0.363950 0.668767 -0.066556
C45   C     C_R   0.568064 0.330994 0.777095 -0.191437
C46   C     C_R   0.522905 0.382190 0.723494 -0.152710
C47   C     C_R   0.257592 0.293431 0.669899 -0.245417
C48   C     C_R   0.304109 0.240822 0.723276 0.156896
C49   C     C_R   0.461382 0.259475 0.777087 0.156710
C50   C     C_R   0.507954 0.206840 0.830435 -0.244818
C51   C     C_R   0.242616 0.118091 0.776842 -0.153724
C52   C     C_R   0.197410 0.169312 0.723272 -0.191285
H22   H     H_    0.624921 0.222379 0.872959 0.115450
H23   H     H_    0.154046 0.064265 0.776419 0.120010
H24   H     H_    0.688373 0.346891 0.817834 0.115796
H25   H     H_    0.077081 0.153428 0.682540 0.115829
H26   H     H_    0.611479 0.436009 0.723903 0.122101
H27   H     H_    0.140666 0.277874 0.627359 0.115615
O11   O     O_R   0.265840 0.084300 0.086750 -0.536229
O12   O     O_R   0.589750 0.070740 0.921690 -0.545273
O13   O     O_R   0.755020 0.915730 0.913400 -0.536485
C53   C     C_R   0.419488 0.086141 0.894718 0.693490
O14   O     O_R   0.595830 0.093740 0.086480 -0.540913
O15   O     O_R   0.761150 0.938890 0.079360 -0.538335
C54   C     C_R   0.427223 0.116555 0.115199 0.691910
O16   O     O_R   0.259710 0.061140 0.920790 -0.539676
O17   O     O_3   0.425260 0.949200 0.997610 -0.366302
V3    V     V_3+5 0.702060 0.009430 0.000450 1.421448
O18   O     O_R   0.090530 0.929220 0.078150 -0.537949
C55   C     C_R   0.920419 0.915755 0.106871 0.734975
O19   O     O_R   0.084440 0.906220 0.913360 -0.530515
C56   C     C_R   0.914344 0.881994 0.886250 0.790700
V4    V     V_3+5 0.201450 0.990520 0.999290 1.428637
O20   O     O_3   0.928380 0.050800 0.002390 -0.371535
N1    N     N_3   0.976975 0.766286 0.974994 -0.679692
H28   H     H_    0.874247 0.750693 0.014479 0.216956
H29   H     H_    0.113936 0.762346 0.999748 0.222522

loop_
_geom_bond_atom_site_label_1
_geom_bond_atom_site_label_2
_ccdc_geom_bond_type
V3    O20   S    
C29   C30   A    
O13   C56   A    
C6    C9    A    
C22   C23   A    
C4    C6    S    
O2    C1    A    
C7    C8    A    
C12   H1    S    
C1    O6    A    
C43   C51   A    
O19   V4    S    
C48   C49   A    
O11   C54   A    
C26   C27   A    
N1    H28   S    
C13   H2    S    
C36   C37   A    
C9    C10   A    
C17   C18   A    
C43   C53   S    
O5    C3    A    
C19   C20   A    
C18   H11   S    
C53   O16   A    
V4    O20   S    
V2    O10   S    
C40   H20   S    
C39   H19   S    
C30   C31   A    
C15   C16   A    
C24   C56   S    
C46   H26   S    
C37   C42   A    
O8    V2    S    
C16   C17   A    
O13   V3    S    
O14   C54   A    
C16   H9    S    
C11   C12   A    
C51   H23   S    
O1    V2    S    
O9    C4    A    
O7    V1    S    
C2    C44   S    
C25   H12   S    
C40   C41   A    
C26   H13   S    
C33   C34   A    
O12   C53   A    
C29   C34   A    
H7    C27   S    
C35   C36   A    
C43   C50   A    
O19   C56   A    
C44   C46   A    
C9    H6    S    
C33   C35   A    
C5    C12   A    
C41   C42   A    
C51   C52   A    
O12   V3    S    
O4    C2    A    
C52   H25   S    
C45   C46   A    
C20   C24   A    
H14   C41   S    
C32   C33   A    
C15   C20   A    
C42   H21   S    
C3    C21   S    
C7    C11   A    
C18   C19   A    
C45   C49   A    
C5    C55   S    
C29   H15   S    
C31   H17   S    
O15   C55   A    
O3    C4    A    
O11   V4    S    
C21   C22   A    
C14   H4    S    
O6    V2    S    
C30   H16   S    
O9    V2    S    
C22   C25   A    
C15   H8    S    
C23   C24   A    
O2    V1    S    
C17   H10   S    
C25   C26   A    
C44   C47   A    
C45   H24   S    
C28   N1    S    
O16   V4    S    
C27   C28   A    
C36   C39   A    
O1    C2    A    
C47   C48   A    
O5    V1    S    
O8    C3    A    
C1    C38   S    
O17   V4    S    
C34   C38   A    
C5    C13   A    
C47   H27   S    
C13   C14   A    
O4    V1    S    
O3    V1    S    
V1    O10   S    
C19   C21   A    
C35   C54   S    
C32   H18   S    
C31   C32   A    
O17   V3    S    
N1    H29   S    
O18   V4    S    
C6    C8    A    
C23   C28   A    
C39   C40   A    
O7    V2    S    
O18   C55   A    
O15   V3    S    
C37   C38   A    
C50   H22   S    
C49   C50   A    
C10   C14   A    
C10   C11   A    
O14   V3    S    
C48   C52   A    
C8    H5    S    
C7    H3    S    
