data_mof_unit_21428.cif
_audit_creation_date              2012-12-10T17:09:56-0500
_audit_creation_method            fapswitch 2.2
_symmetry_space_group_name_H-M    P1
_symmetry_Int_Tables_number       1
_space_group_crystal_system       triclinic
_cell_length_a                    10.756701
_cell_length_b                    12.993452
_cell_length_c                    11.747516
_cell_angle_alpha                 99.070846
_cell_angle_beta                  93.078258
_cell_angle_gamma                 91.695868
_cell_volume                      1617.83187311

loop_
_atom_site_label
_atom_site_type_symbol
_atom_type_description
_atom_site_fract_x
_atom_site_fract_y
_atom_site_fract_z
_atom_type_partial_charge
C1    C     C_R   0.499900 0.299922 0.479352 0.758407
C2    C     C_R   0.064542 0.409280 0.539895 0.090185
C3    C     C_R   0.128637 0.492291 0.500709 -0.067703
C4    C     C_R   0.064140 0.569997 0.455960 -0.171965
C5    C     C_R   0.935704 0.569131 0.453854 -0.164205
C6    C     C_R   0.870481 0.490789 0.496956 -0.064074
C7    C     C_R   0.492309 0.813831 0.531467 -0.179375
C8    C     C_R   0.508695 0.188119 0.468640 -0.031284
C9    C     C_R   0.591056 0.028195 0.374685 -0.146389
C10   C     C_R   0.576053 0.134583 0.381089 -0.179465
C11   C     C_R   0.455575 0.135673 0.549805 -0.187797
C12   C     C_R   0.262646 0.497919 0.500508 0.790997
C13   C     C_R   0.467776 0.028635 0.542855 0.056412
C14   C     C_R   0.535090 0.973316 0.453933 0.083590
C15   C     C_R   0.546460 0.865059 0.448074 0.281870
C16   C     C_R   0.425199 0.870193 0.619280 0.310810
C17   C     C_R   0.413859 0.976908 0.624350 -0.238110
C18   C     C_R   0.367038 0.413202 0.027576 -0.309642
C19   C     C_R   0.381246 0.422064 0.148571 0.035837
C20   C     C_R   0.561519 0.532420 0.151576 0.565854
C21   C     C_R   0.549096 0.526776 0.030064 0.016303
C22   C     C_R   0.452259 0.464854 0.966048 -0.101352
C23   C     C_R   0.499225 0.700557 0.520794 0.899995
C24   C     C_R   0.443663 0.459268 0.842880 0.617810
C25   C     C_R   0.614923 0.580921 0.852529 0.011935
C26   C     C_R   0.630640 0.584625 0.971925 -0.264662
C27   C     C_R   0.737138 0.497641 0.498972 0.776650
C28   C     C_R   0.127623 0.325314 0.576321 -0.191669
C29   C     C_R   0.061969 0.243598 0.612945 -0.245062
C30   C     C_R   0.931477 0.242945 0.612728 0.473622
C31   C     C_R   0.868082 0.324951 0.575373 -0.172118
C32   C     C_R   0.933189 0.408802 0.538663 0.001313
Cu1   Cu    Cu3+1 0.509250 0.507730 0.615930 1.022963
Cu2   Cu    Cu3+1 0.490750 0.492270 0.384070 0.962395
H1    H     H_    0.113795 0.632397 0.423992 0.157500
H2    H     H_    0.361472 0.019438 0.691637 0.178057
H3    H     H_    0.620216 0.175711 0.319710 0.155442
H4    H     H_    0.404280 0.178289 0.617975 0.142433
H5    H     H_    0.677584 0.626369 0.809207 0.157495
H6    H     H_    0.287456 0.367706 0.984474 0.162253
H7    H     H_    0.705645 0.634090 0.018291 0.206919
H8    H     H_    0.314754 0.381796 0.193526 0.151643
H9    H     H_    0.227733 0.320945 0.574806 0.173646
H10   H     H_    0.113018 0.180274 0.640317 0.136074
H11   H     H_    0.767439 0.321067 0.573618 0.159582
H12   H     H_    0.886944 0.631129 0.420876 0.171968
H13   H     H_    0.647801 0.990662 0.308235 0.153353
N1    N     N_R   0.523180 0.519350 0.790130 -0.184483
N2    N     N_R   0.476820 0.480650 0.209890 -0.233521
O1    O     O_R   0.506570 0.354460 0.582000 -0.557483
O2    O     O_R   0.490940 0.341410 0.386200 -0.590877
O3    O     O_R   0.327470 0.506530 0.597920 -0.506458
O4    O     O_R   0.311840 0.493480 0.402120 -0.602722
O5    O     O_R   0.509060 0.658590 0.613800 -0.544674
O6    O     O_R   0.493430 0.645540 0.418000 -0.584347
O7    O     O_R   0.688160 0.506520 0.597880 -0.596473
O8    O     O_R   0.672530 0.493470 0.402080 -0.577119
O9    O     O_3   0.357509 0.394093 0.773400 -0.718786
H14   H     H_    0.340781 0.331753 0.809574 0.288772
O10   O     O_3   0.662320 0.589900 0.208007 -0.744301
H15   H     H_    0.640344 0.617468 0.286225 0.394939
O11   O     O_3   0.863159 0.162847 0.646913 -0.719534
H16   H     H_    0.921258 0.110998 0.670170 0.326573
O12   O     O_3   0.612844 0.808122 0.364296 -0.732160
H17   H     H_    0.587453 0.828838 0.289105 0.328874
Cl1   Cl    Cl    0.346013 0.810118 0.720611 -0.594661

loop_
_geom_bond_atom_site_label_1
_geom_bond_atom_site_label_2
_ccdc_geom_bond_type
C11   H4    S    
C6    C32   A    
C15   O12   S    
C23   O6    A    
C20   N2    A    
C17   H2    S    
C10   H3    S    
C20   O10   S    
C1    C8    S    
C11   C13   A    
C5    H12   S    
C19   N2    A    
C28   H9    S    
C12   O4    A    
C14   C15   A    
C19   H8    S    
C13   C17   A    
C9    C14   A    
O12   H17   S    
Cu1   O7    S    
C7    C15   A    
C2    C3    A    
C25   C26   A    
C4    H1    S    
Cu2   O6    S    
C18   C22   A    
C13   C14   A    
C25   H5    S    
Cu1   O3    S    
C1    O2    A    
C25   N1    A    
Cu2   O2    S    
C29   C30   A    
Cu2   O4    S    
C8    C11   A    
C7    C23   S    
C5    C6    A    
C2    C32   A    
C24   O9    S    
C28   C29   A    
C12   O3    A    
C21   C26   A    
Cu1   Cu2   S    
C30   O11   S    
C29   H10   S    
C27   O8    A    
C30   C31   A    
C16   C17   A    
C22   C24   A    
O9    H14   S    
C9    H13   S    
C16   Cl1   S    
C31   H11   S    
C3    C4    A    
C24   N1    A    
C9    C10   A    
C20   C21   A    
C23   O5    A    
C8    C10   A    
C18   C19   A    
C1    O1    A    
Cu1   O5    S    
Cu1   N1    S    
C18   H6    S    
C27   O7    A    
O10   H15   S    
Cu2   N2    S    
C2    C28   A    
C3    C12   S    
Cu1   O1    S    
C21   C22   A    
C31   C32   A    
C7    C16   A    
O11   H16   S    
C6    C27   S    
C26   H7    S    
C4    C5    A    
Cu2   O8    S    
