data_mof_unit_50186.cif
_audit_creation_date              2012-12-10T18:07:29-0500
_audit_creation_method            fapswitch 2.2
_symmetry_space_group_name_H-M    P1
_symmetry_Int_Tables_number       1
_space_group_crystal_system       triclinic
_cell_length_a                    11.546135
_cell_length_b                    12.625289
_cell_length_c                    13.246278
_cell_angle_alpha                 83.275875
_cell_angle_beta                  91.323551
_cell_angle_gamma                 102.460941
_cell_volume                      1872.4927265

loop_
_atom_site_label
_atom_site_type_symbol
_atom_type_description
_atom_site_fract_x
_atom_site_fract_y
_atom_site_fract_z
_atom_type_partial_charge
C1    C     C_R   0.489691 0.439333 0.691176 0.887600
C2    C     C_R   0.656782 0.652980 0.897684 -0.264122
C3    C     C_R   0.637752 0.564684 0.840008 0.011893
C4    C     C_R   0.717960 0.501530 0.498341 0.901008
C5    C     C_R   0.558337 0.506182 0.141910 -0.074862
C6    C     C_R   0.586706 0.699408 0.159012 -0.196738
C7    C     C_R   0.485454 0.400995 0.800176 -0.168122
C8    C     C_R   0.312016 0.081783 0.363955 0.029236
C9    C     C_R   0.637683 0.799719 0.630707 0.018992
C10   C     C_R   0.654073 0.898553 0.670382 -0.274338
C11   C     C_R   0.592796 0.977340 0.629153 0.013553
C12   C     C_R   0.554557 0.590059 0.202407 -0.099624
C13   C     C_R   0.521471 0.959427 0.540345 -0.014582
C14   C     C_R   0.501824 0.853402 0.508617 0.208588
C15   C     C_R   0.466044 0.038627 0.483555 -0.045694
C16   C     C_R   0.521168 0.559514 0.309482 0.862039
C17   C     C_R   0.378181 0.005802 0.408533 0.071517
C18   C     C_R   0.363517 0.899840 0.378848 -0.047317
C19   C     C_R   0.424174 0.826498 0.429366 -0.244585
C20   C     C_R   0.499360 0.150727 0.494233 -0.021218
C21   C     C_R   0.348898 0.191103 0.380688 0.069636
C22   C     C_R   0.282120 0.499132 0.499370 0.910232
C23   C     C_R   0.404703 0.303099 0.837569 0.177193
C24   C     C_1   0.839069 0.503530 0.496343 -0.139390
C25   C     C_1   0.941080 0.502450 0.495527 0.030885
C26   C     C_1   0.059265 0.499692 0.495915 0.028167
C27   C     C_1   0.161199 0.498119 0.497220 -0.150677
C28   C     C_R   0.623679 0.722649 0.057201 -0.162789
C29   C     C_1   0.302634 0.865996 0.287585 0.223465
C30   C     C_1   0.594542 0.065968 0.689358 0.173557
C31   C     C_1   0.589836 0.404092 0.183805 0.208981
C32   C     C_1   0.728372 0.561607 0.768117 0.166945
C33   C     C_1   0.291465 0.272114 0.328012 0.301928
C34   C     C_R   0.381812 0.279536 0.941146 -0.150970
C35   C     C_R   0.432365 0.353250 0.007507 -0.199270
C36   C     C_R   0.515305 0.449392 0.972754 0.069798
C37   C     C_R   0.547721 0.470641 0.869593 0.011885
C38   C     C_R   0.559648 0.529880 0.037301 0.039321
C39   C     C_R   0.610677 0.637203 0.995913 0.138586
H1    H     H_    0.589918 0.765693 0.204735 0.171915
H2    H     H_    0.575153 0.184802 0.537492 0.152914
H3    H     H_    0.683417 0.738497 0.663935 0.149710
H4    H     H_    0.710597 0.911430 0.736300 0.156309
H5    H     H_    0.410475 0.747665 0.403942 0.213369
H6    H     H_    0.716153 0.729432 0.870437 0.144588
H7    H     H_    0.659375 0.806315 0.026091 0.152605
H8    H     H_    0.400963 0.336496 0.085250 0.161971
H9    H     H_    0.317807 0.206825 0.969949 0.180782
I1    I     I_    0.143072 0.037392 0.289880 -0.338846
I2    I     I_    0.297778 0.190642 0.746828 -0.312039
N1    N     N_R   0.440320 0.222190 0.444690 -0.132687
N2    N     N_R   0.559060 0.776980 0.554780 -0.126053
N3    N     N_1   0.255302 0.837365 0.214432 -0.162029
N4    N     N_1   0.596473 0.136445 0.738387 -0.171817
N5    N     N_1   0.615089 0.323095 0.216864 -0.183757
N6    N     N_1   0.803470 0.559363 0.712724 -0.201859
N7    N     N_1   0.244960 0.336456 0.284824 -0.196340
O1    O     O_R   0.471500 0.366730 0.627160 -0.580282
O2    O     O_R   0.509620 0.544830 0.662520 -0.613199
O3    O     O_R   0.646490 0.410960 0.482310 -0.616764
O4    O     O_R   0.684610 0.589050 0.517670 -0.607570
O5    O     O_R   0.490380 0.455170 0.337480 -0.617281
O6    O     O_R   0.528500 0.633270 0.372840 -0.644192
O7    O     O_R   0.315390 0.410950 0.482330 -0.597031
O8    O     O_R   0.353510 0.589040 0.517690 -0.625708
Zn1   Zn    Zn3+2 0.474550 0.381080 0.476390 0.988520
Zn2   Zn    Zn3+2 0.525450 0.618920 0.523610 0.954063

loop_
_geom_bond_atom_site_label_1
_geom_bond_atom_site_label_2
_ccdc_geom_bond_type
C22   O8    A    
C16   O6    A    
C6    C28   A    
C11   C13   A    
C9    C10   A    
O4    Zn2   S    
C8    C17   A    
O8    Zn2   S    
O1    Zn1   S    
C23   C34   A    
C31   N5    T    
C4    O3    A    
C36   C38   A    
C2    C3    A    
C7    C37   A    
N1    Zn1   S    
O3    Zn1   S    
C4    O4    A    
C18   C29   S    
C1    C7    S    
C13   C14   A    
C24   C25   T    
C6    C12   A    
C30   N4    T    
C28   H7    S    
C9    H3    S    
C38   C39   A    
C9    N2    A    
C29   N3    T    
C7    C23   A    
C8    I1    S    
C14   N2    A    
C36   C37   A    
C25   C26   S    
C1    O2    A    
C32   N6    T    
C20   H2    S    
C20   N1    A    
C6    H1    S    
C22   C27   S    
C13   C15   A    
C2    H6    S    
C26   C27   T    
C3    C32   S    
C4    C24   S    
O6    Zn2   S    
C21   C33   S    
C10   C11   A    
O5    Zn1   S    
C22   O7    A    
C1    O1    A    
C21   N1    A    
C34   H9    S    
C19   H5    S    
C3    C37   A    
C5    C12   A    
C17   C18   A    
C34   C35   A    
C15   C17   A    
C18   C19   A    
C14   C19   A    
C23   I2    S    
C33   N7    T    
O7    Zn1   S    
C28   C39   A    
O2    Zn2   S    
C10   H4    S    
C5    C38   A    
C2    C39   A    
C16   O5    A    
C35   H8    S    
C12   C16   S    
C11   C30   S    
N2    Zn2   S    
C15   C20   A    
C5    C31   S    
C35   C36   A    
C8    C21   A    
