data_mof_unit_33001.cif
_audit_creation_date              2012-12-11T14:35:59-0500
_audit_creation_method            fapswitch 2.2
_symmetry_space_group_name_H-M    P1
_symmetry_Int_Tables_number       1
_space_group_crystal_system       triclinic
_cell_length_a                    14.521817
_cell_length_b                    16.016904
_cell_length_c                    6.919278
_cell_angle_alpha                 90.000012
_cell_angle_beta                  81.123862
_cell_angle_gamma                 90.0
_cell_volume                      1590.11267536

loop_
_atom_site_label
_atom_site_type_symbol
_atom_type_description
_atom_site_fract_x
_atom_site_fract_y
_atom_site_fract_z
_atom_type_partial_charge
O1    O     O_R   0.337460 0.413110 0.524760 -0.551399
O2    O     O_R   0.662540 0.913110 0.475240 -0.551399
O3    O     O_R   0.348690 0.587910 0.191230 -0.533130
O4    O     O_R   0.651310 0.087910 0.808770 -0.533129
O5    O     O_R   0.166530 0.586890 0.082470 -0.543399
O6    O     O_R   0.833470 0.086890 0.917530 -0.543399
C1    C     C_R   0.368870 0.618101 0.354181 0.811168
C2    C     C_R   0.631130 0.118101 0.645819 0.811169
O7    O     O_R   0.348700 0.413830 0.191250 -0.547600
O8    O     O_R   0.651300 0.913830 0.808750 -0.547600
O9    O     O_R   0.166530 0.411570 0.082490 -0.542342
O10   O     O_R   0.833470 0.911570 0.917510 -0.542342
C3    C     C_R   0.371371 0.385146 0.353235 0.642780
C4    C     C_R   0.628629 0.885146 0.646764 0.642781
O11   O     O_R   0.337460 0.588430 0.524740 -0.501461
O12   O     O_R   0.662540 0.088430 0.475260 -0.501461
O13   O     O_3   0.192230 0.499460 0.407330 -0.388634
O14   O     O_3   0.807770 0.999460 0.592670 -0.388634
V1    V     V_3+5 0.263080 0.500100 0.108540 1.456896
V2    V     V_3+5 0.736920 0.000100 0.891460 1.456897
O15   O     O_R   0.155290 0.412090 0.756570 -0.558020
O16   O     O_R   0.844710 0.912090 0.243430 -0.558020
C5    C     C_R   0.132508 0.383254 0.933223 0.659360
C6    C     C_R   0.867492 0.883254 0.066777 0.659357
O17   O     O_R   0.155290 0.586170 0.756550 -0.544344
O18   O     O_R   0.844710 0.086170 0.243450 -0.544344
C7    C     C_R   0.131918 0.614833 0.932588 0.747060
C8    C     C_R   0.868082 0.114833 0.067412 0.747061
V3    V     V_3+5 0.240910 0.499900 0.616030 1.431074
V4    V     V_3+5 0.759090 0.999900 0.383970 1.431074
O19   O     O_3   0.311760 0.500540 0.867100 -0.354596
O20   O     O_3   0.688240 0.000540 0.132900 -0.354595
C9    C     C_3   0.102443 0.760309 0.074695 0.048609
C10   C     C_3   0.897557 0.260309 0.925305 0.048609
H1    H     H_    0.113088 0.736037 0.220764 0.111322
H2    H     H_    0.886914 0.236037 0.779234 0.111321
C11   C     C_3   0.030473 0.834256 0.113815 -0.015040
C12   C     C_3   0.969527 0.334256 0.886188 -0.015042
H3    H     H_    0.011839 0.839627 0.275908 0.113980
H4    H     H_    0.988160 0.339630 0.724095 0.113981
H5    H     H_    0.987703 0.636422 0.241494 0.121089
H6    H     H_    0.012298 0.136420 0.758508 0.121089
H7    H     H_    0.883960 0.742263 0.297698 0.080760
H8    H     H_    0.116037 0.242264 0.702299 0.080760
C13   C     C_3   0.970486 0.658233 0.099090 -0.376832
C14   C     C_3   0.029514 0.158233 0.900911 -0.376833
C15   C     C_3   0.034908 0.721237 0.766969 0.079343
C16   C     C_3   0.965093 0.221237 0.233031 0.079340
C17   C     C_3   0.061495 0.686516 0.964762 -0.045820
C18   C     C_3   0.938505 0.186516 0.035238 -0.045820
H9    H     H_    0.098498 0.748566 0.679584 0.115960
H10   H     H_    0.901502 0.248567 0.320415 0.115958
C19   C     C_3   0.938564 0.812470 0.031126 -0.055714
C20   C     C_3   0.061436 0.312469 0.968874 -0.055714
C21   C     C_3   0.898352 0.730885 0.136513 0.217205
C22   C     C_3   0.101647 0.230885 0.863485 0.217204
C23   C     C_3   0.962301 0.792213 0.808141 -0.243466
C24   C     C_3   0.037700 0.292212 0.191859 -0.243467
H11   H     H_    0.988140 0.848405 0.722483 0.091439
H12   H     H_    0.011863 0.348404 0.277519 0.091440
H13   H     H_    0.897114 0.774341 0.752242 0.204644
H14   H     H_    0.102888 0.274338 0.247755 0.204644
H15   H     H_    0.938811 0.603234 0.037659 0.180771
H16   H     H_    0.061190 0.103234 0.962345 0.180774
H17   H     H_    0.543912 0.827233 0.357348 0.101189
H18   H     H_    0.456087 0.327232 0.642652 0.101188
C25   C     C_2   0.437348 0.686788 0.347255 -0.355988
C26   C     C_2   0.562652 0.186789 0.652745 -0.355990
C27   C     C_2   0.440962 0.737052 0.502967 0.437972
C28   C     C_2   0.559037 0.237052 0.497032 0.437970
C29   C     C_2   0.556160 0.818682 0.658329 0.193283
C30   C     C_2   0.443840 0.318683 0.341670 0.193287
C31   C     C_2   0.517887 0.798760 0.497766 -0.261483
C32   C     C_2   0.482113 0.298760 0.502234 -0.261483
H19   H     H_    0.487460 0.694692 0.214743 0.122821
H20   H     H_    0.512541 0.194693 0.785258 0.122823
O21   O     O_3   0.815169 0.706815 0.071130 -0.630372
H21   H     H_    0.763917 0.739645 0.147060 0.275213
O22   O     O_3   0.184832 0.206815 0.928861 -0.630373
H22   H     H_    0.236083 0.239645 0.852927 0.275213
O23   O     O_3   0.371198 0.732323 0.663335 -0.607495
H23   H     H_    0.372105 0.784404 0.740206 0.325323
O24   O     O_3   0.628800 0.232322 0.336661 -0.607492
H24   H     H_    0.627896 0.284404 0.259795 0.325322
O25   O     O_3   0.527888 0.775669 0.831011 -0.634989
H25   H     H_    0.565583 0.794088 0.930770 0.289398
O26   O     O_3   0.472113 0.275670 0.168988 -0.634986
H26   H     H_    0.434418 0.294088 0.069228 0.289397
N1    N     N_3   0.194870 0.786079 0.975187 -0.643487
H27   H     H_    0.224713 0.826188 0.067528 0.258421
H28   H     H_    0.189862 0.818880 0.846948 0.245600
N2    N     N_3   0.805130 0.286078 0.024810 -0.643487
H29   H     H_    0.775287 0.326187 0.932468 0.258421
H30   H     H_    0.810136 0.318877 0.153051 0.245598
N3    N     N_3   0.070758 0.915178 0.044908 -0.663289
H31   H     H_    0.027393 0.963013 0.108594 0.210087
H32   H     H_    0.075023 0.920864 0.893670 0.229839
N4    N     N_3   0.929241 0.415178 0.955101 -0.663289
H33   H     H_    0.972606 0.463013 0.891421 0.210086
H34   H     H_    0.924974 0.420860 0.106340 0.229840
N5    N     N_3   0.998987 0.657675 0.643818 -0.675906
H35   H     H_    0.975694 0.604186 0.722078 0.244055
H36   H     H_    0.052080 0.639443 0.532156 0.228146
N6    N     N_3   0.001012 0.157675 0.356184 -0.675906
H37   H     H_    0.024302 0.104184 0.277925 0.244053
H38   H     H_    0.947919 0.139445 0.467847 0.228145

loop_
_geom_bond_atom_site_label_1
_geom_bond_atom_site_label_2
_ccdc_geom_bond_type
C24   H14   S    
V4    O20   S    
O26   H26   S    
N5    H35   S    
C15   N5    S    
O13   V3    S    
C4    C29   S    
N3    H31   S    
O4    C2    A    
V1    O19   S    
N6    H38   S    
O23   H23   S    
C15   C17   S    
O25   H25   S    
O9    V1    S    
C22   O22   S    
O3    C1    A    
C20   C24   S    
C21   O21   S    
C23   H11   S    
O12   V4    S    
C16   N6    S    
H17   C31   S    
C11   N3    S    
H6    C14   S    
C23   H13   S    
O7    C3    A    
O13   V1    S    
C29   O25   S    
C8    C18   S    
O7    V1    S    
O6    C8    A    
O8    V2    S    
C28   C32   S    
O3    V1    S    
O14   V4    S    
N1    H28   S    
C10   H2    S    
C12   N4    S    
C11   C19   S    
C16   C18   S    
C2    O12   A    
O5    C7    A    
O1    V3    S    
N6    H37   S    
O11   V3    S    
C24   H12   S    
C19   C21   S    
O17   V3    S    
C20   C22   S    
C10   C18   S    
C30   C32   D    
O8    C4    A    
C29   C31   D    
C19   C23   S    
C15   H9    S    
C1    O11   A    
C6    C19   S    
O21   H21   S    
O15   V3    S    
C13   H15   S    
C9    C11   S    
C14   H16   S    
C25   C27   D    
C9    N1    S    
C15   C23   S    
H8    C22   S    
O24   H24   S    
C12   C20   S    
C13   C17   S    
O10   V2    S    
N2    H30   S    
C26   H20   S    
C27   C31   S    
C28   O24   S    
H7    C21   S    
C2    C26   S    
N4    H34   S    
O15   C5    A    
O16   C6    A    
O1    C3    A    
C30   O26   S    
C5    C20   S    
V2    O20   S    
C14   C18   S    
O16   V4    S    
C10   C12   S    
N3    H32   S    
C16   C24   S    
O5    V1    S    
C3    C30   S    
O17   C7    A    
O6    V2    S    
O10   C6    A    
O18   C8    A    
N5    H36   S    
O2    V4    S    
C11   H3    S    
C12   H4    S    
O9    C5    A    
N2    H29   S    
C9    H1    S    
O14   V2    S    
O2    C4    A    
C10   N2    S    
C27   O23   S    
C1    C25   S    
O22   H22   S    
O4    V2    S    
C16   H10   S    
C25   H19   S    
C13   C21   S    
V3    O19   S    
N4    H33   S    
C14   C22   S    
C26   C28   D    
H5    C13   S    
N1    H27   S    
C9    C17   S    
C7    C17   S    
O18   V4    S    
H18   C32   S    
