data_mof_unit_22288.cif
_audit_creation_date              2012-10-26T19:52:50-0400
_audit_creation_method            fapswitch 2.2
_symmetry_space_group_name_H-M    P1
_symmetry_Int_Tables_number       1
_space_group_crystal_system       triclinic
_cell_length_a                    15.051632
_cell_length_b                    10.823958
_cell_length_c                    9.55812
_cell_angle_alpha                 90.076837
_cell_angle_beta                  89.761848
_cell_angle_gamma                 90.751456
_cell_volume                      1557.04335116

loop_
_atom_site_label
_atom_site_type_symbol
_atom_type_description
_atom_site_fract_x
_atom_site_fract_y
_atom_site_fract_z
_atom_type_partial_charge
C1    C     C_R   0.500270 0.262400 0.499860 0.544111
C2    C     C_R   0.183990 0.415434 0.596575 0.008139
C3    C     C_R   0.231787 0.492290 0.501747 -0.007685
C4    C     C_R   0.328781 0.496331 0.500363 0.542951
C5    C     C_R   0.187017 0.565878 0.405611 -0.148880
C6    C     C_R   0.486848 0.063461 0.623883 -0.002257
C7    C     C_R   0.494338 0.129109 0.498932 0.003968
C8    C     C_R   0.489733 0.063895 0.371815 -0.166870
C9    C     C_R   0.489480 0.935213 0.372140 -0.173721
C10   C     C_R   0.492392 0.870545 0.499560 -0.003302
C11   C     C_R   0.484207 0.936462 0.624478 0.027345
C12   C     C_R   0.908552 0.569272 0.400521 0.028643
C13   C     C_3   0.534965 0.930563 0.759143 -0.121979
C14   C     C_3   0.538482 0.071723 0.756703 -0.243248
C15   C     C_R   0.577563 0.491143 0.072974 0.164454
C16   C     C_R   0.499185 0.737564 0.500075 0.548428
C17   C     C_R   0.422596 0.499908 0.074543 -0.024278
C18   C     C_R   0.422596 0.499856 0.926328 -0.031396
C19   C     C_R   0.577568 0.491421 0.925658 0.156808
C20   C     C_3   0.654342 0.579722 0.919531 -0.274887
C21   C     C_3   0.654648 0.578915 0.077982 -0.280286
C22   C     C_R   0.671206 0.501679 0.499991 0.546790
C23   C     C_R   0.948972 0.389034 0.724485 -0.094097
C24   C     C_R   0.815797 0.567679 0.398178 -0.136399
C25   C     C_R   0.767844 0.503865 0.501676 -0.003181
C26   C     C_R   0.812217 0.444789 0.610572 -0.139783
C27   C     C_R   0.904645 0.445595 0.614369 -0.048882
C28   C     C_R   0.953317 0.506052 0.507932 0.044256
C29   C     C_3   0.483024 0.873523 0.884129 -0.245565
C30   C     C_3   0.383187 0.903117 0.889007 -0.284001
C31   C     C_3   0.338129 0.844738 0.016482 -0.447802
C32   C     C_3   0.227549 0.298773 0.652672 -0.232799
C33   C     C_3   0.249929 0.209921 0.532003 -0.315637
C34   C     C_R   0.041338 0.385067 0.725551 0.353667
C35   C     C_3   0.263605 0.078480 0.584632 -0.455387
C36   C     C_R   0.091373 0.433560 0.611920 0.027602
C37   C     C_R   0.046631 0.502656 0.508403 -0.003983
C38   C     C_R   0.094725 0.566938 0.403836 0.015602
C39   C     C_R   0.049832 0.632858 0.300189 -0.111460
C40   C     C_R   0.957236 0.632966 0.297690 -0.122052
Cu1   Cu    Cu3+1 0.500000 0.499980 0.640670 0.920526
Cu2   Cu    Cu3+1 0.500000 0.500020 0.359330 0.926873
F1    F     F_    0.080386 0.344765 0.844458 -0.666713
H1    H     H_    0.780983 0.618020 0.317955 0.103908
H2    H     H_    0.714694 0.534465 0.120946 0.130310
H3    H     H_    0.774697 0.396475 0.691238 0.113384
H4    H     H_    0.637525 0.669438 0.125510 0.139279
H5    H     H_    0.912022 0.349201 0.811345 0.136088
H6    H     H_    0.224386 0.620819 0.330244 0.115978
H7    H     H_    0.086389 0.682938 0.219941 0.113004
H8    H     H_    0.923717 0.682751 0.215444 0.108619
H9    H     H_    0.490578 0.111560 0.272242 0.139573
H10   H     H_    0.346221 0.743000 0.015195 0.152040
H11   H     H_    0.366883 0.883170 0.114214 0.150759
H12   H     H_    0.491360 0.887093 0.272851 0.130986
H13   H     H_    0.266041 0.865190 0.015066 0.146654
H14   H     H_    0.373472 0.004471 0.893908 0.157043
H15   H     H_    0.350009 0.866541 0.793607 0.174442
H16   H     H_    0.490160 0.771660 0.879481 0.175832
H17   H     H_    0.515011 0.905479 0.982618 0.130451
H18   H     H_    0.310674 0.078976 0.673365 0.156889
H19   H     H_    0.199388 0.037635 0.620501 0.157572
H20   H     H_    0.290490 0.020261 0.499008 0.157706
H21   H     H_    0.194937 0.207644 0.454597 0.173479
H22   H     H_    0.311094 0.242198 0.477379 0.175022
H23   H     H_    0.601734 0.889230 0.745031 0.123898
H24   H     H_    0.288054 0.321649 0.713734 0.163913
H25   H     H_    0.183589 0.246572 0.724267 0.224479
H26   H     H_    0.500807 0.117774 0.841778 0.139912
H27   H     H_    0.606666 0.109778 0.739774 0.125344
H28   H     H_    0.359625 0.501790 0.128803 0.130640
H29   H     H_    0.359680 0.501794 0.872722 0.134018
H30   H     H_    0.714575 0.537226 0.873592 0.132063
H31   H     H_    0.636650 0.670539 0.874065 0.134476
N1    N     N_R   0.500570 0.500930 0.147930 -0.232783
N2    N     N_R   0.500570 0.500890 0.852020 -0.240379
O1    O     O_R   0.500000 0.319640 0.618810 -0.498592
O2    O     O_R   0.500010 0.319680 0.381230 -0.503089
O3    O     O_R   0.370250 0.499950 0.618800 -0.513401
O4    O     O_R   0.370260 0.499990 0.381220 -0.516545
O5    O     O_R   0.499990 0.680320 0.618770 -0.501462
O6    O     O_R   0.500000 0.680360 0.381190 -0.507153
O7    O     O_R   0.629740 0.500010 0.618780 -0.507118
O8    O     O_R   0.629750 0.500050 0.381200 -0.500869

loop_
_geom_bond_atom_site_label_1
_geom_bond_atom_site_label_2
_ccdc_geom_bond_type
C15   N1    A    
Cu2   O4    S    
C1    O1    A    
Cu1   Cu2   S    
C19   C20   S    
Cu2   O6    S    
C33   H22   S    
C7    C8    A    
C15   C19   A    
Cu2   N1    S    
C29   C30   S    
C12   C28   A    
C13   C29   S    
C36   C37   A    
C4    O4    A    
Cu1   O1    S    
C38   C39   A    
Cu1   O7    S    
C30   H14   S    
C2    C32   S    
C29   H16   S    
C8    C9    A    
C22   C25   S    
C9    H12   S    
C23   C27   A    
C31   H13   S    
C9    C10   A    
C8    H9    S    
C32   H25   S    
C5    C38   A    
C1    O2    A    
C14   H27   S    
C5    H6    S    
C21   H2    S    
C13   H23   S    
C18   H29   S    
Cu2   O8    S    
C24   C25   A    
C4    O3    A    
C39   C40   A    
C25   C26   A    
C22   O8    A    
C12   C40   A    
C37   C38   A    
C6    C14   S    
C29   H17   S    
C23   C34   A    
Cu1   O5    S    
C16   O6    A    
C17   C18   A    
C26   C27   A    
C20   H31   S    
C35   H18   S    
C31   H10   S    
C32   H24   S    
C17   H28   S    
C24   H1    S    
C14   H26   S    
C3    C4    S    
C6    C11   A    
C2    C36   A    
C19   N2    A    
C18   N2    A    
C23   H5    S    
C1    C7    S    
C34   F1    S    
C3    C5    A    
Cu1   O3    S    
Cu2   O2    S    
C6    C7    A    
C40   H8    S    
C12   C24   A    
C22   O7    A    
C2    C3    A    
C10   C16   S    
C32   C33   S    
Cu1   N2    S    
C11   C13   S    
C30   C31   S    
C28   C37   A    
C33   H21   S    
C30   H15   S    
C16   O5    A    
C33   C35   S    
C20   H30   S    
C35   H19   S    
C34   C36   A    
C31   H11   S    
C10   C11   A    
C26   H3    S    
C15   C21   S    
C39   H7    S    
C20   C21   S    
C27   C28   A    
C17   N1    A    
C35   H20   S    
C13   C14   S    
C21   H4    S    
