data_mof_unit_32531.cif
_audit_creation_date              2012-12-10T17:15:55-0500
_audit_creation_method            fapswitch 2.2
_symmetry_space_group_name_H-M    P1
_symmetry_Int_Tables_number       1
_space_group_crystal_system       triclinic
_cell_length_a                    10.082773
_cell_length_b                    10.737759
_cell_length_c                    10.847826
_cell_angle_alpha                 89.880412
_cell_angle_beta                  95.208107
_cell_angle_gamma                 81.708749
_cell_volume                      1157.24405704

loop_
_atom_site_label
_atom_site_type_symbol
_atom_type_description
_atom_site_fract_x
_atom_site_fract_y
_atom_site_fract_z
_atom_type_partial_charge
C1    C     C_R   0.443720 0.505684 0.267413 0.951198
C2    C     C_2   0.486659 0.469466 0.934192 -0.146340
C3    C     C_2   0.072813 0.490330 0.489556 -0.126074
C4    C     C_R   0.503307 0.260428 0.513379 0.871850
C5    C     C_2   0.926987 0.510549 0.509611 -0.131978
C6    C     C_R   0.556165 0.488891 0.732612 0.943949
C7    C     C_R   0.500871 0.740662 0.494689 0.878000
C8    C     C_R   0.758777 0.086516 0.572687 -0.232278
C9    C     C_R   0.879457 0.012960 0.550493 -0.250744
C10   C     C_R   0.877309 0.900095 0.487958 0.524907
C11   C     C_R   0.754820 0.854871 0.461600 -0.270421
C12   C     C_R   0.633533 0.046622 0.534688 0.104786
C13   C     C_R   0.631980 0.922771 0.495677 0.041541
C14   C     C_3   0.036166 0.860321 0.349454 0.073051
C15   C     C_3   0.982329 0.778418 0.246366 -0.350284
C16   C     C_3   0.046848 0.794935 0.126577 -0.951877
C17   C     C_R   0.509165 0.127238 0.531133 -0.103246
C18   C     C_R   0.387625 0.079325 0.523485 -0.220420
C19   C     C_R   0.387490 0.952955 0.510037 -0.227202
C20   C     C_R   0.507355 0.873869 0.493998 -0.100420
C21   C     C_2   0.411421 0.499949 0.135779 -0.388071
C22   C     C_2   0.511939 0.465455 0.065841 -0.146348
C23   C     C_2   0.587972 0.473170 0.864265 -0.382752
H1    H     H_    0.291862 0.139603 0.525264 0.166489
H2    H     H_    0.292160 0.917901 0.510298 0.176202
H3    H     H_    0.382552 0.476709 0.894890 0.188929
H4    H     H_    0.615674 0.440747 0.105158 0.187241
H5    H     H_    0.691802 0.466179 0.904000 0.148654
H6    H     H_    0.147755 0.842123 0.355886 0.178755
H7    H     H_    0.006815 0.962365 0.325294 0.114979
H8    H     H_    0.004106 0.677776 0.275801 0.240362
H9    H     H_    0.871648 0.804698 0.228243 0.205124
H10   H     H_    0.026113 0.894880 0.094933 0.264971
H11   H     H_    0.004417 0.735872 0.053463 0.262970
H12   H     H_    0.307936 0.524801 0.096087 0.151392
H13   H     H_    0.157413 0.765159 0.140829 0.263642
H14   H     H_    0.890290 0.578917 0.576682 0.180944
H15   H     H_    0.109309 0.422871 0.421618 0.154850
H16   H     H_    0.880605 0.384214 0.385984 0.159575
H17   H     H_    0.119713 0.614601 0.615178 0.196118
H18   H     H_    0.764499 0.173782 0.621208 0.178982
H19   H     H_    0.974365 0.045206 0.578831 0.149754
H20   H     H_    0.759746 0.769432 0.409611 0.185590
N1    N     N_2   0.157290 0.551390 0.551110 -0.177510
N2    N     N_2   0.842740 0.448550 0.448960 -0.208941
O1    O     O_R   0.568950 0.489660 0.307530 -0.612321
O2    O     O_R   0.348880 0.522640 0.340350 -0.612854
O3    O     O_R   0.610060 0.300270 0.483590 -0.618946
O4    O     O_R   0.389990 0.333260 0.516410 -0.624432
O5    O     O_R   0.651120 0.477360 0.659650 -0.620813
O6    O     O_R   0.431050 0.510340 0.692470 -0.612797
O7    O     O_R   0.610010 0.666740 0.483590 -0.630181
O8    O     O_R   0.389940 0.699730 0.516410 -0.605771
O9    O     O_3   0.996361 0.826326 0.465190 -0.666687
Zn1   Zn    Zn3+2 0.646940 0.477980 0.478090 0.926059
Zn2   Zn    Zn3+2 0.353060 0.522020 0.521910 0.948845

loop_
_geom_bond_atom_site_label_1
_geom_bond_atom_site_label_2
_ccdc_geom_bond_type
O1    Zn1   S    
C12   C17   A    
O3    Zn1   S    
C1    C21   S    
C21   H12   S    
C5    H14   S    
C16   H10   S    
O4    Zn2   S    
C9    C10   A    
N1    Zn2   S    
C19   C20   A    
O7    Zn1   S    
H16   N2    S    
C4    O4    A    
C8    C12   A    
C16   H11   S    
C17   C18   A    
C8    C9    A    
C8    H18   S    
C15   H9    S    
C2    H3    S    
C2    C22   S    
C6    O5    A    
C11   H20   S    
C11   C13   A    
C9    H19   S    
C14   H7    S    
C18   H1    S    
C6    C23   S    
C14   O9    S    
C7    O7    A    
C7    C20   S    
C22   H4    S    
C19   H2    S    
C1    O1    A    
C23   H5    S    
C10   C11   A    
C7    O8    A    
C10   O9    S    
C15   C16   S    
H17   N1    S    
C18   C19   A    
C12   C13   A    
N2    Zn1   S    
O6    Zn2   S    
C4    O3    A    
O8    Zn2   S    
C2    C23   D    
C14   C15   S    
C1    O2    A    
C14   H6    S    
C13   C20   A    
C3    N1    D    
C21   C22   D    
C5    N2    D    
C15   H8    S    
C16   H13   S    
O5    Zn1   S    
C3    H15   S    
O2    Zn2   S    
C3    C5    S    
C6    O6    A    
C4    C17   S    
