data_mof_unit_48021.cif
_audit_creation_date              2013-03-05T15:52:19-0500
_audit_creation_method            fapswitch 2.2
_symmetry_space_group_name_H-M    P1
_symmetry_Int_Tables_number       1
_space_group_crystal_system       triclinic
_cell_length_a                    10.749929
_cell_length_b                    10.662508
_cell_length_c                    17.016368
_cell_angle_alpha                 80.217012
_cell_angle_beta                  99.648376
_cell_angle_gamma                 118.714782
_cell_volume                      1677.34241815

loop_
_atom_site_label
_atom_site_type_symbol
_atom_site_description
_atom_site_fract_x
_atom_site_fract_y
_atom_site_fract_z
_atom_type_partial_charge
O1    O     O_R   0.754020 0.497590 0.609930 -0.420078
O2    O     O_R   0.481420 0.271390 0.600630 -0.455298
C1    C     C_R   0.384066 0.283201 0.631802 0.503520
O3    O     O_R   0.263810 0.254550 0.589590 -0.475678
O4    O     O_R   0.300820 0.531200 0.560890 -0.480336
C2    C     C_R   0.413857 0.621399 0.601982 0.521053
O5    O     O_R   0.491480 0.744020 0.564270 -0.423895
O6    O     O_R   0.726290 0.693800 0.583010 -0.468620
C3    C     C_R   0.719567 0.586605 0.633316 0.512165
O7    O     O_R   0.747830 0.500190 0.434090 -0.435525
O8    O     O_R   0.475680 0.273800 0.437630 -0.530972
C4    C     C_R   0.350853 0.224722 0.401040 0.566121
O9    O     O_R   0.257620 0.257160 0.413750 -0.484914
O10   O     O_R   0.295080 0.533620 0.397890 -0.420673
C5    C     C_R   0.402801 0.624761 0.359120 0.538463
O11   O     O_R   0.485280 0.746620 0.388440 -0.435910
O12   O     O_R   0.720550 0.696220 0.420010 -0.406642
C6    C     C_R   0.704531 0.585713 0.389092 0.565437
Cr1   Cr    Cr6+3 0.608440 0.389080 0.519680 1.113879
Cr2   Cr    Cr6+3 0.288640 0.400090 0.490760 1.116177
Cr3   Cr    Cr6+3 0.602940 0.710800 0.489510 1.164146
O13   O     O_3   0.500010 0.499990 0.499980 -0.423157
C7    C     C_R   0.358414 0.654641 0.838878 -0.009835
C8    C     C_R   0.269582 0.530609 0.801226 0.027182
C9    C     C_R   0.297663 0.511542 0.729130 -0.129203
C10   C     C_R   0.510000 0.741720 0.729997 0.168437
C11   C     C_R   0.489605 0.747918 0.807727 -0.122612
C12   C     C_3   0.112575 0.438767 0.784726 0.404871
C13   C     C_3   0.143764 0.412485 0.706412 -0.161300
C14   C     C_R   0.405402 0.625580 0.686508 -0.026697
H1    H     H_    0.567596 0.841340 0.837299 0.189114
H2    H     H_    0.123914 0.300445 0.705391 0.169952
H3    H     H_    0.098292 0.455646 0.651637 0.198671
C15   C     C_1   0.769661 0.629228 0.712594 0.066414
C16   C     C_1   0.815876 0.668100 0.778518 0.085149
C17   C     C_1   0.364534 0.232867 0.714321 -0.017299
C18   C     C_1   0.332560 0.186500 0.781494 -0.001977
C19   C     C_1   0.370375 0.635456 0.274814 0.057799
C20   C     C_1   0.344805 0.653928 0.203963 0.081913
C21   C     C_R   0.796628 0.647142 0.147539 -0.007392
C22   C     C_R   0.769737 0.519280 0.196799 -0.005616
C23   C     C_R   0.736649 0.500287 0.273250 -0.102560
C24   C     C_R   0.724570 0.724376 0.249957 0.203867
C25   C     C_R   0.759197 0.742419 0.171559 -0.122412
C26   C     C_3   0.840207 0.423247 0.217486 0.404447
C27   C     C_3   0.801537 0.400687 0.303067 0.141685
C28   C     C_R   0.724727 0.606408 0.304527 0.042318
H4    H     H_    0.770436 0.838115 0.132581 0.161673
H5    H     H_    0.721931 0.289735 0.320716 0.118064
C29   C     C_R   0.319000 0.156935 0.162797 0.020366
C30   C     C_R   0.221737 0.186776 0.190575 -0.030217
C31   C     C_R   0.227876 0.194866 0.270400 -0.001699
C32   C     C_R   0.428724 0.146164 0.298668 -0.136957
C33   C     C_R   0.424219 0.138147 0.217419 -0.120944
C34   C     C_3   0.061223 0.102513 0.184550 -0.186381
C35   C     C_3   0.070723 0.111644 0.273195 0.124851
C36   C     C_R   0.329639 0.174743 0.324935 0.053235
H6    H     H_    0.505358 0.125923 0.341223 0.160526
H7    H     H_    0.494640 0.105508 0.198684 0.218762
H8    H     H_    0.020381 0.991869 0.168585 0.185586
H9    H     H_    0.009845 0.164200 0.146904 0.189465
H10   H     H_    0.023280 0.175535 0.288701 0.215282
O14   O     O_R   0.163320 0.092900 0.874450 -0.438953
O15   O     O_R   0.934650 0.822080 0.882840 -0.472959
C37   C     C_R   0.883721 0.698395 0.857506 0.563770
O16   O     O_R   0.915520 0.604140 0.893670 -0.459788
O17   O     O_R   0.191760 0.638110 0.923230 -0.461533
C38   C     C_R   0.316423 0.705354 0.899260 0.564140
O18   O     O_R   0.406180 0.826930 0.920660 -0.524201
O19   O     O_R   0.358620 0.062870 0.901950 -0.483990
C39   C     C_R   0.285886 0.118312 0.858414 0.566724
O20   O     O_R   0.163910 0.085460 0.050210 -0.508310
O21   O     O_R   0.935200 0.815170 0.045770 -0.524733
C40   C     C_R   0.881597 0.687699 0.081335 0.564749
O22   O     O_R   0.916120 0.596690 0.069430 -0.453373
O23   O     O_R   0.192310 0.631200 0.086170 -0.448536
C41   C     C_R   0.316823 0.696586 0.122352 0.562297
O24   O     O_R   0.406770 0.819480 0.096420 -0.499857
O25   O     O_R   0.359170 0.055960 0.064880 -0.477649
C42   C     C_R   0.284112 0.105438 0.085577 0.563678
Cr4   Cr    Cr6+3 0.052530 0.947560 0.964210 1.118207
Cr5   Cr    Cr6+3 0.059970 0.626800 0.992920 1.171751
Cr6   Cr    Cr6+3 0.373320 0.938440 0.995370 1.116854
O26   O     O_3   0.161940 0.837600 0.984160 -0.291581
N1    N     N_R   0.622963 0.867148 0.693322 0.091533
O27   O     O_R   0.753391 0.909272 0.725631 -0.328329
O28   O     O_R   0.592056 0.962281 0.648647 -0.252603
N2    N     N_R   0.765949 0.293032 0.175884 0.041805
O29   O     O_R   0.702664 0.295897 0.103841 -0.343461
O30   O     O_R   0.778083 0.178684 0.206555 -0.309042
Cl1   Cl    Cl    0.953816 0.464587 0.376922 -0.408659
N3    N     N_R   0.030454 0.973967 0.323147 0.102922
O31   O     O_R   0.986977 0.958295 0.392721 -0.235103
O32   O     O_R   0.061843 0.878501 0.306109 -0.280209
N4    N     N_R   0.027880 0.515195 0.769813 0.110516
O33   O     O_R   0.890012 0.438934 0.766049 -0.285688
O34   O     O_R   0.083130 0.649668 0.740418 -0.347622
Cl2   Cl    Cl    0.042690 0.285709 0.856679 -0.506420
Cl3   Cl    Cl    0.702840 0.864670 0.276296 -0.520160
N5    N     N_R   0.994109 0.496038 0.212099 0.136749
O35   O     O_R   0.058046 0.419548 0.210544 -0.357696
O36   O     O_R   0.070120 0.630696 0.225122 -0.301031

loop_
_geom_bond_atom_site_label_1
_geom_bond_atom_site_label_2
_geom_bond_distance
_ccdc_geom_bond_type
C34   C35   1.511276 S    
C22   C23   1.362448 A    
O11   Cr3   2.053129 S    
O21   C40   1.276876 A    
N2    O30   1.299874 A    
N4    O33   1.299885 A    
C6    C28   1.455082 S    
O4    Cr2   1.932411 S    
C26   C27   1.529440 S    
C27   H5    1.102124 S    
O8    Cr1   1.930456 S    
C10   C11   1.393830 A    
C29   C33   1.409072 A    
O14   Cr4   2.045678 S    
C12   N4    1.456934 S    
C20   C41   1.415174 S    
C12   C13   1.527664 S    
C24   Cl3   1.758355 S    
C13   H2    1.110775 S    
N1    O27   1.300092 A    
C19   C20   1.195028 T    
C16   C37   1.426681 S    
C5    O11   1.299354 A    
C13   H3    1.112284 S    
C15   C16   1.204295 T    
C23   C27   1.510591 S    
N3    O31   1.300460 A    
O24   Cr6   2.045650 S    
C38   O18   1.258878 A    
C7    C8    1.393106 A    
O19   C39   1.269167 A    
C7    C11   1.408090 A    
O20   Cr4   2.046787 S    
N2    O29   1.301659 A    
C34   H8    1.108862 S    
O21   Cr4   1.928678 S    
C29   C30   1.397982 A    
C33   H7    1.080537 S    
N1    O28   1.301681 A    
C9    C13   1.499117 S    
O1    Cr1   2.050507 S    
C40   O22   1.248379 A    
C11   H1    1.083883 S    
C30   C31   1.364248 A    
O10   Cr2   1.925255 S    
Cr1   O13   1.982011 S    
O1    C3    1.308399 A    
O23   C41   1.276583 A    
O23   Cr5   1.936093 S    
C32   C36   1.394616 A    
O6    C3    1.285782 A    
C27   Cl1   1.803608 S    
C41   O24   1.255290 A    
O12   Cr3   1.942623 S    
O17   C38   1.279424 A    
C29   C42   1.432086 S    
C7    C38   1.459679 S    
C24   C25   1.402027 A    
C5    C19   1.416873 S    
O18   Cr6   2.054850 S    
O16   Cr5   2.054513 S    
Cr6   O26   1.983082 S    
C21   C25   1.396429 A    
O7    Cr1   2.051681 S    
C32   H6    1.080452 S    
C26   N2    1.464817 S    
N3    O32   1.302752 A    
O12   C6    1.296198 A    
C8    C9    1.380359 A    
O19   Cr6   1.926855 S    
C4    C36   1.425429 S    
C21   C22   1.399654 A    
C2    C14   1.465784 S    
Cr2   O13   1.983378 S    
C10   C14   1.428284 A    
Cr5   O26   1.961939 S    
C18   C39   1.428201 S    
C3    C15   1.430410 S    
C35   H10   1.110781 S    
C1    O3    1.290077 A    
Cr4   O26   1.982214 S    
N5    O36   1.303219 A    
C12   Cl2   1.782714 S    
C9    C14   1.405199 A    
C17   C18   1.202289 T    
O9    Cr2   2.048133 S    
O2    Cr1   1.932148 S    
C8    C12   1.494289 S    
O14   C39   1.279148 A    
C26   N5    1.463136 S    
O6    Cr3   1.936050 S    
O8    C4    1.272028 A    
N4    O34   1.302444 A    
O22   Cr5   2.060368 S    
C32   C33   1.391002 A    
C2    O5    1.289787 A    
O15   C37   1.282608 A    
O2    C1    1.314499 A    
O20   C42   1.263198 A    
O5    Cr3   2.061879 S    
O25   Cr6   1.933769 S    
O4    C2    1.308132 A    
C1    C17   1.427671 S    
O7    C6    1.298310 A    
C10   N1    1.436151 S    
C34   H9    1.111452 S    
N5    O35   1.300124 A    
C21   C40   1.445784 S    
C30   C34   1.509122 S    
C23   C28   1.395314 A    
O15   Cr4   1.930108 S    
C31   C36   1.386178 A    
O25   C42   1.273106 A    
O3    Cr2   2.042836 S    
C25   H4    1.083537 S    
C35   N3    1.467486 S    
C4    O9    1.265736 A    
O17   Cr5   1.943800 S    
C37   O16   1.246999 A    
C22   C26   1.509886 S    
O10   C5    1.295164 A    
Cr3   O13   1.961787 S    
C24   C28   1.431437 A    
C31   C35   1.488560 S    
