data_mof_unit_34509.cif
_audit_creation_date              2012-12-10T19:05:16-0500
_audit_creation_method            fapswitch 2.2
_symmetry_space_group_name_H-M    P1
_symmetry_Int_Tables_number       1
_space_group_crystal_system       triclinic
_cell_length_a                    9.590593
_cell_length_b                    10.822966
_cell_length_c                    17.256235
_cell_angle_alpha                 92.011891
_cell_angle_beta                  85.571885
_cell_angle_gamma                 89.85207
_cell_volume                      1784.70139736

loop_
_atom_site_label
_atom_site_type_symbol
_atom_type_description
_atom_site_fract_x
_atom_site_fract_y
_atom_site_fract_z
_atom_type_partial_charge
C1    C     C_R   0.499788 0.737555 0.499652 0.793736
C2    C     C_R   0.341512 0.492499 0.778043 -0.146263
C3    C     C_R   0.424693 0.613334 0.157430 0.033286
C4    C     C_R   0.420164 0.584643 0.235386 -0.275730
C5    C     C_R   0.648277 0.483410 0.216395 -0.026506
C6    C     C_R   0.654034 0.509524 0.136255 -0.036491
C7    C     C_R   0.540146 0.572459 0.107135 0.037429
C8    C     C_2   0.446068 0.522644 0.983239 -0.169855
C9    C     C_2   0.538729 0.586003 0.022938 -0.149981
C10   C     C_R   0.529333 0.520204 0.265463 -0.134570
C11   C     C_R   0.379620 0.938504 0.521911 0.089896
C12   C     C_R   0.481327 0.499785 0.650088 0.796119
C13   C     C_R   0.498816 0.870773 0.494925 -0.070477
C14   C     C_R   0.614826 0.932934 0.460510 -0.164697
C15   C     C_R   0.614965 0.061909 0.460096 -0.201307
C16   C     C_R   0.499688 0.129154 0.494743 -0.091554
C17   C     C_R   0.380481 0.066262 0.522440 0.023350
C18   C     C_3   0.306428 0.076919 0.601974 -0.194726
C19   C     C_3   0.301846 0.936822 0.600298 -0.494368
C20   C     C_R   0.934695 0.433048 0.444877 0.310764
C21   C     C_R   0.919427 0.581600 0.546860 0.009334
C22   C     C_R   0.067761 0.575199 0.550134 0.034938
C23   C     C_R   0.500271 0.262571 0.499081 0.797350
C24   C     C_R   0.081527 0.435961 0.443272 0.262259
C25   C     C_3   0.092231 0.300836 0.423747 -0.478304
C26   C     C_3   0.933529 0.297086 0.428642 -0.503483
C27   C     C_R   0.518855 0.501934 0.349871 0.782634
C28   C     C_R   0.471427 0.501891 0.735231 -0.040649
C29   C     C_R   0.593582 0.514414 0.774488 -0.187028
C30   C     C_R   0.586009 0.520608 0.855049 -0.141760
C31   C     C_R   0.455811 0.515624 0.897937 0.166302
C32   C     C_R   0.333983 0.498894 0.859097 -0.129559
Cu1   Cu    Cu3+1 0.359330 0.500020 0.500000 0.976475
Cu2   Cu    Cu3+1 0.640670 0.499980 0.500000 0.955923
H1    H     H_    0.695513 0.519827 0.743110 0.151988
H2    H     H_    0.706149 0.882279 0.435746 0.174230
H3    H     H_    0.705860 0.108681 0.434503 0.150442
H4    H     H_    0.373483 0.117213 0.646213 0.181460
H5    H     H_    0.363885 0.895365 0.644757 0.209637
H6    H     H_    0.195216 0.898466 0.596437 0.227660
H7    H     H_    0.140837 0.281993 0.363901 0.208177
H8    H     H_    0.331529 0.616540 0.273814 0.162804
H9    H     H_    0.137988 0.247723 0.469134 0.215118
H10   H     H_    0.891106 0.271895 0.372214 0.206029
H11   H     H_    0.888597 0.245517 0.479194 0.213286
H12   H     H_    0.623079 0.637205 0.993525 0.151691
H13   H     H_    0.233056 0.492384 0.891488 0.149557
H14   H     H_    0.246010 0.480492 0.749083 0.181343
H15   H     H_    0.361727 0.473501 0.014504 0.164421
H16   H     H_    0.682619 0.527529 0.883366 0.124971
N1    N     N_R   0.852130 0.499070 0.499500 -0.235503
N2    N     N_R   0.148040 0.499110 0.499500 -0.225079
O1    O     O_R   0.381190 0.680360 0.500000 -0.578896
O2    O     O_R   0.618770 0.680320 0.499990 -0.591682
O3    O     O_R   0.367430 0.500040 0.613600 -0.563762
O4    O     O_R   0.605020 0.500000 0.613590 -0.618499
O5    O     O_R   0.381230 0.319680 0.500010 -0.573923
O6    O     O_R   0.618810 0.319640 0.500000 -0.584131
O7    O     O_R   0.394980 0.500000 0.386410 -0.578110
O8    O     O_R   0.632570 0.499960 0.386400 -0.572725
C33   C     C_2   0.771897 0.463882 0.080673 0.361365
H17   H     H_    0.753207 0.438791 0.020961 0.060634
O9    O     O_2   0.891524 0.457295 0.099623 -0.490038
C34   C     C_2   0.164594 0.136267 0.602844 0.432277
H18   H     H_    0.086228 0.098104 0.566737 0.078097
O10   O     O_2   0.136399 0.227939 0.644348 -0.544439
C35   C     C_2   0.841800 0.682463 0.592355 0.383775
H19   H     H_    0.743787 0.667656 0.624954 0.117470
O11   O     O_2   0.888603 0.787316 0.593298 -0.577281
C36   C     C_1   0.130959 0.640388 0.612661 0.368379
N3    N     N_1   0.178908 0.691550 0.664208 -0.313422
C37   C     C_2   0.757791 0.407357 0.247929 0.476594
H20   H     H_    0.730792 0.317757 0.270899 0.004213
O12   O     O_2   0.875719 0.447504 0.252858 -0.503640
C38   C     C_2   0.306908 0.687999 0.132135 0.391616
H21   H     H_    0.210429 0.696814 0.169246 0.087025
O13   O     O_2   0.316927 0.743864 0.071739 -0.515613

loop_
_geom_bond_atom_site_label_1
_geom_bond_atom_site_label_2
_ccdc_geom_bond_type
C10   C27   S    
C24   N2    A    
C23   O6    A    
Cu1   O3    S    
C1    O2    A    
C25   H9    S    
C26   H10   S    
Cu1   N2    S    
Cu2   O4    S    
C11   C19   S    
Cu2   N1    S    
C20   C26   S    
C12   C28   S    
C6    C33   S    
C2    C32   A    
C28   C29   A    
C5    C37   S    
C3    C7    A    
C27   O8    A    
C14   H2    S    
C5    C6    A    
C15   C16   A    
C7    C9    S    
C18   C19   S    
C33   O9    D    
C1    O1    A    
C15   H3    S    
C26   H11   S    
C20   C24   A    
C8    C9    D    
C36   N3    T    
C3    C38   S    
C30   H16   S    
C9    H12   S    
Cu1   O7    S    
C21   C22   A    
C21   C35   S    
Cu2   O8    S    
C17   C18   S    
Cu1   O1    S    
C35   H19   S    
C24   C25   S    
C37   O12   D    
C25   H7    S    
C16   C17   A    
C2    H14   S    
C25   C26   S    
C35   O11   D    
C34   O10   D    
C38   H21   S    
C29   C30   A    
C31   C32   A    
Cu1   Cu2   S    
C38   O13   D    
C12   O4    A    
C19   H5    S    
Cu2   O2    S    
C16   C23   S    
C32   H13   S    
C1    C13   S    
C4    C10   A    
C3    C4    A    
C21   N1    A    
C22   N2    A    
C23   O5    A    
C11   C17   A    
Cu1   O5    S    
C8    C31   S    
C37   H20   S    
C6    C7    A    
C20   N1    A    
C29   H1    S    
C34   H18   S    
C18   H4    S    
C5    C10   A    
C27   O7    A    
C11   C13   A    
C18   C34   S    
C30   C31   A    
C4    H8    S    
C33   H17   S    
C12   O3    A    
C19   H6    S    
Cu2   O6    S    
C14   C15   A    
C2    C28   A    
C13   C14   A    
C8    H15   S    
C22   C36   S    
