data_mof_unit_43136.cif
_audit_creation_date              2012-10-26T19:05:01-0400
_audit_creation_method            fapswitch 2.2
_symmetry_space_group_name_H-M    P1
_symmetry_Int_Tables_number       1
_space_group_crystal_system       triclinic
_cell_length_a                    15.904157
_cell_length_b                    10.829921
_cell_length_c                    9.688321
_cell_angle_alpha                 88.569487
_cell_angle_beta                  88.931429
_cell_angle_gamma                 91.823453
_cell_volume                      1667.04326915

loop_
_atom_site_label
_atom_site_type_symbol
_atom_type_description
_atom_site_fract_x
_atom_site_fract_y
_atom_site_fract_z
_atom_type_partial_charge
C1    C     C_R   0.501017 0.262658 0.502142 0.544597
C2    C     C_R   0.671037 0.053853 0.761111 -0.005964
C3    C     C_R   0.694241 0.939555 0.711666 -0.002828
C4    C     C_R   0.340683 0.501775 0.501445 0.548465
C5    C     C_R   0.642045 0.879101 0.618581 -0.111879
C6    C     C_R   0.569700 0.936292 0.569042 0.029764
C7    C     C_R   0.560606 0.063636 0.590100 0.010160
C8    C     C_R   0.503038 0.128297 0.507109 0.010052
C9    C     C_R   0.449844 0.063711 0.418511 -0.138937
C10   C     C_R   0.450342 0.935897 0.415598 -0.135916
C11   C     C_R   0.508654 0.871580 0.492910 0.032839
C12   C     C_3   0.946519 0.421650 0.606961 -0.104858
C13   C     C_R   0.641335 0.608372 0.130181 0.037187
C14   C     C_R   0.716141 0.613411 0.052530 -0.162838
C15   C     C_R   0.711536 0.622746 0.910739 -0.180216
C16   C     C_R   0.502203 0.737245 0.498076 0.541049
C17   C     C_R   0.633182 0.616124 0.851212 -0.079717
C18   C     C_R   0.565224 0.557738 0.922386 0.144618
C19   C     C_R   0.566820 0.556650 0.070626 0.136087
C20   C     C_R   0.436915 0.445228 0.077018 0.000778
C21   C     C_R   0.437166 0.444728 0.929771 -0.001864
C22   C     C_R   0.659624 0.502363 0.498511 0.537093
C23   C     C_3   0.918239 0.512834 0.489898 0.062720
C24   C     C_3   0.043642 0.430643 0.623259 -0.227002
C25   C     C_3   0.054444 0.458772 0.362549 -0.072082
C26   C     C_3   0.956402 0.476117 0.344818 0.269209
C27   C     C_1   0.749619 0.509066 0.494114 -0.012705
C28   C     C_3   0.083798 0.511151 0.503166 0.006809
C29   C     C_1   0.917537 0.292546 0.585722 0.244877
C30   C     C_1   0.702104 0.097529 0.890307 0.202495
C31   C     C_1   0.773616 0.888798 0.749440 0.200010
C32   C     C_1   0.640507 0.709827 0.222917 0.262277
C33   C     C_1   0.079967 0.328543 0.351619 0.204969
C34   C     C_3   0.954620 0.642811 0.528141 -0.277221
C35   C     C_3   0.936853 0.328126 0.167484 0.024518
C36   C     C_3   0.865885 0.346875 0.066432 -0.256111
C37   C     C_3   0.885496 0.283907 0.931206 -0.451490
C38   C     C_1   0.943489 0.579218 0.243001 0.166444
C39   C     C_3   0.052138 0.644555 0.517345 -0.253711
C40   C     C_1   0.825350 0.513422 0.490176 -0.014073
C41   C     C_1   0.176001 0.511162 0.507934 -0.060399
C42   C     C_1   0.251330 0.507346 0.505604 -0.020782
C43   C     C_R   0.609669 0.119859 0.693007 -0.125027
Cu1   Cu    Cu3+1 0.499990 0.499990 0.640660 0.930666
Cu2   Cu    Cu3+1 0.500010 0.500010 0.359340 0.970246
H1    H     H_    0.058476 0.473830 0.723415 0.113885
H2    H     H_    0.775005 0.640279 0.099239 0.165202
H3    H     H_    0.767036 0.646842 0.849100 0.156079
H4    H     H_    0.626827 0.657617 0.751752 0.170890
H5    H     H_    0.385710 0.398503 0.878401 0.120361
H6    H     H_    0.089731 0.510686 0.277916 0.074604
H7    H     H_    0.078706 0.687756 0.610730 0.145415
H8    H     H_    0.073835 0.702492 0.426275 0.143832
H9    H     H_    0.934879 0.664511 0.635448 0.152505
H10   H     H_    0.949504 0.227904 0.175836 0.188039
H11   H     H_    0.995067 0.375613 0.124225 0.109038
H12   H     H_    0.916999 0.450333 0.705461 0.085955
H13   H     H_    0.805888 0.308609 0.112436 0.223284
H14   H     H_    0.858631 0.446965 0.044774 0.168396
H15   H     H_    0.947294 0.318531 0.888546 0.130349
H16   H     H_    0.835564 0.303511 0.855936 0.166289
H17   H     H_    0.888515 0.182370 0.948131 0.192505
H18   H     H_    0.929765 0.717148 0.460560 0.157636
H19   H     H_    0.405543 0.112283 0.355032 0.130389
H20   H     H_    0.599889 0.212214 0.726891 0.161854
H21   H     H_    0.659105 0.789697 0.581484 0.111671
H22   H     H_    0.404874 0.886952 0.353425 0.129251
H23   H     H_    0.385242 0.399306 0.133854 0.121992
H24   H     H_    0.071548 0.337628 0.627733 0.141642
N1    N     N_R   0.500800 0.501210 0.147910 -0.246512
N2    N     N_R   0.500820 0.501290 0.852040 -0.242326
N3    N     N_1   0.894751 0.191488 0.569418 -0.245812
N4    N     N_1   0.724680 0.130067 0.996483 -0.304611
N5    N     N_1   0.838256 0.850795 0.778814 -0.314495
N6    N     N_1   0.644756 0.794786 0.292713 -0.302536
N7    N     N_1   0.100184 0.227209 0.343467 -0.302559
N8    N     N_1   0.934536 0.659637 0.164276 -0.334058
O1    O     O_R   0.499990 0.319640 0.618810 -0.514608
O2    O     O_R   0.500000 0.319660 0.381240 -0.487936
O3    O     O_R   0.379430 0.499990 0.618840 -0.497487
O4    O     O_R   0.379440 0.500020 0.381260 -0.505841
O5    O     O_R   0.500000 0.680340 0.618760 -0.517234
O6    O     O_R   0.500010 0.680360 0.381190 -0.491417
O7    O     O_R   0.620560 0.499980 0.618740 -0.527974
O8    O     O_R   0.620570 0.500010 0.381160 -0.492059
O9    O     O_3   0.912706 0.366820 0.301227 -0.555903

loop_
_geom_bond_atom_site_label_1
_geom_bond_atom_site_label_2
_ccdc_geom_bond_type
C12   C29   S    
C9    H19   S    
C41   C42   T    
C13   C32   S    
C35   C36   S    
C36   H14   S    
C32   N6    T    
C37   H17   S    
C7    C8    A    
C10   H22   S    
C25   C28   S    
C12   C23   S    
C21   N2    A    
C36   C37   S    
C4    O3    A    
Cu1   O5    S    
C5    C6    A    
C35   O9    S    
C22   O8    A    
C23   C40   S    
C1    C8    S    
C28   C41   S    
Cu1   N2    S    
C18   C19   A    
C23   C26   S    
C4    O4    A    
C8    C9    A    
C7    C43   A    
C9    C10   A    
C2    C43   A    
C43   H20   S    
C29   N3    T    
C39   H7    S    
C35   H11   S    
C13   C14   A    
C1    O1    A    
C20   N1    A    
Cu2   O6    S    
C15   H3    S    
C21   H5    S    
C24   H24   S    
C13   C19   A    
C35   H10   S    
C34   C39   S    
Cu1   O3    S    
C17   H4    S    
C6    C11   A    
C30   N4    T    
C26   C38   S    
C31   N5    T    
C28   C39   S    
C3    C5    A    
C25   C26   S    
C16   O6    A    
C22   O7    A    
Cu2   O8    S    
C25   H6    S    
C11   C16   S    
C33   N7    T    
C27   C40   T    
C26   O9    S    
C23   C34   S    
C16   O5    A    
C17   C18   A    
Cu2   O2    S    
C3    C31   S    
C6    C7    A    
C12   H12   S    
C34   H9    S    
C22   C27   S    
C1    O2    A    
Cu1   Cu2   S    
C18   N2    A    
C15   C17   A    
Cu2   N1    S    
C20   H23   S    
Cu2   O4    S    
C24   C28   S    
C5    H21   S    
Cu1   O7    S    
C37   H16   S    
C14   H2    S    
C38   N8    T    
C12   C24   S    
C36   H13   S    
C2    C30   S    
C24   H1    S    
Cu1   O1    S    
C2    C3    A    
C39   H8    S    
C4    C42   S    
C34   H18   S    
C37   H15   S    
C10   C11   A    
C20   C21   A    
C14   C15   A    
C19   N1    A    
C25   C33   S    
