data_mof_unit_25696.cif
_audit_creation_date              2012-12-11T17:39:39-0500
_audit_creation_method            fapswitch 2.2
_symmetry_space_group_name_H-M    P1
_symmetry_Int_Tables_number       1
_space_group_crystal_system       triclinic
_cell_length_a                    14.983836
_cell_length_b                    15.123922
_cell_length_c                    15.021365
_cell_angle_alpha                 109.201963
_cell_angle_beta                  109.840248
_cell_angle_gamma                 109.599892
_cell_volume                      2612.96860465

loop_
_atom_site_label
_atom_site_type_symbol
_atom_type_description
_atom_site_fract_x
_atom_site_fract_y
_atom_site_fract_z
_atom_type_partial_charge
C1    C     C_R   0.905967 0.976395 0.717328 -0.109979
C2    C     C_R   0.909386 0.696928 0.494426 -0.166074
C3    C     C_R   0.755950 0.780538 0.188294 -0.141864
C4    C     C_R   0.090054 0.313839 0.560194 -0.112438
C5    C     C_R   0.253332 0.938898 0.527975 -0.083348
C6    C     C_R   0.731422 0.679070 0.177464 -0.064771
C7    C     C_R   0.275885 0.952287 0.448448 0.113618
C8    C     C_R   0.001648 0.691842 0.544894 0.049408
C9    C     C_R   0.992579 0.060169 0.193094 0.103122
C10   C     C_R   0.516582 0.599637 0.373181 -0.110218
C11   C     C_R   0.473062 0.662520 0.348272 -0.124233
C12   C     C_R   0.996233 0.320794 0.544879 0.030197
C13   C     C_R   0.468814 0.738962 0.428467 0.123213
C14   C     C_R   0.504630 0.748682 0.532416 -0.198438
C15   C     C_R   0.551610 0.688325 0.557762 -0.156849
C16   C     C_R   0.296013 0.213111 0.805312 -0.112902
C17   C     C_R   0.557179 0.613560 0.478252 -0.074506
C18   C     C_R   0.354041 0.829202 0.414254 0.452572
C19   C     C_R   0.338671 0.913512 0.404098 -0.039469
C20   C     C_R   0.393809 0.966961 0.361053 0.126592
C21   C     C_R   0.475098 0.951498 0.349422 -0.217631
C22   C     C_R   0.511978 0.892428 0.389191 -0.003297
C23   C     C_R   0.354486 0.309718 0.811953 0.104023
C24   C     C_R   0.443794 0.819856 0.409280 -0.143511
C25   C     C_R   0.299590 0.014468 0.229442 0.355552
C26   C     C_R   0.282273 0.092723 0.206422 0.319428
C27   C     C_R   0.345945 0.202062 0.288569 -0.313888
C28   C     C_R   0.693978 0.989129 0.399113 -0.174448
C29   C     C_R   0.423023 0.234569 0.393833 0.572766
C30   C     C_R   0.439601 0.156828 0.416749 -0.491372
C31   C     C_R   0.378539 0.047774 0.334827 -0.027662
C32   C     C_R   0.703477 0.125970 0.213464 -0.182813
C33   C     C_R   0.801743 0.225082 0.284584 0.522595
C34   C     C_R   0.628410 0.925068 0.425240 0.115982
C35   C     C_R   0.805665 0.307915 0.368173 -0.254775
C36   C     C_R   0.707557 0.293231 0.369072 0.537413
C37   C     C_R   0.608469 0.197161 0.289127 -0.235719
C38   C     C_R   0.607054 0.112553 0.213832 -0.312566
C39   C     C_R   0.921101 0.501812 0.461448 -0.126434
C40   C     C_R   0.296224 0.304226 0.714650 -0.145308
C41   C     C_R   0.999026 0.600883 0.555458 0.035446
C42   C     C_R   0.068935 0.608857 0.652354 0.018820
C43   C     C_R   0.065121 0.513912 0.647225 -0.250164
C44   C     C_R   0.987480 0.414376 0.551603 0.046710
C45   C     C_R   0.753672 0.688342 0.278512 -0.109498
C46   C     C_R   0.909767 0.407871 0.459708 0.060518
C47   C     C_R   0.249577 0.739793 0.828243 -0.153997
C48   C     C_R   0.319101 0.838620 0.926331 -0.113444
C49   C     C_R   0.283698 0.912642 0.953986 -0.003237
C50   C     C_R   0.177007 0.885739 0.885872 -0.125766
C51   C     C_R   0.105349 0.784822 0.791189 -0.163283
C52   C     C_R   0.695018 0.902214 0.492322 -0.154678
C53   C     C_R   0.142294 0.712514 0.758495 0.128861
C54   C     C_2   0.531887 0.465959 0.887033 -0.020633
C55   C     C_2   0.463619 0.395620 0.901174 -0.176523
C56   C     C_R   0.240816 0.021797 0.429674 -0.138358
C57   C     C_2   0.623315 0.569560 0.981156 -0.212184
C58   C     C_2   0.683372 0.578088 0.076132 0.471753
C59   C     C_R   0.356357 0.373970 0.090298 -0.148301
C60   C     C_R   0.275231 0.285106 0.080220 -0.168587
C61   C     C_R   0.166690 0.264326 0.038020 0.115241
C62   C     C_R   0.140710 0.333458 0.004896 -0.141160
C63   C     C_R   0.222143 0.422435 0.015245 -0.084310
C64   C     C_R   0.907935 0.217829 0.481797 -0.079880
C65   C     C_R   0.329998 0.442832 0.058187 -0.096332
C66   C     C_R   0.075298 0.166191 0.116156 -0.133241
C67   C     C_R   0.092886 0.786593 0.582063 -0.090519
C68   C     C_R   0.983137 0.083246 0.102699 0.049913
C69   C     C_R   0.885864 0.017970 0.998085 0.118231
C70   C     C_R   0.890055 0.024680 0.910541 -0.180238
C71   C     C_R   0.988325 0.088196 0.920072 0.008648
C72   C     C_R   0.078213 0.169800 0.024546 0.064064
C73   C     C_R   0.727238 0.828055 0.904660 0.410010
C74   C     C_R   0.613620 0.758348 0.857661 0.467005
C75   C     C_R   0.551389 0.803667 0.884709 -0.372211
C76   C     C_R   0.088879 0.064875 0.812264 -0.132849
C77   C     C_R   0.597624 0.915460 0.943858 -0.164086
C78   C     C_R   0.906218 0.002347 0.201429 -0.133307
C79   C     C_R   0.707700 0.983882 0.983169 -0.221608
C80   C     C_R   0.774898 0.941476 0.969834 -0.129676
C81   C     C_R   0.995988 0.052408 0.820745 0.076252
C82   C     C_3   0.734946 0.368990 0.541385 0.303222
C83   C     C_3   0.772229 0.477098 0.635312 -0.881885
C84   C     C_3   0.841737 0.762528 0.948547 0.286083
C85   C     C_3   0.924926 0.739321 0.925209 -0.877473
C86   C     C_3   0.454312 0.593247 0.714069 0.190460
C87   C     C_3   0.419461 0.489693 0.615490 -0.838484
C88   C     C_R   0.087161 0.094834 0.288444 -0.151109
H1    H     H_    0.820597 0.947488 0.691047 0.096441
H2    H     H_    0.522417 0.542860 0.312337 0.120181
H3    H     H_    0.447112 0.655182 0.268311 0.119376
H4    H     H_    0.173406 0.379980 0.603345 0.092035
H5    H     H_    0.504254 0.808829 0.595903 0.135766
H6    H     H_    0.586416 0.701578 0.639883 0.179913
H7    H     H_    0.518389 0.998826 0.322040 0.139313
H8    H     H_    0.333123 0.262537 0.272243 0.172261
H9    H     H_    0.497403 0.179962 0.498510 0.160824
H10   H     H_    0.531373 0.035963 0.156440 0.161534
H11   H     H_    0.325805 0.185852 0.861170 0.099396
H12   H     H_    0.232081 0.042260 0.367129 0.113406
H13   H     H_    0.702283 0.057833 0.159523 0.149193
H14   H     H_    0.533018 0.186873 0.287252 0.159899
H15   H     H_    0.865286 0.496921 0.388804 0.129318
H16   H     H_    0.120077 0.516228 0.718163 0.130769
H17   H     H_    0.279799 0.685145 0.806361 0.091730
H18   H     H_    0.400755 0.858155 0.980299 0.102635
H19   H     H_    0.338561 0.990440 0.028331 0.123789
H20   H     H_    0.149220 0.942811 0.905577 0.146639
H21   H     H_    0.667191 0.008938 0.335875 0.113127
H22   H     H_    0.021795 0.764574 0.742198 0.132426
H23   H     H_    0.177510 0.813408 0.635766 0.101908
H24   H     H_    0.509584 0.457436 0.807241 0.135619
H25   H     H_    0.484456 0.405462 0.981656 0.171505
H26   H     H_    0.625304 0.639969 0.976228 0.100351
H27   H     H_    0.392988 0.511528 0.065930 0.102342
H28   H     H_    0.439583 0.388794 0.122144 0.118810
H29   H     H_    0.296877 0.230838 0.101090 0.176479
H30   H     H_    0.057345 0.318486 0.971254 0.114362
H31   H     H_    0.201567 0.475450 0.989799 0.113120
H32   H     H_    0.323388 0.360715 0.688124 0.097788
H33   H     H_    0.145653 0.225823 0.196862 0.125356
H34   H     H_    0.822128 0.980535 0.156740 0.120560
H35   H     H_    0.815226 0.971269 0.832414 0.132992
H36   H     H_    0.466004 0.753827 0.856868 0.133374
H37   H     H_    0.547536 0.949708 0.957551 0.149369
H38   H     H_    0.741031 0.070781 0.023861 0.178483
H39   H     H_    0.672290 0.846680 0.520495 0.133416
H40   H     H_    0.823323 0.193305 0.457896 0.081016
H41   H     H_    0.173121 0.114167 0.877439 0.118659
H42   H     H_    0.741996 0.624517 0.298379 0.095542
H43   H     H_    0.289109 0.694469 0.416463 0.327724
H44   H     H_    0.161979 0.882686 0.124482 0.305664
H45   H     H_    0.169428 0.155500 0.317728 0.110767
H46   H     H_    0.150260 0.988765 0.064667 0.320900
H47   H     H_    0.525255 0.350753 0.543555 0.313075
H48   H     H_    0.953948 0.309798 0.325051 0.321677
H49   H     H_    0.802288 0.350300 0.564772 0.071956
H50   H     H_    0.662453 0.304821 0.530875 0.092046
H51   H     H_    0.708162 0.500215 0.615531 0.276799
H52   H     H_    0.788242 0.471043 0.710265 0.208954
H53   H     H_    0.848893 0.541058 0.650877 0.251163
H54   H     H_    0.742463 0.511389 0.152105 0.311961
H55   H     H_    0.781727 0.689180 0.941214 0.119812
H56   H     H_    0.825998 0.641884 0.469253 0.123417
H57   H     H_    0.886949 0.830839 0.033868 0.070883
H58   H     H_    0.986499 0.811874 0.933053 0.246340
H59   H     H_    0.967406 0.717953 0.983954 0.216555
H60   H     H_    0.882948 0.670876 0.841053 0.266859
H61   H     H_    0.428908 0.642677 0.681784 0.111006
H62   H     H_    0.410235 0.571021 0.756636 0.096114
H63   H     H_    0.449888 0.440033 0.641238 0.249926
H64   H     H_    0.328547 0.441578 0.564297 0.200942
H65   H     H_    0.452781 0.508841 0.564827 0.283007
H66   H     H_    0.749842 0.802408 0.125884 0.076815
H67   H     H_    0.271598 0.892395 0.564941 0.149514
H68   H     H_    0.593960 0.567232 0.498416 0.159420
N1    N     N_R   0.941940 0.944580 0.650780 -0.044497
N2    N     N_R   0.204460 0.150250 0.707090 -0.044989
N3    N     N_R   0.794270 0.003240 0.446420 -0.044298
N4    N     N_R   0.204920 0.207570 0.650770 -0.040824
N5    N     N_R   0.793810 0.945920 0.502740 -0.045573
N6    N     N_R   0.943620 0.152590 0.446420 -0.026334
N7    N     N_R   0.055110 0.000900 0.707100 -0.048548
N8    N     N_R   0.795080 0.792430 0.349230 -0.034277
N9    N     N_R   0.206190 0.054080 0.497260 -0.047010
N10   N     N_R   0.056380 0.847410 0.553580 -0.043275
N11   N     N_R   0.944890 0.999100 0.292900 -0.042796
N12   N     N_R   0.058060 0.055420 0.349220 -0.044442
N13   N     N_R   0.943200 0.791100 0.497260 -0.038333
N14   N     N_R   0.795540 0.849750 0.292910 -0.032342
N15   N     N_R   0.205730 0.996760 0.553580 -0.058713
N16   N     N_R   0.056800 0.208900 0.502740 -0.035660
Ni1   Ni    Ni4+2 0.869690 0.869690 0.500000 0.218029
Ni2   Ni    Ni4+2 0.130310 0.130310 0.500000 0.220638
Ni3   Ni    Ni4+2 0.129250 0.998840 0.629170 0.211507
Ni4   Ni    Ni4+2 0.870750 0.001160 0.370830 0.227009
O1    O     O_3   0.281335 0.759237 0.429490 -0.781005
O2    O     O_3   0.240688 0.906047 0.152083 -0.748017
O3    O     O_3   0.205566 0.066421 0.105588 -0.793395
O4    O     O_3   0.480216 0.342400 0.472227 -0.762250
O5    O     O_3   0.892340 0.234292 0.274701 -0.769190
O6    O     O_3   0.707467 0.375431 0.444832 -0.620962
O7    O     O_3   0.687191 0.488349 0.077625 -0.750792
O8    O     O_3   0.787508 0.787490 0.871827 -0.611404
O9    O     O_3   0.569216 0.648333 0.786394 -0.628761

loop_
_geom_bond_atom_site_label_1
_geom_bond_atom_site_label_2
_ccdc_geom_bond_type
C25   C31   A    
C66   C68   A    
C63   C65   A    
N9    N15   A    
C6    C45   A    
C27   C29   A    
C2    H56   S    
C41   C42   A    
C6    C58   S    
N8    N14   A    
C35   C36   A    
C32   H13   S    
C85   H60   S    
C38   H10   S    
C3    C6    A    
N7    Ni3   S    
C15   H6    S    
C83   H51   S    
H43   O1    S    
C49   H19   S    
N14   Ni4   S    
C84   H57   S    
N12   Ni2   S    
C30   H9    S    
C26   C27   A    
C37   C38   A    
C60   C61   A    
C18   C24   A    
C36   C37   A    
C45   N8    A    
C88   H45   S    
C82   H49   S    
C86   H62   S    
C9    C88   A    
C37   H14   S    
C12   C64   A    
N6    Ni4   S    
C10   C17   A    
C1    C81   A    
C23   C40   A    
N5    Ni1   S    
C18   C19   A    
C73   C74   A    
C43   H16   S    
C70   H35   S    
N2    N4    A    
C66   C72   A    
C19   C20   A    
C18   O1    S    
N16   Ni2   S    
C68   C69   A    
C47   H17   S    
C29   O4    S    
C56   N9    A    
N3    N5    A    
C70   C71   A    
C32   C38   A    
H46   O3    S    
C4    C12   A    
C29   C30   A    
N1    N7    A    
C14   H5    S    
C52   N5    A    
C47   C53   A    
C74   O9    S    
H54   O7    S    
C28   C34   A    
C59   C60   A    
C87   H63   S    
C13   C14   A    
C50   H20   S    
C65   H27   S    
C27   H8    S    
C61   C62   A    
C7    C56   A    
C83   H52   S    
C52   H39   S    
C44   C46   A    
C77   C79   A    
C5    N15   A    
C22   C34   S    
C48   H18   S    
C74   C75   A    
C16   N2    A    
C75   H36   S    
C84   O8    S    
C85   H58   S    
C64   N6    A    
C86   H61   S    
N11   N12   A    
C5    C7    A    
C73   O8    S    
C25   O2    S    
C59   H28   S    
C21   H7    S    
C84   H55   S    
C88   N12   A    
N9    Ni2   S    
C5    H67   S    
N15   Ni3   S    
C28   N3    A    
C13   C24   S    
C58   O7    S    
C51   C53   A    
H48   O5    S    
C43   C44   A    
N10   Ni3   S    
C62   C63   A    
C63   H31   S    
C76   H41   S    
C47   C48   A    
C64   H40   S    
C50   C51   A    
C78   N11   A    
C66   H33   S    
C54   H24   S    
C60   H29   S    
C3    N14   A    
C26   O3    S    
C84   C85   S    
C23   C55   S    
C75   C77   A    
C10   H2    S    
N10   N13   A    
C39   C46   A    
C17   H68   S    
C61   C72   S    
C67   H23   S    
C48   C49   A    
C40   H32   S    
C79   H38   S    
C82   C83   S    
C16   C23   A    
C7    C19   S    
N3    Ni4   S    
C33   O5    S    
C22   C24   A    
C36   O6    S    
C42   C43   A    
C56   H12   S    
C77   H37   S    
C67   N10   A    
C83   H53   S    
C15   C17   A    
C54   C55   D    
C1    H1    S    
C4    N16   A    
C8    C41   S    
C86   C87   S    
N4    Ni2   S    
C40   N4    A    
C2    C8    A    
C85   H59   S    
C69   C80   S    
C76   C81   A    
H47   O4    S    
C16   H11   S    
C39   H15   S    
C57   H26   S    
C28   H21   S    
C51   H22   S    
C55   H25   S    
C82   O6    S    
C34   C52   A    
C87   H64   S    
C32   C33   A    
C1    N1    A    
C25   C26   A    
C9    C68   S    
C8    C67   A    
C71   C72   A    
C42   C53   S    
C87   H65   S    
C11   C13   A    
C57   C58   D    
C30   C31   A    
C33   C35   A    
C73   C80   A    
C9    C78   A    
C3    H66   S    
C69   C70   A    
C78   H34   S    
N8    Ni1   S    
C62   H30   S    
C10   C11   A    
C2    N13   A    
C79   C80   A    
C11   H3    S    
N2    Ni3   S    
C45   H42   S    
N6    N16   A    
C20   C21   A    
C39   C41   A    
C86   O9    S    
C82   H50   S    
C49   C50   A    
H44   O2    S    
N13   Ni1   S    
C14   C15   A    
C12   C44   S    
C76   N7    A    
C4    H4    S    
C21   C22   A    
C35   C46   S    
C54   C57   S    
C59   C65   A    
N1    Ni1   S    
N11   Ni4   S    
C71   C81   S    
C20   C31   S    
