data_mof_unit_66154.cif
_audit_creation_date              2012-12-10T18:04:43-0500
_audit_creation_method            fapswitch 2.2
_symmetry_space_group_name_H-M    P1
_symmetry_Int_Tables_number       1
_space_group_crystal_system       triclinic
_cell_length_a                    21.709897
_cell_length_b                    21.710736
_cell_length_c                    55.737247
_cell_angle_alpha                 90.017473
_cell_angle_beta                  90.019055
_cell_angle_gamma                 90.546314
_cell_volume                      26269.8768209

loop_
_atom_site_label
_atom_site_type_symbol
_atom_type_description
_atom_site_fract_x
_atom_site_fract_y
_atom_site_fract_z
_atom_type_partial_charge
C1    C     C_R   0.992228 0.494164 0.123663 0.221330
C2    C     C_R   0.500080 0.999997 0.123941 0.274436
C3    C     C_R   0.999666 0.499863 0.876397 0.256788
C4    C     C_R   0.507715 0.014789 0.876610 0.232075
C5    C     C_R   0.508635 0.005771 0.623668 0.233777
C6    C     C_R   0.999930 0.499593 0.623609 0.257947
C7    C     C_R   0.500242 0.999868 0.376062 0.274498
C8    C     C_R   0.994158 0.486760 0.376630 0.232365
C9    C     C_R   0.984823 0.481181 0.224886 0.073436
C10   C     C_R   0.500240 0.999842 0.224684 0.072099
C11   C     C_R   0.999515 0.499612 0.775375 0.072572
C12   C     C_R   0.519426 0.024197 0.775389 0.073729
C13   C     C_R   0.519403 0.020405 0.724895 0.075104
C14   C     C_R   0.999568 0.499567 0.724618 0.072419
C15   C     C_R   0.500292 0.999789 0.275319 0.072091
C16   C     C_R   0.985073 0.478104 0.275395 0.073521
C17   C     C_R   0.913950 0.566943 0.225551 -0.272009
C18   C     C_R   0.429998 0.912092 0.224312 -0.271531
C19   C     C_R   0.055036 0.394966 0.223682 -0.272613
C20   C     C_R   0.570492 0.087583 0.224358 -0.271500
C21   C     C_R   0.059561 0.405827 0.775794 -0.269970
C22   C     C_R   0.434204 0.095723 0.774812 -0.252792
C23   C     C_R   0.939439 0.593378 0.775757 -0.269972
C24   C     C_R   0.605608 0.953925 0.776490 -0.272928
C25   C     C_R   0.459600 0.114133 0.723467 -0.272446
C26   C     C_R   0.039432 0.395450 0.724227 -0.270241
C27   C     C_R   0.580169 0.927191 0.725772 -0.271769
C28   C     C_R   0.959674 0.603672 0.724203 -0.270038
C29   C     C_R   0.412691 0.929359 0.275649 -0.271564
C30   C     C_R   0.891950 0.538954 0.276343 -0.272863
C31   C     C_R   0.587908 0.070199 0.275685 -0.271474
C32   C     C_R   0.077525 0.416148 0.274981 -0.271717
C33   C     C_R   0.919736 0.574040 0.200751 0.145131
C34   C     C_R   0.431231 0.910234 0.199367 0.143041
C35   C     C_R   0.051403 0.393228 0.198671 0.145122
C36   C     C_R   0.569174 0.089523 0.199415 0.143124
C37   C     C_R   0.061412 0.406286 0.800766 0.143762
C38   C     C_R   0.428079 0.091172 0.799767 0.154208
C39   C     C_R   0.937609 0.593009 0.800729 0.144243
C40   C     C_R   0.608822 0.959167 0.801441 0.144084
C41   C     C_R   0.463556 0.115092 0.698444 0.145819
C42   C     C_R   0.038133 0.394215 0.699253 0.142907
C43   C     C_R   0.573119 0.920109 0.701004 0.145974
C44   C     C_R   0.961099 0.604895 0.699231 0.143104
C45   C     C_R   0.410797 0.930625 0.300593 0.142953
C46   C     C_R   0.889286 0.533879 0.301298 0.145063
C47   C     C_R   0.589817 0.068923 0.300629 0.142879
C48   C     C_R   0.082703 0.421311 0.299879 0.145919
C49   C     C_R   0.955549 0.532071 0.187427 -0.017037
C50   C     C_R   0.465419 0.954943 0.186527 -0.023149
C51   C     C_R   0.017740 0.438730 0.186281 -0.017568
C52   C     C_R   0.534930 0.044866 0.186551 -0.023143
C53   C     C_R   0.030394 0.452631 0.813628 -0.023768
C54   C     C_R   0.470213 0.055067 0.812976 -0.031732
C55   C     C_R   0.968674 0.546734 0.813610 -0.023786
C56   C     C_R   0.563746 0.993225 0.813901 -0.016496
C57   C     C_R   0.491604 0.065688 0.686174 -0.016955
C58   C     C_R   0.019373 0.446781 0.686380 -0.023860
C59   C     C_R   0.542086 0.965563 0.687583 -0.016065
C60   C     C_R   0.979963 0.552338 0.686368 -0.023906
C61   C     C_R   0.455407 0.964942 0.313454 -0.023217
C62   C     C_R   0.937542 0.504691 0.313845 -0.018157
C63   C     C_R   0.545194 0.034630 0.313473 -0.023095
C64   C     C_R   0.036803 0.452307 0.313076 -0.016062
C65   C     C_R   0.985930 0.483914 0.199510 -0.134931
C66   C     C_R   0.500197 0.999883 0.199242 -0.133792
C67   C     C_R   0.999525 0.499657 0.800879 -0.132293
C68   C     C_R   0.517932 0.024373 0.800771 -0.128431
C69   C     C_R   0.517833 0.017299 0.699529 -0.135060
C70   C     C_R   0.999632 0.499561 0.699114 -0.132153
C71   C     C_R   0.500299 0.999784 0.300760 -0.133803
C72   C     C_R   0.986370 0.478189 0.300792 -0.134947
C73   C     C_R   0.963085 0.537121 0.162400 0.526405
C74   C     C_R   0.466682 0.955979 0.161311 0.527940
C75   C     C_R   0.014177 0.440437 0.161047 0.529902
C76   C     C_R   0.533572 0.043919 0.161335 0.527829
C77   C     C_R   0.029698 0.454072 0.838898 0.529463
C78   C     C_R   0.465193 0.046726 0.837997 0.520108
C79   C     C_R   0.969450 0.545424 0.838880 0.529420
C80   C     C_R   0.562705 0.997311 0.839121 0.530075
C81   C     C_R   0.494920 0.063065 0.660939 0.529147
C82   C     C_R   0.019188 0.448344 0.661111 0.528077
C83   C     C_R   0.533222 0.960611 0.662606 0.527769
C84   C     C_R   0.980338 0.550786 0.661100 0.528249
C85   C     C_R   0.456383 0.966275 0.338670 0.527866
C86   C     C_R   0.938778 0.500897 0.339070 0.529767
C87   C     C_R   0.544193 0.033337 0.338688 0.527745
C88   C     C_R   0.040234 0.459833 0.338155 0.528057
C89   C     C_R   0.046678 0.480269 0.111325 -0.143227
C90   C     C_R   0.553288 0.984171 0.111548 -0.151553
C91   C     C_R   0.940104 0.511511 0.110482 -0.085962
C92   C     C_R   0.446844 0.015821 0.111555 -0.152322
C93   C     C_R   0.034572 0.543757 0.888812 -0.123808
C94   C     C_R   0.523629 0.959508 0.888073 -0.147564
C95   C     C_R   0.964830 0.456042 0.888860 -0.123624
C96   C     C_R   0.486984 0.064261 0.890649 -0.097557
C97   C     C_R   0.556808 0.979792 0.610326 -0.113064
C98   C     C_R   0.044075 0.534177 0.611220 -0.124757
C99   C     C_R   0.456579 0.027526 0.611435 -0.142847
C100  C     C_R   0.955879 0.465053 0.611132 -0.124923
C101  C     C_R   0.484271 0.053073 0.388437 -0.151898
C102  C     C_R   0.016950 0.437924 0.390473 -0.096697
C103  C     C_R   0.516130 0.946697 0.388465 -0.152481
C104  C     C_R   0.975065 0.540744 0.388248 -0.147531
C105  C     C_R   0.048347 0.480455 0.086272 0.046651
C106  C     C_R   0.553969 0.984008 0.086543 0.064665
C107  C     C_R   0.942212 0.517058 0.085533 0.046593
C108  C     C_R   0.446109 0.015984 0.086550 0.064146
C109  C     C_R   0.035272 0.544225 0.913908 0.063544
C110  C     C_R   0.522745 0.954793 0.913068 0.044276
C111  C     C_R   0.964308 0.455690 0.913955 0.063108
C112  C     C_R   0.479903 0.058039 0.915531 0.036772
C113  C     C_R   0.552430 0.973607 0.585360 0.040199
C114  C     C_R   0.044546 0.534890 0.586125 0.063738
C115  C     C_R   0.454312 0.027338 0.586372 0.041368
C116  C     C_R   0.955531 0.464519 0.586037 0.060924
C117  C     C_R   0.484025 0.053812 0.413442 0.064461
C118  C     C_R   0.022858 0.443549 0.415408 0.036628
C119  C     C_R   0.516214 0.946022 0.413470 0.063881
C120  C     C_R   0.975370 0.544820 0.413255 0.046095
C121  C     C_R   0.996532 0.499847 0.073219 -0.034217
C122  C     C_R   0.500029 0.000004 0.073665 -0.018861
C123  C     C_R   0.999858 0.499967 0.926599 -0.025340
C124  C     C_R   0.500109 0.003817 0.926829 -0.021806
C125  C     C_R   0.502123 0.999970 0.573263 -0.011031
C126  C     C_R   0.000029 0.499798 0.573409 -0.025789
C127  C     C_R   0.500092 0.999941 0.426337 -0.018282
C128  C     C_R   0.999958 0.496469 0.426861 -0.021344
C129  C     C_R   0.499325 0.379972 0.999987 0.991414
C130  C     C_R   0.620037 0.500214 0.000011 0.990267
C131  C     C_R   0.500111 0.620079 0.000003 0.991269
C132  C     C_R   0.379950 0.499809 0.999987 0.989712
C133  C     C_R   0.999889 0.879922 0.500008 0.988950
C134  C     C_R   0.120092 0.000057 0.500001 0.989112
C135  C     C_R   0.000610 0.120027 0.499994 0.992514
C136  C     C_R   0.879965 0.999806 0.500010 0.992505
C137  C     C_R   0.281440 0.461987 0.983526 -0.097861
C138  C     C_R   0.539085 0.282761 0.984001 -0.086148
C139  C     C_R   0.718487 0.538445 0.983751 -0.100722
C140  C     C_R   0.461004 0.717570 0.983696 -0.094060
C141  C     C_R   0.282575 0.540045 0.015819 -0.096290
C142  C     C_R   0.537046 0.718671 0.016726 -0.098442
C143  C     C_R   0.717391 0.459792 0.015803 -0.093063
C144  C     C_R   0.461618 0.281429 0.016474 -0.104756
C145  C     C_R   0.781430 0.961929 0.483694 -0.100895
C146  C     C_R   0.039147 0.782367 0.483845 -0.097343
C147  C     C_R   0.218675 0.036828 0.483221 -0.098128
C148  C     C_R   0.960641 0.217323 0.484164 -0.089002
C149  C     C_R   0.782705 0.040304 0.515868 -0.090985
C150  C     C_R   0.038960 0.218494 0.516350 -0.104835
C151  C     C_R   0.217680 0.961375 0.516438 -0.095401
C152  C     C_R   0.962514 0.781404 0.516644 -0.096984
C153  C     C_R   0.217161 0.462994 0.983298 -0.107051
C154  C     C_R   0.541502 0.218677 0.984718 -0.098696
C155  C     C_R   0.782763 0.537433 0.983516 -0.102415
C156  C     C_R   0.460470 0.781871 0.983788 -0.102885
C157  C     C_R   0.218303 0.541030 0.015570 -0.102557
C158  C     C_R   0.535694 0.782911 0.017018 -0.095291
C159  C     C_R   0.781617 0.457966 0.015246 -0.109579
C160  C     C_R   0.463536 0.217161 0.016914 -0.085863
C161  C     C_R   0.717183 0.963179 0.483450 -0.090358
C162  C     C_R   0.039423 0.718070 0.483880 -0.101504
C163  C     C_R   0.282911 0.035412 0.482903 -0.095430
C164  C     C_R   0.958493 0.281407 0.484897 -0.096947
C165  C     C_R   0.718473 0.042182 0.515340 -0.112548
C166  C     C_R   0.037347 0.282802 0.516797 -0.097607
C167  C     C_R   0.281998 0.961274 0.516476 -0.103381
C168  C     C_R   0.963610 0.717131 0.516915 -0.107173
C169  C     C_R   0.186216 0.501451 0.999669 -0.189153
C170  C     C_R   0.502287 0.186342 0.000638 -0.171991
C171  C     C_R   0.813749 0.498312 0.999640 -0.188653
C172  C     C_R   0.498621 0.813849 0.000201 -0.184226
C173  C     C_R   0.686266 0.001881 0.499729 -0.187056
C174  C     C_R   0.001159 0.686143 0.500252 -0.187051
C175  C     C_R   0.313886 0.998778 0.499850 -0.182117
C176  C     C_R   0.997995 0.313676 0.500735 -0.177976
C177  C     C_R   0.313604 0.500297 0.999893 -0.185903
C178  C     C_R   0.499387 0.313664 0.999959 -0.182283
C179  C     C_R   0.686355 0.499843 0.999994 -0.187873
C180  C     C_R   0.499650 0.686475 0.000047 -0.187577
C181  C     C_R   0.813656 0.000286 0.500006 -0.188691
C182  C     C_R   0.000291 0.813522 0.500082 -0.186004
C183  C     C_R   0.186515 0.999640 0.499967 -0.186488
C184  C     C_R   0.000595 0.186336 0.499997 -0.180952
C185  C     C_R   0.999289 0.500013 0.047009 0.947881
C186  C     C_R   0.500009 0.000008 0.047172 0.990170
C187  C     C_R   0.999970 0.499992 0.952930 0.955459
C188  C     C_R   0.499956 0.999757 0.952992 0.938478
C189  C     C_R   0.500117 0.999951 0.547027 0.972568
C190  C     C_R   0.000011 0.499957 0.547073 0.958085
C191  C     C_R   0.500031 0.999986 0.452829 0.987031
C192  C     C_R   0.000033 0.500123 0.453007 0.942436
C193  C     C_R   0.119984 0.500384 0.000014 0.936863
C194  C     C_R   0.500556 0.120046 0.999876 0.876284
C195  C     C_R   0.879997 0.499563 0.000034 0.906624
C196  C     C_R   0.499629 0.880046 0.999938 0.942754
C197  C     C_R   0.620007 0.000475 0.500148 0.920437
C198  C     C_R   0.000329 0.619952 0.500003 0.936297
C199  C     C_R   0.380063 0.999658 0.500063 0.940454
C200  C     C_R   0.999502 0.379961 0.499999 0.872293
C201  C     C_R   0.945552 0.520454 0.237950 0.044703
C202  C     C_R   0.462220 0.957689 0.237333 0.045072
C203  C     C_R   0.023374 0.439507 0.237106 0.044681
C204  C     C_R   0.538299 0.041956 0.237354 0.045141
C205  C     C_R   0.027181 0.450590 0.762699 0.045435
C206  C     C_R   0.479683 0.062910 0.762301 0.037847
C207  C     C_R   0.971847 0.548596 0.762682 0.045453
C208  C     C_R   0.560186 0.984653 0.763189 0.045752
C209  C     C_R   0.485823 0.066372 0.737012 0.045248
C210  C     C_R   0.022579 0.448197 0.737308 0.045404
C211  C     C_R   0.554089 0.977228 0.738052 0.045496
C212  C     C_R   0.976501 0.550946 0.737294 0.045500
C213  C     C_R   0.458227 0.961672 0.262649 0.045058
C214  C     C_R   0.940362 0.512931 0.263109 0.044662
C215  C     C_R   0.542345 0.037917 0.262668 0.045133
C216  C     C_R   0.028864 0.443788 0.262384 0.044731
H1    H     H_    0.886658 0.600619 0.234920 0.143795
H2    H     H_    0.404806 0.875444 0.233084 0.142588
H3    H     H_    0.081191 0.359146 0.232303 0.143777
H4    H     H_    0.595722 0.124198 0.233151 0.142481
H5    H     H_    0.086041 0.370505 0.767086 0.141097
H6    H     H_    0.400814 0.123039 0.765328 0.140371
H7    H     H_    0.912934 0.628655 0.767034 0.140843
H8    H     H_    0.640861 0.927207 0.767767 0.143261
H9    H     H_    0.437749 0.152889 0.731998 0.142766
H10   H     H_    0.052059 0.353079 0.732945 0.141591
H11   H     H_    0.603704 0.890931 0.735236 0.143344
H12   H     H_    0.946984 0.646043 0.732914 0.141310
H13   H     H_    0.376110 0.904070 0.266861 0.142634
H14   H     H_    0.854032 0.561653 0.267577 0.143857
H15   H     H_    0.624492 0.095477 0.266909 0.142610
H16   H     H_    0.114238 0.392766 0.265737 0.143545
H17   H     H_    0.087876 0.468230 0.121157 0.172689
H18   H     H_    0.594301 0.971667 0.121431 0.148844
H19   H     H_    0.897340 0.521308 0.119662 0.178148
H20   H     H_    0.405846 0.028305 0.121445 0.148462
H21   H     H_    0.061627 0.577107 0.878790 0.145326
H22   H     H_    0.537833 0.920068 0.877620 0.172672
H23   H     H_    0.937694 0.422655 0.878874 0.145443
H24   H     H_    0.475557 0.107540 0.882187 0.171031
H25   H     H_    0.597774 0.963835 0.619385 0.171905
H26   H     H_    0.077763 0.560796 0.621262 0.144811
H27   H     H_    0.417889 0.045715 0.621336 0.173211
H28   H     H_    0.922155 0.438347 0.621106 0.145044
H29   H     H_    0.471709 0.094033 0.378539 0.148680
H30   H     H_    0.030875 0.395674 0.381793 0.171994
H31   H     H_    0.528720 0.905699 0.378590 0.148453
H32   H     H_    0.959005 0.579606 0.377885 0.170602
N1    N     N_R   0.989782 0.490509 0.149573 -0.352125
N2    N     N_R   0.500105 0.999970 0.149530 -0.360309
N3    N     N_R   0.999600 0.499783 0.850733 -0.361290
N4    N     N_R   0.512124 0.020216 0.850744 -0.348867
N5    N     N_R   0.512427 0.009898 0.649588 -0.351384
N6    N     N_R   0.999816 0.499572 0.649266 -0.361610
N7    N     N_R   0.500278 0.999821 0.350473 -0.360297
N8    N     N_R   0.990886 0.481975 0.350761 -0.351944
O1    O     O_R   0.499970 0.408410 0.020130 -0.614189
O2    O     O_R   0.591590 0.499970 0.020130 -0.615523
O3    O     O_R   0.500030 0.591590 0.020130 -0.614912
O4    O     O_R   0.408410 0.500030 0.020130 -0.617140
O5    O     O_R   0.499970 0.591590 0.979870 -0.617135
O6    O     O_R   0.591590 0.500030 0.979870 -0.616543
O7    O     O_R   0.500030 0.408410 0.979870 -0.615664
O8    O     O_R   0.408410 0.499970 0.979870 -0.615577
O9    O     O_R   0.999970 0.908410 0.520130 -0.615515
O10   O     O_R   0.091590 0.999970 0.520130 -0.617435
O11   O     O_R   0.000030 0.091590 0.520130 -0.615108
O12   O     O_R   0.908410 0.000030 0.520130 -0.616154
O13   O     O_R   0.999970 0.091590 0.479870 -0.614778
O14   O     O_R   0.091590 0.000030 0.479870 -0.614989
O15   O     O_R   0.000030 0.908410 0.479870 -0.616989
O16   O     O_R   0.908410 0.999970 0.479870 -0.615035
O17   O     O_R   0.999960 0.448330 0.035690 -0.592291
O18   O     O_R   0.551670 0.999960 0.035690 -0.594733
O19   O     O_R   0.000040 0.551670 0.035690 -0.608112
O20   O     O_R   0.448330 0.000040 0.035690 -0.597936
O21   O     O_R   0.999960 0.551670 0.964310 -0.594466
O22   O     O_R   0.551670 0.000040 0.964310 -0.621008
O23   O     O_R   0.000040 0.448330 0.964310 -0.595846
O24   O     O_R   0.448330 0.999960 0.964310 -0.590689
O25   O     O_R   0.499960 0.948330 0.535690 -0.597492
O26   O     O_R   0.051670 0.499960 0.535690 -0.595542
O27   O     O_R   0.500040 0.051670 0.535690 -0.598268
O28   O     O_R   0.948330 0.500040 0.535690 -0.593168
O29   O     O_R   0.499960 0.051670 0.464310 -0.600144
O30   O     O_R   0.051670 0.500040 0.464310 -0.591220
O31   O     O_R   0.500040 0.948330 0.464310 -0.598010
O32   O     O_R   0.948330 0.499960 0.464310 -0.618610
O33   O     O_R   0.091600 0.448330 0.000070 -0.611958
O34   O     O_R   0.551670 0.091600 0.000070 -0.590480
O35   O     O_R   0.908400 0.551670 0.000070 -0.620745
O36   O     O_R   0.448330 0.908400 0.000070 -0.610627
O37   O     O_R   0.091600 0.551670 0.999930 -0.610944
O38   O     O_R   0.551670 0.908400 0.999930 -0.613126
O39   O     O_R   0.908400 0.448330 0.999930 -0.607441
O40   O     O_R   0.448330 0.091600 0.999930 -0.616209
O41   O     O_R   0.591600 0.948330 0.500070 -0.617077
O42   O     O_R   0.051670 0.591600 0.500070 -0.614164
O43   O     O_R   0.408400 0.051670 0.500070 -0.614763
O44   O     O_R   0.948330 0.408400 0.500070 -0.597060
O45   O     O_R   0.591600 0.051670 0.499930 -0.607483
O46   O     O_R   0.051670 0.408400 0.499930 -0.613622
O47   O     O_R   0.408400 0.948330 0.499930 -0.612097
O48   O     O_R   0.948330 0.591600 0.499930 -0.610279
O49   O     O_2   0.945086 0.588707 0.150999 -0.524649
O50   O     O_2   0.435177 0.913461 0.148449 -0.513971
O51   O     O_2   0.034065 0.392145 0.148043 -0.530721
O52   O     O_2   0.565031 0.086480 0.148495 -0.513844
O53   O     O_2   0.058923 0.410525 0.851745 -0.510465
O54   O     O_2   0.413017 0.063073 0.849368 -0.532998
O55   O     O_2   0.940263 0.589034 0.851710 -0.510983
O56   O     O_2   0.611920 0.979009 0.851963 -0.529304
O57   O     O_2   0.481648 0.113441 0.647832 -0.529968
O58   O     O_2   0.038630 0.399542 0.648277 -0.509133
O59   O     O_2   0.543853 0.906549 0.651497 -0.529220
O60   O     O_2   0.960985 0.599592 0.648254 -0.508817
O61   O     O_2   0.413897 0.934720 0.351513 -0.513898
O62   O     O_2   0.888253 0.515477 0.351875 -0.528470
O63   O     O_2   0.586665 0.064914 0.351548 -0.513914
O64   O     O_2   0.092983 0.446710 0.349791 -0.529366
Zn1   Zn    Zn3+2 0.500000 0.500000 0.026880 1.071154
Zn2   Zn    Zn3+2 0.500000 0.500000 0.973120 1.072367
Zn3   Zn    Zn3+2 1.000000 1.000000 0.526880 1.069880
Zn4   Zn    Zn3+2 1.000000 1.000000 0.473120 1.074828
Zn5   Zn    Zn3+2 0.000000 0.430970 0.000000 1.063673
Zn6   Zn    Zn3+2 0.569030 0.000000 0.000000 1.062169
Zn7   Zn    Zn3+2 0.000000 0.569030 0.000000 1.058835
Zn8   Zn    Zn3+2 0.430970 0.000000 0.000000 1.061881
Zn9   Zn    Zn3+2 0.500000 0.930970 0.500000 1.061947
Zn10  Zn    Zn3+2 0.069030 0.500000 0.500000 1.061495
Zn11  Zn    Zn3+2 0.500000 0.069030 0.500000 1.061331
Zn12  Zn    Zn3+2 0.930970 0.500000 0.500000 1.061456
C217  C     C_2   0.314782 0.421015 0.966536 1.000241
O65   O     O_2   0.305372 0.425005 0.944957 -0.602211
O66   O     O_R   0.356914 0.378239 0.975264 -0.752477
H33   H     H_    0.376775 0.353357 0.962012 0.350341
C218  C     C_2   0.580360 0.317230 0.967258 0.966597
O67   O     O_2   0.574885 0.310214 0.945595 -0.578093
O68   O     O_R   0.624831 0.357922 0.976310 -0.758393
H34   H     H_    0.649679 0.378858 0.963194 0.347928
C219  C     C_2   0.685084 0.579940 0.966974 0.999006
O69   O     O_2   0.694485 0.576698 0.945377 -0.602534
O70   O     O_R   0.642890 0.622350 0.975929 -0.753124
H35   H     H_    0.622993 0.647661 0.962810 0.349214
C220  C     C_2   0.421342 0.683204 0.966315 1.004099
O71   O     O_2   0.426165 0.693301 0.944806 -0.613421
O72   O     O_R   0.378589 0.639665 0.974595 -0.748756
H36   H     H_    0.354502 0.619406 0.961101 0.348973
C221  C     C_2   0.317002 0.580461 0.032924 1.003164
O73   O     O_2   0.306432 0.577083 0.054439 -0.611747
O74   O     O_R   0.361047 0.622329 0.024380 -0.749466
H37   H     H_    0.381212 0.647112 0.037705 0.351645
C222  C     C_2   0.577507 0.685433 0.033932 1.000301
O75   O     O_2   0.572410 0.694421 0.055501 -0.601318
O76   O     O_R   0.621042 0.643810 0.025400 -0.751646
H38   H     H_    0.645447 0.623901 0.038777 0.349599
C223  C     C_2   0.683190 0.420226 0.033277 1.003493
O77   O     O_2   0.695205 0.423655 0.054680 -0.614508
O78   O     O_R   0.637884 0.379021 0.025244 -0.746006
H39   H     H_    0.618158 0.354783 0.038805 0.352675
C224  C     C_2   0.420478 0.314727 0.033413 0.998484
O79   O     O_2   0.424309 0.305377 0.054999 -0.602445
O80   O     O_R   0.377809 0.356893 0.024629 -0.753803
H40   H     H_    0.352827 0.376776 0.037847 0.348615
C225  C     C_2   0.814691 0.920485 0.466851 0.997695
O81   O     O_2   0.805405 0.924048 0.445253 -0.602027
O82   O     O_R   0.856683 0.877796 0.475750 -0.753745
H41   H     H_    0.876537 0.852577 0.462593 0.348780
C226  C     C_2   0.079435 0.816735 0.466705 1.003583
O83   O     O_2   0.075218 0.806878 0.445157 -0.608977
O84   O     O_R   0.122047 0.860076 0.475270 -0.750254
H42   H     H_    0.146603 0.880399 0.461929 0.351939
C227  C     C_2   0.185409 0.077135 0.465974 1.000545
O85   O     O_2   0.194218 0.071731 0.444405 -0.601385
O86   O     O_R   0.143958 0.120883 0.474469 -0.752138
H43   H     H_    0.124001 0.145158 0.461068 0.349890
C228  C     C_2   0.919103 0.183026 0.467432 0.965108
O87   O     O_2   0.923138 0.191524 0.445803 -0.577283
O88   O     O_R   0.875884 0.140972 0.476438 -0.757258
H44   H     H_    0.850650 0.120433 0.463328 0.351118
C229  C     C_2   0.816975 0.079825 0.533357 1.001715
O89   O     O_2   0.804937 0.076441 0.554755 -0.614183
O90   O     O_R   0.862332 0.120971 0.525346 -0.746770
H45   H     H_    0.882076 0.145199 0.538917 0.349979
C230  C     C_2   0.080550 0.185041 0.533072 0.998616
O91   O     O_2   0.077555 0.194468 0.554674 -0.600013
O92   O     O_R   0.122732 0.142697 0.524060 -0.754709
H46   H     H_    0.148131 0.122754 0.537144 0.349133
C231  C     C_2   0.183326 0.921555 0.533742 1.004120
O93   O     O_2   0.193002 0.926535 0.555278 -0.611208
O94   O     O_R   0.140180 0.878521 0.525344 -0.750072
H47   H     H_    0.119817 0.854367 0.538786 0.349469
C232  C     C_2   0.921982 0.814774 0.533780 1.000656
O95   O     O_2   0.926715 0.805628 0.555351 -0.600922
O96   O     O_R   0.878763 0.856644 0.525188 -0.751922
H48   H     H_    0.854251 0.876583 0.538527 0.348812
C233  C     C_2   0.182459 0.424242 0.965709 0.980065
O97   O     O_2   0.144879 0.447878 0.952300 -0.649030
O98   O     O_R   0.193159 0.360912 0.964509 -0.761863
H49   H     H_    0.166962 0.339674 0.951858 0.359034
C234  C     C_2   0.587861 0.186374 0.969767 0.930707
O99   O     O_2   0.580078 0.181049 0.948152 -0.617877
O100  O     O_R   0.641656 0.164541 0.980447 -0.745759
H50   H     H_    0.670015 0.143975 0.968491 0.348997
C235  C     C_2   0.817389 0.576644 0.966077 0.983987
O101  O     O_2   0.854779 0.553327 0.952504 -0.645991
O102  O     O_R   0.806825 0.640031 0.965201 -0.763204
H51   H     H_    0.832950 0.661596 0.952622 0.358301
C236  C     C_2   0.418835 0.815234 0.967039 0.972287
O103  O     O_2   0.439316 0.855815 0.954034 -0.635336
O104  O     O_R   0.356166 0.799888 0.966225 -0.763912
H52   H     H_    0.332696 0.825568 0.954163 0.355007
C237  C     C_2   0.185261 0.584813 0.031573 0.973644
O105  O     O_2   0.144409 0.566264 0.044873 -0.631410
O106  O     O_R   0.201308 0.647344 0.031352 -0.763894
H53   H     H_    0.175838 0.672417 0.042980 0.355561
C238  C     C_2   0.572226 0.817701 0.035236 0.973559
O107  O     O_2   0.546565 0.854190 0.048521 -0.639984
O108  O     O_R   0.635653 0.808320 0.037190 -0.766472
H54   H     H_    0.655256 0.834483 0.050238 0.345281
C239  C     C_2   0.814242 0.411882 0.030399 0.972655
O109  O     O_2   0.855965 0.428020 0.043765 -0.660759
O110  O     O_R   0.796575 0.349829 0.029327 -0.760479
H55   H     H_    0.821776 0.322980 0.040426 0.356422
C240  C     C_2   0.426238 0.182273 0.034844 0.981156
O111  O     O_2   0.451344 0.145698 0.048253 -0.634552
O112  O     O_R   0.362733 0.191612 0.036389 -0.769351
H56   H     H_    0.342604 0.165338 0.049272 0.344532
C241  C     C_2   0.682436 0.925362 0.465620 0.977740
O113  O     O_2   0.646094 0.950105 0.452008 -0.637772
O114  O     O_R   0.691723 0.861807 0.464380 -0.768715
H57   H     H_    0.665579 0.841314 0.451530 0.344676
C242  C     C_2   0.080564 0.684594 0.466990 0.973292
O115  O     O_2   0.059452 0.644705 0.453791 -0.635045
O116  O     O_R   0.143436 0.699058 0.466251 -0.763889
H58   H     H_    0.166516 0.673382 0.454073 0.355905
C243  C     C_2   0.317676 0.071571 0.464584 0.973283
O117  O     O_2   0.354126 0.045640 0.451365 -0.639283
O118  O     O_R   0.308333 0.134964 0.462467 -0.767559
H59   H     H_    0.334468 0.154308 0.449365 0.344646
C244  C     C_2   0.912382 0.313925 0.469927 0.941584
O119  O     O_2   0.921848 0.322090 0.448553 -0.618170
O120  O     O_R   0.857249 0.333199 0.480316 -0.749742
H60   H     H_    0.829271 0.354357 0.468380 0.349993
C245  C     C_2   0.685999 0.088615 0.530385 0.976129
O121  O     O_2   0.644576 0.072806 0.543935 -0.653415
O122  O     O_R   0.703588 0.150649 0.529026 -0.761256
H61   H     H_    0.678562 0.177785 0.540078 0.355665
C246  C     C_2   0.076251 0.317595 0.534300 0.987047
O123  O     O_2   0.052713 0.355210 0.547720 -0.643284
O124  O     O_R   0.139622 0.307032 0.535389 -0.764736
H62   H     H_    0.160963 0.333321 0.547985 0.357141
C247  C     C_2   0.315588 0.921029 0.533660 0.972358
O125  O     O_2   0.355538 0.942844 0.546661 -0.639862
O126  O     O_R   0.301206 0.858192 0.534892 -0.763741
H63   H     H_    0.326976 0.835765 0.547227 0.355266
C248  C     C_2   0.925647 0.682439 0.534746 0.979873
O127  O     O_2   0.949873 0.644850 0.547983 -0.649366
O128  O     O_R   0.862371 0.693109 0.536354 -0.762611
H64   H     H_    0.841700 0.666902 0.549130 0.358016
N9    N     N_3   0.887105 0.622990 0.189261 -0.371877
H65   H     H_    0.901879 0.664690 0.196806 0.195267
H66   H     H_    0.840180 0.617502 0.193013 0.184662
N10   N     N_3   0.397296 0.862335 0.187353 -0.367264
H67   H     H_    0.351028 0.865524 0.192377 0.189037
H68   H     H_    0.413729 0.819864 0.193297 0.191570
N11   N     N_3   0.084353 0.346305 0.186080 -0.373587
H69   H     H_    0.130958 0.350101 0.190650 0.183902
H70   H     H_    0.068224 0.303414 0.192023 0.194128
N12   N     N_3   0.603080 0.137454 0.187427 -0.367328
H71   H     H_    0.649364 0.134236 0.192437 0.189080
H72   H     H_    0.586678 0.179909 0.193408 0.191238
N13   N     N_3   0.095402 0.359108 0.812790 -0.367412
H73   H     H_    0.141114 0.361391 0.806920 0.189630
H74   H     H_    0.077108 0.316330 0.807696 0.189554
N14   N     N_3   0.380658 0.125454 0.811688 -0.370193
H75   H     H_    0.349579 0.143764 0.799320 0.174651
H76   H     H_    0.402018 0.162857 0.820224 0.201660
N15   N     N_3   0.903599 0.640208 0.812734 -0.368135
H77   H     H_    0.857883 0.637873 0.806860 0.189298
H78   H     H_    0.921861 0.682979 0.807629 0.188610
N16   N     N_3   0.656498 0.927080 0.813941 -0.373688
H79   H     H_    0.652578 0.880209 0.809823 0.183328
H80   H     H_    0.699012 0.942937 0.807503 0.194404
N17   N     N_3   0.436369 0.165368 0.685715 -0.373480
H81   H     H_    0.457332 0.206233 0.691588 0.195137
H82   H     H_    0.389674 0.167083 0.690241 0.183342
N18   N     N_3   0.055779 0.338684 0.687238 -0.367074
H83   H     H_    0.026845 0.302958 0.693091 0.189214
H84   H     H_    0.100819 0.328181 0.692357 0.190609
N19   N     N_3   0.599799 0.867481 0.689624 -0.373698
H85   H     H_    0.647065 0.867777 0.693251 0.182528
H86   H     H_    0.580617 0.827848 0.697365 0.196183
N20   N     N_3   0.943481 0.660411 0.687206 -0.366967
H87   H     H_    0.972363 0.696157 0.693095 0.189163
H88   H     H_    0.898408 0.670888 0.692281 0.190547
N21   N     N_3   0.362959 0.896596 0.312586 -0.367219
H89   H     H_    0.366267 0.850332 0.307562 0.188967
H90   H     H_    0.320455 0.912917 0.306622 0.191728
N22   N     N_3   0.838458 0.561044 0.313698 -0.373798
H91   H     H_    0.797783 0.540805 0.307271 0.193953
H92   H     H_    0.837548 0.607959 0.309481 0.183653
N23   N     N_3   0.637678 0.102924 0.312639 -0.366901
H93   H     H_    0.634391 0.149192 0.307628 0.189208
H94   H     H_    0.680170 0.086583 0.306678 0.191807
N24   N     N_3   0.134009 0.393012 0.311576 -0.372889
H95   H     H_    0.174516 0.412080 0.304503 0.195097
H96   H     H_    0.133269 0.346016 0.307456 0.184298
N25   N     N_3   0.102911 0.460951 0.074094 -0.411064
H97   H     H_    0.110761 0.415039 0.078740 0.205817
H98   H     H_    0.140047 0.487068 0.080581 0.232171
N26   N     N_3   0.609441 0.966708 0.074456 -0.396171
H99   H     H_    0.621580 0.922689 0.080286 0.209270
H100  H     H_    0.644476 0.997266 0.079673 0.199356
N27   N     N_3   0.888539 0.540520 0.073570 -0.414919
H101  H     H_    0.851738 0.510461 0.077072 0.234537
H102  H     H_    0.893890 0.542188 0.054998 0.208505
N28   N     N_3   0.390593 0.033228 0.074470 -0.396550
H103  H     H_    0.378417 0.077239 0.080307 0.210376
H104  H     H_    0.355598 0.002638 0.079684 0.197447
N29   N     N_3   0.072718 0.588572 0.926551 -0.409955
H105  H     H_    0.093068 0.619735 0.914572 0.195296
H106  H     H_    0.108707 0.564700 0.934700 0.219737
N30   N     N_3   0.544310 0.899898 0.924439 -0.408417
H107  H     H_    0.590548 0.894308 0.919754 0.206888
H108  H     H_    0.519624 0.862471 0.917388 0.230618
N31   N     N_3   0.926881 0.411460 0.926649 -0.410079
H109  H     H_    0.906366 0.380296 0.914699 0.195370
H110  H     H_    0.891012 0.435438 0.934827 0.218924
N32   N     N_3   0.451532 0.106062 0.929329 -0.415446
H111  H     H_    0.440344 0.143371 0.918352 0.215554
H112  H     H_    0.483490 0.122290 0.941838 0.206931
N33   N     N_3   0.598571 0.940359 0.572294 -0.420766
H113  H     H_    0.629419 0.919437 0.584099 0.205343
H114  H     H_    0.624157 0.971940 0.562246 0.225429
N34   N     N_3   0.089209 0.571980 0.573511 -0.411930
H115  H     H_    0.120540 0.592051 0.585508 0.194322
H116  H     H_    0.065651 0.608186 0.565376 0.223999
N35   N     N_3   0.402836 0.054038 0.574254 -0.411988
H117  H     H_    0.400969 0.100543 0.579048 0.207898
H118  H     H_    0.362658 0.032668 0.580586 0.229133
N36   N     N_3   0.911039 0.427389 0.573329 -0.407522
H119  H     H_    0.879771 0.407053 0.585270 0.195105
H120  H     H_    0.934772 0.391375 0.565135 0.225383
N37   N     N_3   0.466550 0.109262 0.425512 -0.397643
H121  H     H_    0.422521 0.121279 0.419645 0.208813
H122  H     H_    0.497043 0.144357 0.420316 0.197768
N38   N     N_3   0.052598 0.396210 0.429119 -0.416629
H123  H     H_    0.066599 0.360258 0.417953 0.212816
H124  H     H_    0.020464 0.377556 0.441036 0.211746
N39   N     N_3   0.533510 0.890564 0.425569 -0.396217
H125  H     H_    0.577559 0.878436 0.419765 0.211354
H126  H     H_    0.502986 0.855512 0.420339 0.197297
N40   N     N_3   0.951480 0.598495 0.424806 -0.409650
H127  H     H_    0.905152 0.602489 0.419976 0.205521
H128  H     H_    0.974925 0.637028 0.418043 0.229654

loop_
_geom_bond_atom_site_label_1
_geom_bond_atom_site_label_2
_ccdc_geom_bond_type
O128  H64   S    
C223  O77   D    
C78   N4    A    
C240  O111  D    
O23   Zn5   S    
C102  H30   S    
O112  H56   S    
C76   N2    A    
C42   C58   A    
N14   H76   S    
C218  O67   D    
C188  O22   A    
C217  O65   D    
C204  C215  A    
C75   O51   S    
C21   H5    S    
C46   C62   A    
C155  C171  A    
C200  O44   A    
C112  C124  A    
C185  O19   A    
N36   H119  S    
C186  O20   A    
O31   Zn9   S    
C22   C38   A    
C154  C170  A    
N32   H111  S    
C248  O127  D    
C2    C90   A    
C13   C211  A    
C157  C169  A    
C4    C96   A    
C232  O95   D    
N10   H67   S    
C246  O124  S    
C31   H15   S    
C136  C181  S    
C144  C160  A    
C162  C174  A    
O34   Zn6   S    
C139  C179  A    
C36   N12   S    
C138  C154  A    
C219  O70   S    
C237  O106  S    
C108  C122  A    
N19   H86   S    
C28   H12   S    
N40   H128  S    
C142  C158  A    
C222  O76   S    
N23   H94   S    
O12   Zn3   S    
C85   N7    A    
C174  C198  S    
C91   C107  A    
C4    N4    S    
C58   C82   A    
C15   C215  A    
C193  O33   A    
N25   H98   S    
C58   C70   A    
C197  O41   A    
N24   H95   S    
C243  O117  D    
C187  O21   A    
C8    N8    S    
C153  C233  S    
C29   C45   A    
C224  O80   S    
C29   C213  A    
O76   H38   S    
C37   N13   S    
O86   H43   S    
N26   H99   S    
C19   C203  A    
C137  C153  A    
C136  O16   A    
C95   H23   S    
C17   C201  A    
C8    C104  A    
C61   C85   A    
C140  C156  A    
C141  C157  A    
N11   H70   S    
C144  C178  A    
C130  O2    A    
N16   H80   S    
N33   H114  S    
C35   C51   A    
C231  O93   D    
C49   C73   A    
C172  C196  S    
O90   H45   S    
O28   Zn12  S    
O46   Zn10  S    
C188  O24   A    
C35   N11   S    
C23   C207  A    
C59   C83   A    
C160  C240  S    
C186  O18   A    
C133  O9    A    
N28   H103  S    
O29   Zn11  S    
C187  O23   A    
C133  O15   A    
C129  C178  S    
C12   C68   A    
C233  O98   S    
C116  C126  A    
C19   C35   A    
C225  O81   D    
C47   C63   A    
C158  C172  A    
O4    Zn1   S    
C145  C161  A    
N38   H124  S    
C151  C167  A    
O15   Zn4   S    
C25   H9    S    
N18   H83   S    
C140  C180  A    
C34   N10   S    
C245  O121  D    
C9    C65   A    
C201  C214  A    
C98   H26   S    
C98   C114  A    
C85   O61   S    
O66   H33   S    
C18   H2    S    
C119  N39   S    
O6    Zn2   S    
O78   H39   S    
C137  C217  S    
C3    C95   A    
N21   H90   S    
C236  O103  D    
C235  O101  D    
C33   C49   A    
C118  C128  A    
C230  O92   S    
C7    C101  A    
C145  C225  S    
O18   Zn6   S    
C77   O53   S    
C32   H16   S    
O8    Zn2   S    
C221  O73   D    
C161  C241  S    
C21   C205  A    
O108  H54   S    
C191  O31   A    
C15   C213  A    
C163  C175  A    
C234  O99   D    
C167  C247  S    
C132  O4    A    
C241  O113  D    
C168  C174  A    
C62   C86   A    
C83   O59   S    
C139  C219  S    
C3    N3    S    
C129  O1    A    
C50   C74   A    
C114  C126  A    
C1    N1    S    
C122  C186  S    
C31   C215  A    
C104  C120  A    
C86   N8    A    
O98   H49   S    
C150  C166  A    
C91   H19   S    
C135  O13   A    
C147  C183  A    
N22   H91   S    
C22   C206  A    
C16   C216  A    
C89   H17   S    
C126  C190  S    
C117  N37   S    
C92   C108  A    
C142  C180  A    
N11   H69   S    
C93   H21   S    
C154  C234  S    
O16   Zn4   S    
C143  C179  A    
C39   N15   S    
C36   C52   A    
C43   C59   A    
C37   C53   A    
C198  O42   A    
C7    C103  A    
C146  C162  A    
C11   C207  A    
C238  O108  S    
O11   Zn3   S    
C73   N1    A    
C10   C66   A    
C150  C230  S    
N20   H88   S    
C84   O60   S    
C173  C197  S    
C148  C164  A    
C13   C209  A    
C105  C121  A    
C149  C165  A    
C3    C93   A    
C192  O30   A    
C124  C188  S    
C243  O118  S    
N12   H71   S    
C109  C123  A    
C150  C184  A    
C40   C56   A    
C56   C68   A    
C97   H25   S    
C156  C172  A    
C127  C191  S    
C44   N20   S    
C128  C192  S    
C6    C100  A    
C2    C92   A    
O110  H55   S    
N17   H81   S    
C195  O35   A    
C50   C66   A    
O114  H57   S    
C166  C246  S    
C139  C155  A    
C106  C122  A    
C110  N30   S    
C26   C210  A    
C16   C214  A    
N29   H106  S    
C175  C199  S    
C146  C226  S    
C83   N5    A    
C23   H7    S    
O37   Zn7   S    
N10   H68   S    
C199  O43   A    
C191  O29   A    
N27   H101  S    
C199  O47   A    
C193  O37   A    
C168  C248  S    
C194  O34   A    
C167  C175  A    
C195  O39   A    
C86   O62   S    
C30   C46   A    
C82   N6    A    
N30   H108  S    
C52   C76   A    
C131  C180  S    
C151  C183  A    
C194  O40   A    
N13   H74   S    
C56   C80   A    
C136  O12   A    
C81   N5    A    
C100  C116  A    
C29   H13   S    
C147  C163  A    
C233  O97   D    
C143  C223  S    
O7    Zn2   S    
N36   H120  S    
C61   C71   A    
C13   C69   A    
C144  C224  S    
N37   H122  S    
C64   C88   A    
C5    C97   A    
N32   H112  S    
C159  C239  S    
C53   C67   A    
C113  N33   S    
C228  O88   S    
C149  C229  S    
O124  H62   S    
C32   C216  A    
C38   N14   S    
C87   O63   S    
C246  O123  D    
C80   N4    A    
C89   C105  A    
N35   H117  S    
C88   O64   S    
C11   C205  A    
C244  O120  S    
C76   O52   S    
N19   H85   S    
C93   C109  A    
C131  O5    A    
C196  O38   A    
C92   H20   S    
C237  O105  D    
C225  O82   S    
C240  O112  S    
O48   Zn12  S    
C138  C218  S    
N15   H77   S    
C16   C72   A    
O2    Zn1   S    
C101  H29   S    
C192  O32   A    
C222  O75   D    
O88   H44   S    
N39   H126  S    
C26   H10   S    
C22   H6    S    
C26   C42   A    
C239  O109  D    
C159  C171  A    
C141  C177  A    
C6    C98   A    
C107  N27   S    
C41   N17   S    
C227  O86   S    
C99   C115  A    
N25   H97   S    
O30   Zn10  S    
C48   C64   A    
C151  C231  S    
N24   H96   S    
O84   H42   S    
C147  C227  S    
C51   C65   A    
C247  O126  S    
C110  C124  A    
C196  O36   A    
C39   C55   A    
O74   H37   S    
C242  O116  S    
N26   H100  S    
O80   H40   S    
C115  N35   S    
C145  C181  A    
C200  O46   A    
C220  O72   S    
C74   O50   S    
O33   Zn5   S    
C132  O8    A    
C87   N7    A    
C73   O49   S    
O126  H63   S    
C223  O78   S    
C31   C47   A    
N33   H113  S    
C149  C181  A    
C96   H24   S    
O3    Zn1   S    
C17   C33   A    
C176  C200  S    
O27   Zn11  S    
N14   H75   S    
C218  O68   S    
C217  O66   S    
C48   N24   S    
C229  O90   S    
O42   Zn10  S    
C146  C182  A    
C111  C123  A    
O122  H61   S    
C203  C216  A    
C20   C204  A    
C155  C235  S    
C141  C221  S    
O72   H36   S    
C170  C194  S    
N28   H104  S    
O10   Zn3   S    
C94   C110  A    
C12   C206  A    
C53   C77   A    
O118  H59   S    
C30   C214  A    
C55   C79   A    
C165  C245  S    
O68   H34   S    
C38   C54   A    
C105  N25   S    
N23   H93   S    
C54   C68   A    
C120  N40   S    
C47   N23   S    
O39   Zn5   S    
C18   C202  A    
C117  C127  A    
C33   N9    S    
C130  O6    A    
C9    C201  A    
C131  O3    A    
C171  C195  S    
C112  N32   S    
C189  O25   A    
C134  O14   A    
N40   H127  S    
C152  C168  A    
C152  C182  A    
C140  C220  S    
C52   C66   A    
C230  O91   D    
N31   H110  S    
O92   H46   S    
C162  C242  S    
O40   Zn8   S    
C7    N7    S    
C79   N3    A    
N34   H116  S    
O5    Zn2   S    
N27   H102  S    
O32   Zn12  S    
C169  C193  S    
O96   H48   S    
C120  C128  A    
C108  N28   S    
C28   C212  A    
C15   C71   A    
N9    H66   S    
O45   Zn11  S    
C101  C117  A    
C80   O56   S    
C41   C57   A    
C14   C212  A    
C148  C228  S    
C32   C48   A    
C197  O45   A    
C44   C60   A    
C208  C211  A    
C189  O27   A    
C45   C61   A    
N22   H92   S    
C164  C176  A    
C202  C213  A    
C99   H27   S    
C103  H31   S    
C90   C106  A    
O41   Zn9   S    
C20   C36   A    
C27   C43   A    
C21   C37   A    
C109  N29   S    
N16   H79   S    
C1    C91   A    
C153  C169  A    
O104  H52   S    
C231  O94   S    
O20   Zn8   S    
C75   N1    A    
C163  C243  S    
O22   Zn6   S    
C54   C78   A    
O13   Zn4   S    
C134  O10   A    
O70   H35   S    
O38   Zn6   S    
O17   Zn5   S    
C45   N21   S    
N35   H118  S    
O19   Zn7   S    
O100  H50   S    
C134  C183  S    
C238  O107  D    
O94   H47   S    
C88   N8    A    
C25   C41   A    
C219  O69   D    
C96   C112  A    
C6    N6    S    
C49   C65   A    
O21   Zn7   S    
C160  C170  A    
C12   C208  A    
N38   H123  S    
C51   C75   A    
C2    N2    S    
N12   H72   S    
C235  O102  S    
C113  C125  A    
C165  C173  A    
N31   H109  S    
C27   H11   S    
C161  C173  A    
C90   H18   S    
C245  O122  S    
N21   H89   S    
C248  O128  S    
O44   Zn12  S    
C157  C237  S    
C9    C203  A    
O26   Zn10  S    
C111  N31   S    
C94   H22   S    
C28   C44   A    
O102  H51   S    
C77   N3    A    
C46   N22   S    
C236  O104  S    
N29   H105  S    
C102  C118  A    
C132  C177  S    
C239  O110  S    
C43   N19   S    
C135  O11   A    
C20   H4    S    
C14   C70   A    
C129  O7    A    
C135  C184  S    
N18   H84   S    
C234  O100  S    
C11   C67   A    
C24   H8    S    
C40   N16   S    
C156  C236  S    
C34   C50   A    
C14   C210  A    
C241  O114  S    
N34   H115  S    
O47   Zn9   S    
N39   H125  S    
N13   H73   S    
C198  O48   A    
C190  O26   A    
C232  O96   S    
O43   Zn11  S    
C42   N18   S    
O9    Zn3   S    
N9    H65   S    
C185  O17   A    
C152  C232  S    
O82   H41   S    
C78   O54   S    
O1    Zn1   S    
O106  H53   S    
C10   C202  A    
C60   C70   A    
C148  C184  A    
C27   C211  A    
N37   H121  S    
C62   C72   A    
C25   C209  A    
C18   C34   A    
C107  C121  A    
C228  O87   D    
C4    C94   A    
C205  C210  A    
C59   C69   A    
C242  O115  D    
O35   Zn7   S    
C84   N6    A    
C207  C212  A    
C57   C81   A    
C19   H3    S    
C97   C113  A    
C138  C178  A    
C17   H1    S    
O24   Zn8   S    
C226  O83   D    
C81   O57   S    
N20   H87   S    
C1    C89   A    
C158  C238  S    
C63   C87   A    
C103  C119  A    
C79   O55   S    
C63   C71   A    
C100  H28   S    
C55   C67   A    
N15   H78   S    
C116  N36   S    
C5    C99   A    
C104  H32   S    
C224  O79   D    
C166  C176  A    
C115  C125  A    
C114  N34   S    
C5    N5    S    
C57   C69   A    
C30   H14   S    
C74   N2    A    
O120  H60   S    
N17   H82   S    
C95   C111  A    
C227  O85   D    
C60   C84   A    
C206  C209  A    
C118  N38   S    
C244  O119  D    
C229  O89   D    
C10   C204  A    
C82   O58   S    
C23   C39   A    
C24   C40   A    
O25   Zn9   S    
C143  C159  A    
C64   C72   A    
C123  C187  S    
C247  O125  D    
C130  C179  S    
C121  C185  S    
O116  H58   S    
C190  O28   A    
C106  N26   S    
C133  C182  S    
C137  C177  A    
N30   H107  S    
C142  C222  S    
C221  O74   S    
C164  C244  S    
C24   C208  A    
O14   Zn4   S    
C125  C189  S    
C226  O84   S    
C220  O71   D    
C8    C102  A    
O36   Zn8   S    
C119  C127  A    
