data_mof_unit_27442.cif
_audit_creation_date              2012-12-11T14:43:56-0500
_audit_creation_method            fapswitch 2.2
_symmetry_space_group_name_H-M    P1
_symmetry_Int_Tables_number       1
_space_group_crystal_system       triclinic
_cell_length_a                    19.006282
_cell_length_b                    10.913551
_cell_length_c                    18.864074
_cell_angle_alpha                 90.369319
_cell_angle_beta                  90.064682
_cell_angle_gamma                 89.939774
_cell_volume                      3912.81402733

loop_
_atom_site_label
_atom_site_type_symbol
_atom_type_description
_atom_site_fract_x
_atom_site_fract_y
_atom_site_fract_z
_atom_type_partial_charge
C1    C     C_R   0.727955 0.372771 0.144042 0.579795
C2    C     C_R   0.269740 0.376479 0.854025 0.587036
C3    C     C_R   0.227955 0.872772 0.144043 0.579793
C4    C     C_R   0.769740 0.876479 0.854024 0.587038
C5    C     C_R   0.472943 0.396053 0.938862 0.018689
C6    C     C_R   0.456982 0.362420 0.084035 -0.051288
C7    C     C_R   0.972947 0.896054 0.938860 0.018694
C8    C     C_R   0.956985 0.862424 0.084034 -0.051281
C9    C     C_R   0.952948 0.993893 0.982272 -0.038663
C10   C     C_R   0.942976 0.976173 0.054374 -0.067077
C11   C     C_R   0.452945 0.493891 0.982275 -0.038680
C12   C     C_R   0.442973 0.476170 0.054376 -0.067087
C13   C     C_R   0.712229 0.846022 0.040981 -0.154538
C14   C     C_R   0.312748 0.915657 0.967166 -0.152294
C15   C     C_R   0.212228 0.346021 0.040981 -0.154538
C16   C     C_R   0.812752 0.415674 0.967169 -0.152289
C17   C     C_R   0.714965 0.827333 0.968242 -0.152237
C18   C     C_R   0.305699 0.902236 0.039993 -0.147204
C19   C     C_R   0.214964 0.327333 0.968242 -0.152235
C20   C     C_R   0.805701 0.402248 0.039995 -0.147194
C21   C     C_R   0.749142 0.913094 0.924692 0.000896
C22   C     C_R   0.238472 0.897033 0.069346 0.000164
C23   C     C_R   0.249142 0.413093 0.924692 0.000892
C24   C     C_R   0.738471 0.397027 0.069346 0.000178
C25   C     C_R   0.775543 0.021518 0.953319 0.394509
C26   C     C_R   0.178563 0.901442 0.025120 0.397516
C27   C     C_R   0.275544 0.521517 0.953319 0.394507
C28   C     C_R   0.678562 0.401417 0.025118 0.397516
C29   C     C_R   0.773817 0.039133 0.025662 0.374195
C30   C     C_R   0.185681 0.912942 0.952955 0.406350
C31   C     C_R   0.273818 0.539131 0.025663 0.374193
C32   C     C_R   0.685681 0.412923 0.952952 0.406348
C33   C     C_R   0.744192 0.949635 0.070127 -0.017794
C34   C     C_R   0.252452 0.923909 0.923821 0.008001
C35   C     C_R   0.244193 0.449634 0.070128 -0.017797
C36   C     C_R   0.752454 0.423909 0.923821 0.008006
C37   C     C_R   0.466462 0.057133 0.450271 0.413775
C38   C     C_R   0.451031 0.053499 0.521657 0.396686
C39   C     C_R   0.966462 0.557134 0.450271 0.413771
C40   C     C_R   0.951031 0.553500 0.521657 0.396684
C41   C     C_R   0.455452 0.159544 0.563531 -0.053439
C42   C     C_R   0.493578 0.164933 0.420410 -0.044219
C43   C     C_R   0.955454 0.659544 0.563532 -0.053438
C44   C     C_R   0.993580 0.664933 0.420411 -0.044218
C45   C     C_R   0.532852 0.153775 0.145907 0.560999
C46   C     C_R   0.468645 0.156969 0.853204 0.575188
C47   C     C_R   0.032852 0.653775 0.145907 0.560990
C48   C     C_R   0.968645 0.656969 0.853204 0.575183
C49   C     C_R   0.476017 0.270061 0.532350 -0.169166
C50   C     C_R   0.496911 0.272043 0.461526 -0.192202
C51   C     C_R   0.976021 0.770060 0.532351 -0.169160
C52   C     C_R   0.996916 0.772042 0.461528 -0.192191
C53   C     C_R   0.807086 0.998370 0.471340 -0.028676
C54   C     C_R   0.178517 0.943389 0.542327 -0.020963
C55   C     C_R   0.307086 0.498370 0.471340 -0.028682
C56   C     C_R   0.678515 0.443382 0.542328 -0.020960
C57   C     C_R   0.799863 0.997874 0.544303 -0.130554
C58   C     C_R   0.179401 0.944471 0.468958 -0.145756
C59   C     C_R   0.299861 0.497876 0.544303 -0.130557
C60   C     C_R   0.679398 0.444462 0.468959 -0.145752
C61   C     C_R   0.751496 0.921516 0.577439 -0.067762
C62   C     C_R   0.236979 0.897328 0.431014 -0.070853
C63   C     C_R   0.251496 0.421516 0.577438 -0.067763
C64   C     C_R   0.736978 0.397326 0.431015 -0.070853
C65   C     C_R   0.700575 0.860294 0.537330 -0.083547
C66   C     C_R   0.293485 0.846397 0.468169 -0.071973
C67   C     C_R   0.200576 0.360291 0.537329 -0.083547
C68   C     C_R   0.793486 0.346401 0.468170 -0.071973
C69   C     C_R   0.699751 0.872676 0.464156 0.361299
C70   C     C_R   0.293740 0.846794 0.541960 0.384065
C71   C     C_R   0.199753 0.372672 0.464155 0.361298
C72   C     C_R   0.793740 0.346794 0.541961 0.384065
C73   C     C_R   0.752520 0.941292 0.429827 -0.018976
C74   C     C_R   0.240237 0.907628 0.579082 0.006023
C75   C     C_R   0.252521 0.441290 0.429827 -0.018974
C76   C     C_R   0.740237 0.407625 0.579082 0.006023
C77   C     C_R   0.739834 0.975412 0.145291 0.560311
C78   C     C_R   0.259286 0.969849 0.852551 0.583724
C79   C     C_R   0.239834 0.475411 0.145292 0.560310
C80   C     C_R   0.759287 0.469850 0.852551 0.583728
C81   C     C_R   0.727379 0.373736 0.355155 0.557747
C82   C     C_R   0.269589 0.380065 0.648239 0.554286
C83   C     C_R   0.227379 0.873737 0.355155 0.557745
C84   C     C_R   0.769589 0.880065 0.648239 0.554288
C85   C     C_R   0.530704 0.157224 0.352749 0.555006
C86   C     C_R   0.437327 0.152822 0.638799 0.574580
C87   C     C_R   0.030704 0.657224 0.352749 0.555007
C88   C     C_R   0.937327 0.652822 0.638799 0.574579
C89   C     C_R   0.741750 0.974406 0.355677 0.558132
C90   C     C_R   0.256524 0.965770 0.647595 0.580010
C91   C     C_R   0.241751 0.474405 0.355677 0.558134
C92   C     C_R   0.756524 0.465769 0.647596 0.580011
C93   C     C_R   0.499040 0.171748 0.924248 -0.035983
C94   C     C_R   0.509381 0.156703 0.072114 -0.045091
C95   C     C_R   0.999041 0.671748 0.924247 -0.036000
C96   C     C_R   0.009381 0.656704 0.072114 -0.045108
C97   C     C_R   0.484391 0.277492 0.967122 -0.015503
C98   C     C_R   0.482583 0.264742 0.041720 -0.012402
C99   C     C_R   0.984394 0.777493 0.967121 -0.015520
C100  C     C_R   0.982586 0.764744 0.041719 -0.012416
C101  C     C_R   0.530795 0.058335 0.028031 0.377051
C102  C     C_R   0.525765 0.066208 0.955641 0.387559
C103  C     C_R   0.030795 0.558335 0.028031 0.377047
C104  C     C_R   0.025765 0.566207 0.955641 0.387554
Cr1   Cr    Cr6+3 0.772000 0.169640 0.250110 1.103269
Cr2   Cr    Cr6+3 0.228000 0.169640 0.749890 1.104864
Cr3   Cr    Cr6+3 0.272000 0.669640 0.250110 1.103267
Cr4   Cr    Cr6+3 0.728000 0.669640 0.749890 1.104862
Cr5   Cr    Cr6+3 0.614960 0.323350 0.249260 1.074379
Cr6   Cr    Cr6+3 0.385040 0.323350 0.750740 1.079403
Cr7   Cr    Cr6+3 0.114960 0.823350 0.249260 1.074383
Cr8   Cr    Cr6+3 0.885040 0.823350 0.750740 1.079401
Cr9   Cr    Cr6+3 0.616670 0.010620 0.250840 1.156346
Cr10  Cr    Cr6+3 0.383330 0.010620 0.749160 1.161198
Cr11  Cr    Cr6+3 0.116670 0.510620 0.250840 1.156347
Cr12  Cr    Cr6+3 0.883330 0.510620 0.749160 1.161202
H1    H     H_    0.838948 0.045937 0.575848 0.233386
H2    H     H_    0.132680 0.975958 0.441578 0.207370
H3    H     H_    0.338944 0.545942 0.575849 0.233393
H4    H     H_    0.632675 0.475944 0.441580 0.207362
H5    H     H_    0.663208 0.799207 0.562149 0.201073
H6    H     H_    0.337047 0.806175 0.440248 0.243726
H7    H     H_    0.163210 0.299201 0.562148 0.201072
H8    H     H_    0.837050 0.306187 0.440248 0.243737
H9    H     H_    0.483445 0.417726 0.884201 0.196257
H10   H     H_    0.448589 0.352271 0.140395 0.118749
H11   H     H_    0.983449 0.917725 0.884199 0.196256
H12   H     H_    0.948592 0.852276 0.140393 0.118752
H13   H     H_    0.944902 0.083821 0.959763 0.195787
H14   H     H_    0.926065 0.051551 0.087794 0.182402
H15   H     H_    0.444899 0.583820 0.959766 0.195787
H16   H     H_    0.426062 0.551548 0.087797 0.182406
H17   H     H_    0.687152 0.778613 0.074432 0.173970
H18   H     H_    0.365117 0.925891 0.945383 0.179842
H19   H     H_    0.187150 0.278613 0.074432 0.173977
H20   H     H_    0.865122 0.425926 0.945388 0.179824
H21   H     H_    0.694278 0.742358 0.946787 0.179625
H22   H     H_    0.352145 0.896787 0.073181 0.172036
H23   H     H_    0.194276 0.242358 0.946787 0.179633
H24   H     H_    0.852148 0.396813 0.073185 0.172019
H25   H     H_    0.479032 0.353249 0.563541 0.227717
H26   H     H_    0.518736 0.355341 0.439918 0.200222
H27   H     H_    0.979037 0.853247 0.563542 0.227716
H28   H     H_    0.018743 0.855338 0.439920 0.200228
O1    O     O_R   0.787540 0.042690 0.170470 -0.476238
O2    O     O_R   0.212460 0.042690 0.829530 -0.455119
O3    O     O_R   0.287540 0.542690 0.170470 -0.476234
O4    O     O_R   0.712460 0.542690 0.829530 -0.455130
O5    O     O_R   0.556540 0.252920 0.323970 -0.533624
O6    O     O_R   0.443460 0.252920 0.676030 -0.488488
O7    O     O_R   0.056540 0.752920 0.323970 -0.533622
O8    O     O_R   0.943460 0.752920 0.676030 -0.488491
O9    O     O_R   0.545870 0.051100 0.330840 -0.416515
O10   O     O_R   0.454130 0.051100 0.669160 -0.411013
O11   O     O_R   0.045870 0.551100 0.330840 -0.416516
O12   O     O_R   0.954130 0.551100 0.669160 -0.411014
O13   O     O_R   0.681340 0.959300 0.325510 -0.436548
O14   O     O_R   0.318660 0.959300 0.674490 -0.436202
O15   O     O_R   0.181340 0.459300 0.325510 -0.436549
O16   O     O_R   0.818660 0.459300 0.674490 -0.436201
O17   O     O_3   0.667880 0.167870 0.250070 -0.298756
O18   O     O_3   0.332120 0.167870 0.749930 -0.332645
O19   O     O_3   0.167880 0.667870 0.250070 -0.298757
O20   O     O_3   0.832120 0.667870 0.749930 -0.332645
O21   O     O_R   0.765660 0.292160 0.175050 -0.459970
O22   O     O_R   0.234340 0.292160 0.824950 -0.501650
O23   O     O_R   0.265660 0.792160 0.175050 -0.459975
O24   O     O_R   0.734340 0.792160 0.824950 -0.501651
O25   O     O_R   0.670190 0.408980 0.168550 -0.455080
O26   O     O_R   0.329810 0.408980 0.831450 -0.473492
O27   O     O_R   0.170190 0.908980 0.168550 -0.455064
O28   O     O_R   0.829810 0.908980 0.831450 -0.473492
O29   O     O_R   0.556580 0.251450 0.175160 -0.477375
O30   O     O_R   0.443420 0.251450 0.824840 -0.531555
O31   O     O_R   0.056580 0.751450 0.175160 -0.477385
O32   O     O_R   0.943420 0.751450 0.824840 -0.531557
O33   O     O_R   0.545920 0.049510 0.170320 -0.447030
O34   O     O_R   0.454080 0.049510 0.829680 -0.444019
O35   O     O_R   0.045920 0.549510 0.170320 -0.447025
O36   O     O_R   0.954080 0.549510 0.829680 -0.444017
O37   O     O_R   0.681390 0.957840 0.176710 -0.476894
O38   O     O_R   0.318610 0.957840 0.823290 -0.507741
O39   O     O_R   0.181390 0.457840 0.176710 -0.476895
O40   O     O_R   0.818610 0.457840 0.823290 -0.507733
O41   O     O_R   0.787500 0.044280 0.330990 -0.484980
O42   O     O_R   0.212500 0.044280 0.669010 -0.494667
O43   O     O_R   0.287500 0.544280 0.330990 -0.484975
O44   O     O_R   0.712500 0.544280 0.669010 -0.494667
O45   O     O_R   0.765610 0.293630 0.323860 -0.478668
O46   O     O_R   0.234390 0.293630 0.676140 -0.500755
O47   O     O_R   0.265610 0.793630 0.323860 -0.478673
O48   O     O_R   0.734390 0.793630 0.676140 -0.500755
O49   O     O_R   0.670140 0.410570 0.329080 -0.515296
O50   O     O_R   0.329860 0.410570 0.670920 -0.509239
O51   O     O_R   0.170140 0.910570 0.329080 -0.515296
O52   O     O_R   0.829860 0.910570 0.670920 -0.509239
F1    F     F_    0.558680 0.953296 0.054372 -0.575936
F2    F     F_    0.546154 0.968020 0.915911 -0.565075
F3    F     F_    0.058677 0.453294 0.054372 -0.575932
F4    F     F_    0.046153 0.468018 0.915911 -0.565073
C105  C     C_2   0.877698 0.045069 0.446452 0.611567
O53   O     O_2   0.929794 0.017691 0.480765 -0.525866
O54   O     O_R   0.886563 0.126476 0.390385 -0.643571
H29   H     H_    0.937489 0.150644 0.382671 0.372062
C106  C     C_2   0.112026 0.978622 0.578486 0.583844
O55   O     O_2   0.094387 0.926799 0.632967 -0.485344
O56   O     O_R   0.069237 0.070105 0.549822 -0.639131
H30   H     H_    0.026291 0.087562 0.580089 0.380442
C107  C     C_2   0.377699 0.545071 0.446454 0.611561
O57   O     O_2   0.429794 0.517707 0.480775 -0.525853
O58   O     O_R   0.386567 0.626461 0.390381 -0.643571
H31   H     H_    0.437494 0.650631 0.382669 0.372060
C108  C     C_2   0.612025 0.478616 0.578489 0.583846
O59   O     O_2   0.594386 0.426791 0.632970 -0.485340
O60   O     O_R   0.569237 0.570100 0.549827 -0.639127
H32   H     H_    0.526292 0.587559 0.580095 0.380443
F5    F     F_    0.648552 0.813949 0.426918 -0.569218
F6    F     F_    0.346059 0.788522 0.577279 -0.556356
F7    F     F_    0.148556 0.313943 0.426917 -0.569222
F8    F     F_    0.846060 0.288523 0.577279 -0.556355
F9    F     F_    0.806005 0.107548 0.911635 -0.596979
F10   F     F_    0.112532 0.894210 0.051510 -0.595942
F11   F     F_    0.306006 0.607547 0.911636 -0.596984
F12   F     F_    0.612529 0.394164 0.051506 -0.595950
F13   F     F_    0.802074 0.143602 0.052146 -0.619480
F14   F     F_    0.127218 0.918193 0.911686 -0.600870
F15   F     F_    0.302077 0.643598 0.052146 -0.619486
F16   F     F_    0.627217 0.418160 0.911681 -0.600867
F17   F     F_    0.459729 0.951890 0.411940 -0.565565
F18   F     F_    0.436122 0.943764 0.550535 -0.522040
F19   F     F_    0.959727 0.451892 0.411939 -0.565573
F20   F     F_    0.936121 0.443764 0.550535 -0.522043

loop_
_geom_bond_atom_site_label_1
_geom_bond_atom_site_label_2
_ccdc_geom_bond_type
C58   C62   A    
Cr9   O33   S    
O54   H29   S    
C101  C102  A    
C56   C76   A    
C48   C95   S    
C31   F15   S    
C88   O8    A    
C105  O53   D    
C14   C18   A    
C19   C23   A    
Cr1   O21   S    
Cr2   O18   S    
C29   F13   S    
C72   C76   A    
C30   F14   S    
C68   H8    S    
C97   C98   A    
Cr6   O18   S    
C3    O23   A    
C38   F18   S    
Cr8   O28   S    
C108  O59   D    
C95   C104  A    
C15   C19   A    
C41   C86   S    
Cr4   O20   S    
C70   F6    S    
C7    C99   A    
Cr7   O31   S    
C43   C88   S    
C88   O12   A    
C83   O47   A    
C69   C73   A    
C84   O52   A    
C5    C11   A    
C55   C59   A    
C86   O6    A    
C6    C12   A    
Cr5   O29   S    
Cr10  O18   S    
C15   H19   S    
C94   C98   A    
C95   C99   A    
Cr3   O43   S    
C58   H2    S    
C71   F7    S    
C101  F1    S    
Cr1   O41   S    
C37   C42   A    
C18   H22   S    
C46   O34   A    
Cr8   O52   S    
C47   O35   A    
C103  C104  A    
C54   C74   A    
C8    H12   S    
C40   C43   A    
Cr9   O37   S    
C32   F16   S    
C94   C101  A    
C4    O24   A    
Cr10  O34   S    
C49   H25   S    
C70   C74   A    
C77   O37   A    
C47   C96   S    
C46   O30   A    
C25   F9    S    
C65   H5    S    
C28   F12   S    
C40   F20   S    
C44   C87   S    
C4    O28   A    
C9    C10   A    
C2    O22   A    
C91   O15   A    
C59   H3    S    
C75   C91   S    
C55   C75   A    
C44   C52   A    
Cr4   O44   S    
Cr6   O30   S    
C32   C36   A    
Cr4   O24   S    
C43   C51   A    
C29   C33   A    
C87   O7    A    
C82   O46   A    
C83   O51   A    
C105  O54   S    
C89   O41   A    
Cr10  O14   S    
C45   C94   S    
C41   C49   A    
Cr5   O25   S    
Cr3   O23   S    
C108  O60   S    
C25   C29   A    
Cr8   O20   S    
C63   C67   A    
C59   C63   A    
Cr12  O12   S    
C30   C34   A    
C63   C82   S    
C27   C31   A    
O56   H30   S    
C6    C98   A    
C20   C24   A    
Cr6   O50   S    
C28   C32   A    
Cr7   O19   S    
Cr2   O42   S    
C38   C41   A    
Cr1   O17   S    
C21   C25   A    
C104  F4    S    
C39   C40   A    
C62   C66   A    
C103  F3    S    
C14   H18   S    
C3    C22   S    
Cr10  O38   S    
C81   O49   A    
C53   C105  S    
C51   C52   A    
Cr11  O15   S    
C68   C72   A    
C78   O38   A    
C62   C83   S    
C90   O14   A    
Cr5   O5    S    
O60   H32   S    
C10   H14   S    
C39   F19   S    
C37   C38   A    
C45   O29   A    
C55   C107  S    
Cr3   O3    S    
C81   O45   A    
C93   C97   A    
O58   H31   S    
C1    O21   A    
C16   C20   A    
C54   C106  S    
Cr1   O1    S    
C66   H6    S    
C107  O57   D    
Cr7   O7    S    
C89   O13   A    
C26   F10   S    
C42   C85   S    
C85   O9    A    
Cr5   O49   S    
C6    H10   S    
C56   C108  S    
Cr4   O48   S    
C76   C92   S    
C79   O3    A    
Cr6   O26   S    
C34   C78   S    
Cr8   O32   S    
C42   C50   A    
C26   C30   A    
C23   C27   A    
C52   H28   S    
Cr12  O16   S    
C36   C80   S    
C49   C50   A    
C69   F5    S    
C9    H13   S    
Cr2   O46   S    
C5    H9    S    
C16   H20   S    
C64   C68   A    
C77   O1    A    
C48   O36   A    
C51   H27   S    
C57   H1    S    
C54   C58   A    
C7    C9    A    
C106  O55   D    
C53   C57   A    
C12   H16   S    
Cr11  O11   S    
C18   C22   A    
C93   C102  A    
C13   H17   S    
Cr12  O20   S    
C8    C10   A    
C53   C73   A    
C24   C28   A    
Cr9   O9    S    
Cr6   O6    S    
C61   C84   S    
C67   H7    S    
Cr8   O8    S    
C14   C34   A    
Cr11  O39   S    
C11   C12   A    
C92   O44   A    
C57   C61   A    
C39   C44   A    
C87   O11   A    
C45   O33   A    
C73   C89   S    
C90   O42   A    
C15   C35   A    
Cr12  O40   S    
C27   F11   S    
Cr2   O2    S    
C99   C100  A    
C60   C64   A    
C33   C77   S    
C92   O16   A    
C7    H11   S    
C20   H24   S    
Cr12  O36   S    
C86   O10   A    
C11   H15   S    
C2    O26   A    
Cr5   O17   S    
C16   C36   A    
C71   C75   A    
C4    C21   S    
C3    O27   A    
C8    C100  A    
C66   C70   A    
C46   C93   S    
Cr2   O22   S    
C65   C69   A    
C74   C90   S    
C96   C100  A    
C31   C35   A    
C35   C79   S    
C107  O58   S    
Cr1   O45   S    
C79   O39   A    
C102  F2    S    
C84   O48   A    
C67   C71   A    
C80   O40   A    
C61   C65   A    
Cr11  O19   S    
C85   O5    A    
C64   C81   S    
C82   O50   A    
C78   O2    A    
C60   H4    S    
Cr9   O17   S    
C13   C17   A    
C56   C60   A    
C5    C97   A    
C80   O4    A    
C1    C24   S    
C19   H23   S    
C13   C33   A    
C22   C26   A    
C96   C103  A    
Cr3   O47   S    
C2    C23   S    
C47   O31   A    
C1    O25   A    
C72   F8    S    
C17   H21   S    
Cr3   O19   S    
Cr9   O13   S    
C37   F17   S    
C106  O56   S    
C91   O43   A    
Cr10  O10   S    
Cr11  O35   S    
C50   H26   S    
Cr7   O51   S    
C48   O32   A    
Cr4   O4    S    
Cr7   O27   S    
C17   C21   A    
