data_mof_unit_6042.cif
_audit_creation_date              2012-12-10T17:03:43-0500
_audit_creation_method            fapswitch 2.2
_symmetry_space_group_name_H-M    P1
_symmetry_Int_Tables_number       1
_space_group_crystal_system       triclinic
_cell_length_a                    10.037967
_cell_length_b                    10.712615
_cell_length_c                    13.159914
_cell_angle_alpha                 90.643526
_cell_angle_beta                  71.298612
_cell_angle_gamma                 91.670833
_cell_volume                      1339.83588928

loop_
_atom_site_label
_atom_site_type_symbol
_atom_type_description
_atom_site_fract_x
_atom_site_fract_y
_atom_site_fract_z
_atom_type_partial_charge
C1    C     C_R   0.501871 0.737268 0.501128 0.819474
C2    C     C_R   0.435911 0.548881 0.982740 0.012045
C3    C     C_R   0.465668 0.574716 0.872906 0.042983
C4    C     C_R   0.539659 0.579296 0.030881 0.021305
C5    C     C_R   0.677701 0.611438 0.966751 0.094521
C6    C     C_R   0.699613 0.654030 0.862841 -0.327398
C7    C     C_R   0.588238 0.647901 0.819768 0.446352
C8    C     C_R   0.510501 0.577985 0.141099 -0.084210
C9    C     C_R   0.760416 0.567630 0.116749 -0.021208
C10   C     C_R   0.375299 0.522006 0.819449 -0.097824
C11   C     C_2   0.627355 0.067878 0.447318 0.411564
C12   C     C_R   0.423134 0.507992 0.703220 0.939571
C13   C     C_2   0.512446 0.133346 0.453552 0.282029
C14   C     C_2   0.617245 0.933120 0.436705 -0.127758
C15   C     C_2   0.508689 0.870401 0.507193 0.331279
C16   C     C_2   0.103150 0.442669 0.428353 -0.073475
C17   C     C_2   0.949435 0.426660 0.440758 0.118224
C18   C     C_R   0.502938 0.262938 0.488571 0.841704
C19   C     C_R   0.576846 0.512710 0.296982 0.851525
C20   C     C_R   0.788112 0.606583 0.010256 -0.201401
C21   C     C_R   0.618807 0.550851 0.183469 -0.152483
C22   C     C_R   0.247597 0.462856 0.877779 -0.218003
C23   C     C_R   0.215441 0.443419 0.986938 -0.125406
C24   C     C_R   0.310351 0.482010 0.038642 -0.125745
H1    H     H_    0.178749 0.400516 0.359171 0.127550
H2    H     H_    0.075585 0.518401 0.571956 0.229144
H3    H     H_    0.919011 0.352253 0.395448 0.116115
H4    H     H_    0.800472 0.695636 0.817088 0.157003
H5    H     H_    0.895207 0.628973 0.960737 0.149918
H6    H     H_    0.177267 0.423222 0.837653 0.163768
H7    H     H_    0.287162 0.453337 0.121142 0.137948
H8    H     H_    0.120693 0.391150 0.030220 0.151714
N1    N     N_2   0.148270 0.498670 0.498870 -0.162493
N2    N     N_2   0.852610 0.498640 0.498840 0.050887
O1    O     O_R   0.386950 0.680940 0.500020 -0.596088
O2    O     O_R   0.613110 0.680900 0.499980 -0.613915
O3    O     O_R   0.330780 0.500000 0.653640 -0.632200
O4    O     O_R   0.556930 0.499960 0.653610 -0.573161
O5    O     O_R   0.386890 0.319100 0.500020 -0.634579
O6    O     O_R   0.613050 0.319060 0.499980 -0.566701
O7    O     O_R   0.443070 0.500040 0.346390 -0.617529
O8    O     O_R   0.669220 0.500000 0.346360 -0.609612
Zn1   Zn    Zn3+2 0.349000 0.500030 0.500020 0.971173
Zn2   Zn    Zn3+2 0.651000 0.499970 0.499980 1.029653
C25   C     C_1   0.877245 0.556935 0.157247 0.220403
N3    N     N_1   0.970348 0.549187 0.190493 -0.198296
O9    O     O_3   0.404536 0.075549 0.423850 -0.761602
H9    H     H_    0.329787 0.135397 0.427895 0.352341
C26   C     C_1   0.723618 0.873749 0.349100 0.129280
N4    N     N_1   0.808605 0.826796 0.279190 -0.157069
O10   O     O_3   0.412418 0.931786 0.591178 -0.735590
H10   H     H_    0.345262 0.869233 0.636562 0.342351
O11   O     O_3   0.898486 0.607638 0.528336 -0.705047
H11   H     H_    0.812829 0.654629 0.563236 0.385744
C27   C     C_1   0.380950 0.635216 0.206397 0.221025
N5    N     N_1   0.278191 0.681184 0.257965 -0.138842
O12   O     O_3   0.594704 0.715505 0.729515 -0.774389
H12   H     H_    0.679580 0.771363 0.710632 0.331336
O13   O     O_3   0.747834 0.123648 0.458986 -0.788707
H13   H     H_    0.815521 0.057677 0.458044 0.340802

loop_
_geom_bond_atom_site_label_1
_geom_bond_atom_site_label_2
_ccdc_geom_bond_type
O3    Zn1   S    
C2    C4    A    
C18   O5    A    
O4    Zn2   S    
C6    C7    A    
C1    C15   S    
C15   O10   S    
C16   N1    D    
C11   C13   D    
C9    C20   A    
O9    H9    S    
C19   O8    A    
C4    C8    A    
C23   C24   A    
C23   H8    S    
C27   N5    T    
C2    C3    A    
C24   H7    S    
O13   H13   S    
C3    C10   A    
C25   N3    T    
C10   C22   A    
C9    C25   S    
O7    Zn1   S    
C9    C21   A    
O12   H12   S    
O8    Zn2   S    
C13   C18   S    
C11   O13   S    
C10   C12   S    
C8    C27   S    
C19   C21   S    
C8    C21   A    
C3    C7    A    
C20   H5    S    
C22   C23   A    
C1    O2    A    
C2    C24   A    
C5    C6    A    
C11   C14   S    
O2    Zn2   S    
C14   C26   S    
C17   N2    D    
O10   H10   S    
N1    Zn1   S    
C12   O4    A    
O1    Zn1   S    
O6    Zn2   S    
N2    Zn2   S    
C1    O1    A    
N2    O11   S    
C13   O9    S    
C26   N4    T    
C12   O3    A    
C16   H1    S    
C5    C20   A    
C18   O6    A    
C14   C15   D    
C16   C17   S    
O5    Zn1   S    
C22   H6    S    
O11   H11   S    
C7    O12   S    
C6    H4    S    
C19   O7    A    
H2    N1    S    
C4    C5    A    
C17   H3    S    
