data_mof_unit_50698.cif
_audit_creation_date              2012-12-10T17:32:21-0500
_audit_creation_method            fapswitch 2.2
_symmetry_space_group_name_H-M    P1
_symmetry_Int_Tables_number       1
_space_group_crystal_system       triclinic
_cell_length_a                    12.291823
_cell_length_b                    13.164956
_cell_length_c                    15.015428
_cell_angle_alpha                 77.498339
_cell_angle_beta                  100.748569
_cell_angle_gamma                 116.254638
_cell_volume                      2116.02445098

loop_
_atom_site_label
_atom_site_type_symbol
_atom_type_description
_atom_site_fract_x
_atom_site_fract_y
_atom_site_fract_z
_atom_type_partial_charge
C1    C     C_R   0.854510 0.286191 0.509854 0.800224
C2    C     C_R   0.112651 0.558010 0.100574 0.045102
C3    C     C_R   0.778173 0.393511 0.032632 0.366795
C4    C     C_R   0.779609 0.388270 0.941066 0.384774
C5    C     C_R   0.890126 0.446660 0.899825 -0.068734
C6    C     C_R   0.001071 0.502774 0.953232 -0.057601
C7    C     C_R   0.112460 0.559102 0.912976 -0.045684
C8    C     C_R   0.222419 0.606858 0.968073 -0.213827
C9    C     C_R   0.223590 0.612196 0.059668 0.365152
C10   C     C_R   0.892189 0.451141 0.806214 -0.304834
C11   C     C_R   0.001798 0.506783 0.766671 -0.137717
C12   C     C_R   0.000726 0.502367 0.670651 0.817075
C13   C     C_R   0.111458 0.566739 0.817937 0.436922
C14   C     C_R   0.274006 0.039119 0.419552 -0.332931
C15   C     C_R   0.228802 0.836559 0.460801 -0.281058
C16   C     C_R   0.808377 0.083960 0.578543 0.413925
C17   C     C_R   0.729910 0.967958 0.589388 -0.402233
C18   C     C_R   0.605722 0.929914 0.557059 0.456952
C19   C     C_R   0.564737 0.008688 0.496977 0.040114
C20   C     C_R   0.649267 0.124403 0.473987 -0.061743
C21   C     C_R   0.439318 0.978513 0.464691 0.071387
C22   C     C_R   0.398445 0.065081 0.429210 0.027100
C23   C     C_R   0.145284 0.713826 0.481443 0.832498
C24   C     C_R   0.482542 0.174919 0.399217 -0.172333
C25   C     C_R   0.605986 0.200083 0.412914 -0.130696
C26   C     C_R   0.354247 0.865744 0.460103 0.359362
C27   C     C_R   0.187418 0.924817 0.441492 0.427073
C28   C     C_R   0.771298 0.162831 0.517201 -0.194929
C29   C     C_R   0.338251 0.317506 0.644909 0.396267
C30   C     C_R   0.757709 0.644153 0.373631 0.562660
C31   C     C_R   0.652896 0.666415 0.342968 0.151004
C32   C     C_R   0.542316 0.591018 0.379400 0.332954
C33   C     C_R   0.543939 0.519415 0.464326 -0.156003
C34   C     C_R   0.000124 0.499003 0.329323 0.775844
C35   C     C_R   0.651164 0.500754 0.494149 0.079654
C36   C     C_R   0.442020 0.463390 0.518450 -0.149918
C37   C     C_R   0.440996 0.376096 0.593616 0.015457
C38   C     C_R   0.543570 0.350404 0.616713 0.395782
C39   C     C_R   0.647159 0.415738 0.569814 -0.232734
C40   C     C_R   0.342458 0.494254 0.502388 0.017816
C41   C     C_R   0.239961 0.348964 0.619692 -0.076228
C42   C     C_R   0.110409 0.555114 0.193923 -0.275293
C43   C     C_R   0.001005 0.498161 0.233269 -0.042181
C44   C     C_R   0.891907 0.442183 0.181278 -0.209337
C45   C     C_R   0.889243 0.446433 0.087087 -0.055305
C46   C     C_R   0.000971 0.502239 0.046958 -0.009897
Cu1   Cu    Cu3+1 0.098270 0.475420 0.521130 0.964401
Cu2   Cu    Cu3+1 0.901730 0.524580 0.478870 0.961581
H1    H     H_    0.192584 0.596187 0.237729 0.154781
H2    H     H_    0.452898 0.240205 0.362426 0.137603
H3    H     H_    0.247023 0.109213 0.398053 0.151384
H4    H     H_    0.764804 0.910568 0.633916 0.150447
H5    H     H_    0.665624 0.281330 0.378012 0.164378
H6    H     H_    0.157044 0.302673 0.652049 0.165462
H7    H     H_    0.810243 0.394232 0.216074 0.133466
H8    H     H_    0.341081 0.564956 0.451447 0.209291
H9    H     H_    0.722851 0.395621 0.594604 0.192483
H10   H     H_    0.809203 0.411044 0.762778 0.166674
H11   H     H_    0.308953 0.644204 0.939484 0.191438
N1    N     N_R   0.246280 0.438190 0.553160 -0.212027
N2    N     N_R   0.754320 0.561190 0.447410 -0.248459
O1    O     O_R   0.972510 0.318130 0.526570 -0.539884
O2    O     O_R   0.806530 0.359650 0.490890 -0.620689
O3    O     O_R   0.082980 0.479210 0.647590 -0.550029
O4    O     O_R   0.917000 0.520730 0.611900 -0.609247
O5    O     O_R   0.193470 0.640350 0.509110 -0.556093
O6    O     O_R   0.027490 0.681870 0.473430 -0.486339
O7    O     O_R   0.083000 0.479270 0.388100 -0.598135
O8    O     O_R   0.917020 0.520790 0.352410 -0.567221
O9    O     O_3   0.394377 0.790406 0.441728 -0.706561
H12   H     H_    0.333662 0.746180 0.395074 0.314403
O10   O     O_3   0.921063 0.121144 0.630626 -0.599462
C47   C     C_3   0.906857 0.095001 0.726009 0.032541
H13   H     H_    0.975039 0.062134 0.761816 0.147649
H14   H     H_    0.816512 0.026797 0.744674 0.138137
C48   C     C_3   0.928704 0.202446 0.763495 -0.337750
H15   H     H_    0.022666 0.268266 0.754044 0.222454
H16   H     H_    0.863493 0.238143 0.725502 0.196424
C49   C     C_3   0.911969 0.175023 0.865516 -0.934056
H17   H     H_    0.814959 0.118772 0.876057 0.264468
H18   H     H_    0.939112 0.255352 0.893190 0.268336
H19   H     H_    0.969833 0.131486 0.904141 0.250383
O11   O     O_3   0.520485 0.826797 0.598582 -0.575746
C50   C     C_3   0.557237 0.735834 0.614996 0.166624
H20   H     H_    0.621717 0.746573 0.566670 0.098207
H21   H     H_    0.474931 0.657892 0.600392 0.200802
C51   C     C_3   0.610529 0.717841 0.715566 -0.426350
H22   H     H_    0.699051 0.713197 0.717234 0.192429
H23   H     H_    0.628140 0.791187 0.750031 0.235216
C52   C     C_3   0.526248 0.607881 0.770232 -0.825834
H24   H     H_    0.436378 0.609219 0.769571 0.289624
H25   H     H_    0.567201 0.599378 0.842375 0.255773
H26   H     H_    0.513857 0.533222 0.739889 0.241953
O12   O     O_3   0.543365 0.262930 0.687130 -0.668338
H27   H     H_    0.618219 0.250858 0.690408 0.293000
O13   O     O_3   0.333960 0.225587 0.713535 -0.548087
C53   C     C_3   0.277092 0.215232 0.791098 0.071796
H28   H     H_    0.285358 0.142576 0.841001 0.183195
H29   H     H_    0.178031 0.189911 0.774276 0.111213
C54   C     C_3   0.338240 0.322479 0.838603 -0.367954
H30   H     H_    0.438078 0.347284 0.851956 0.284703
H31   H     H_    0.321733 0.394206 0.793850 0.208692
C55   C     C_3   0.286776 0.302037 0.928939 -0.879341
H32   H     H_    0.187105 0.277747 0.916954 0.255543
H33   H     H_    0.331072 0.382196 0.959721 0.266921
H34   H     H_    0.304631 0.233216 0.977680 0.267574
O14   O     O_3   0.868406 0.706236 0.335822 -0.568351
C56   C     C_3   0.863213 0.741400 0.239292 0.111151
H35   H     H_    0.957063 0.769457 0.221417 0.149644
H36   H     H_    0.846108 0.819631 0.219572 0.175369
C57   C     C_3   0.775952 0.646790 0.181980 -0.387406
H37   H     H_    0.777677 0.563577 0.214123 0.221205
H38   H     H_    0.681327 0.637365 0.178292 0.234548
C58   C     C_3   0.809491 0.675574 0.083833 -0.897250
H39   H     H_    0.807343 0.758770 0.050538 0.258878
H40   H     H_    0.742920 0.607855 0.043607 0.257933
H41   H     H_    0.902042 0.680670 0.083401 0.260975
O15   O     O_3   0.434517 0.582883 0.325887 -0.624309
C59   C     C_3   0.373149 0.474591 0.294905 0.089951
H42   H     H_    0.279893 0.464466 0.265818 0.185414
H43   H     H_    0.360688 0.401467 0.351541 0.127392
C60   C     C_3   0.437008 0.465627 0.220175 -0.356397
H44   H     H_    0.459458 0.543775 0.167825 0.277845
H45   H     H_    0.523023 0.458167 0.251496 0.175860
C61   C     C_3   0.356525 0.360982 0.173241 -0.912979
H46   H     H_    0.326858 0.281886 0.224587 0.245903
H47   H     H_    0.408927 0.352097 0.124949 0.272662
H48   H     H_    0.274741 0.370958 0.134233 0.267030
O16   O     O_3   0.658689 0.758931 0.276513 -0.755790
H49   H     H_    0.581509 0.767983 0.269321 0.382845
O17   O     O_3   0.666146 0.342746 0.066813 -0.690396
H50   H     H_    0.666313 0.390219 0.109766 0.306112
O18   O     O_3   0.670081 0.327198 0.893467 -0.674976
H51   H     H_    0.685093 0.282365 0.855909 0.329028
O19   O     O_3   0.216014 0.631690 0.773346 -0.617009
C62   C     C_3   0.247690 0.750921 0.765430 0.030290
H52   H     H_    0.334186 0.797104 0.732708 0.209647
H53   H     H_    0.267222 0.779476 0.833291 0.138943
C63   C     C_3   0.151043 0.787873 0.706188 -0.401168
H54   H     H_    0.123294 0.751411 0.641642 0.239450
H55   H     H_    0.068986 0.755149 0.743310 0.206197
C64   C     C_3   0.199658 0.918209 0.683605 -0.791479
H56   H     H_    0.226527 0.956626 0.747642 0.254610
H57   H     H_    0.127604 0.942088 0.641576 0.268632
H58   H     H_    0.279883 0.953593 0.644048 0.264999
O20   O     O_3   0.335149 0.670880 0.106076 -0.732567
H59   H     H_    0.323815 0.712833 0.148243 0.327899
O21   O     O_3   0.065503 0.896317 0.449671 -0.573027
C65   C     C_3   0.016716 0.967005 0.387402 0.082343
H60   H     H_    0.921292 0.911768 0.364056 0.197880
H61   H     H_    0.063561 0.006428 0.323657 0.114130
C66   C     C_3   0.011798 0.056155 0.435601 -0.350648
H62   H     H_    0.943699 0.011582 0.486268 0.240287
H63   H     H_    0.101157 0.102492 0.473825 0.228631
C67   C     C_3   0.975987 0.142759 0.366602 -0.887603
H64   H     H_    0.043312 0.188458 0.315393 0.246177
H65   H     H_    0.974418 0.207005 0.402689 0.276874
H66   H     H_    0.883887 0.098834 0.330751 0.260097

loop_
_geom_bond_atom_site_label_1
_geom_bond_atom_site_label_2
_ccdc_geom_bond_type
C16   C28   A    
C7    C13   A    
C21   C26   A    
C40   N1    A    
C30   O14   S    
C67   H65   S    
C47   H14   S    
C47   H13   S    
C19   C20   A    
C16   O10   S    
C50   C51   S    
Cu2   O8    S    
C51   H22   S    
C1    O1    A    
Cu1   O1    S    
C58   H39   S    
C52   H24   S    
C7    C8    A    
C57   H38   S    
C45   C46   A    
C2    C46   A    
C3    O17   S    
C23   O5    A    
C36   C37   A    
C19   C21   A    
C48   H16   S    
O20   H59   S    
C65   H61   S    
C8    H11   S    
C5    C6    A    
C12   O3    A    
C63   C64   S    
C20   C25   A    
C39   H9    S    
C9    O20   S    
C33   C36   A    
C56   H35   S    
C17   C18   A    
C18   C19   A    
C23   O6    A    
O15   C59   S    
Cu1   N1    S    
C15   C27   A    
C50   H20   S    
Cu1   Cu2   S    
C16   C17   A    
C40   H8    S    
C1    C28   S    
O14   C56   S    
C48   C49   S    
O9    H12   S    
C14   C27   A    
C57   C58   S    
Cu1   O5    S    
C15   C23   S    
C21   C22   A    
C25   H5    S    
C67   H66   S    
C13   O19   S    
C64   H58   S    
C62   C63   S    
C1    O2    A    
C17   H4    S    
C53   H29   S    
C53   H28   S    
C59   H43   S    
C24   H2    S    
C38   C39   A    
C63   H55   S    
O19   C62   S    
C24   C25   A    
C55   H33   S    
C65   C66   S    
C34   O7    A    
Cu1   O3    S    
C49   H18   S    
C27   O21   S    
C15   C26   A    
C20   C28   A    
C3    C45   A    
C54   C55   S    
C35   C39   A    
C43   C44   A    
C37   C38   A    
C29   O13   S    
O18   H51   S    
C52   H25   S    
O11   C50   S    
C66   C67   S    
C36   C40   A    
C11   C12   S    
O13   C53   S    
C38   O12   S    
C54   H31   S    
C18   O11   S    
C8    C9    A    
C35   N2    A    
C48   H15   S    
C59   H42   S    
C34   O8    A    
C62   H53   S    
C66   H63   S    
C51   H23   S    
C61   H46   S    
Cu2   O4    S    
C47   C48   S    
C22   C24   A    
C30   N2    A    
C42   C43   A    
C60   H45   S    
C3    C4    A    
Cu1   O7    S    
C67   H64   S    
C53   C54   S    
C44   C45   A    
C52   H26   S    
O16   H49   S    
C59   C60   S    
C6    C46   A    
C57   H37   S    
C29   C41   A    
C31   C32   A    
C34   C43   S    
C41   N1    A    
C32   O15   S    
O10   C47   S    
Cu2   O2    S    
C49   H19   S    
C58   H40   S    
C63   H54   S    
C6    C7    A    
C12   O4    A    
C56   C57   S    
C32   C33   A    
C14   C22   A    
C60   C61   S    
C5    C10   A    
C31   O16   S    
C65   H60   S    
C11   C13   A    
C44   H7    S    
Cu2   N2    S    
C30   C31   A    
C2    C42   A    
C61   H48   S    
C26   O9    S    
C54   H30   S    
C33   C35   A    
C56   H36   S    
C55   H34   S    
C64   H57   S    
O21   C65   S    
Cu2   O6    S    
O12   H27   S    
C41   H6    S    
C58   H41   S    
C10   C11   A    
C42   H1    S    
C49   H17   S    
C4    C5    A    
C66   H62   S    
C14   H3    S    
C51   C52   S    
C29   C37   A    
C55   H32   S    
C61   H47   S    
C64   H56   S    
C50   H21   S    
C10   H10   S    
C60   H44   S    
C2    C9    A    
C62   H52   S    
O17   H50   S    
C4    O18   S    
