data_mof_unit_32903.cif
_audit_creation_date              2012-12-10T17:53:17-0500
_audit_creation_method            fapswitch 2.2
_symmetry_space_group_name_H-M    P1
_symmetry_Int_Tables_number       1
_space_group_crystal_system       triclinic
_cell_length_a                    23.35336
_cell_length_b                    10.730603
_cell_length_c                    9.894219
_cell_angle_alpha                 88.883138
_cell_angle_beta                  90.165262
_cell_angle_gamma                 91.913762
_cell_volume                      2477.58814024

loop_
_atom_site_label
_atom_site_type_symbol
_atom_type_description
_atom_site_fract_x
_atom_site_fract_y
_atom_site_fract_z
_atom_type_partial_charge
C1    C     C_R   0.503241 0.259786 0.502447 0.858133
C2    C     C_R   0.968179 0.339082 0.364600 -0.174697
C3    C     C_R   0.027680 0.337447 0.368203 -0.172494
C4    C     C_R   0.059313 0.436095 0.426308 0.005804
C5    C     C_R   0.030792 0.538443 0.478169 -0.021517
C6    C     C_R   0.062293 0.639836 0.532428 -0.097585
C7    C     C_R   0.033674 0.744355 0.576412 -0.245063
C8    C     C_R   0.974044 0.748253 0.568404 0.526720
C9    C     C_R   0.118988 0.435570 0.433758 0.512709
C10   C     C_R   0.121998 0.635167 0.537572 0.540648
C11   C     C_R   0.241994 0.596292 0.398519 -0.198448
C12   C     C_R   0.389539 0.502091 0.499699 0.861294
C13   C     C_R   0.301395 0.591147 0.400720 0.464030
C14   C     C_R   0.327820 0.514249 0.498603 -0.142033
C15   C     C_R   0.294779 0.449954 0.596994 -0.306192
C16   C     C_R   0.235617 0.458263 0.595658 -0.100974
C17   C     C_R   0.209392 0.530516 0.495816 0.254337
C18   C     C_R   0.762463 0.420370 0.549678 -0.073189
C19   C     C_R   0.703045 0.413080 0.551810 -0.273763
C20   C     C_R   0.672009 0.512578 0.500738 -0.122845
C21   C     C_R   0.700074 0.621730 0.450838 0.435978
C22   C     C_R   0.759684 0.627323 0.446318 -0.183427
C23   C     C_R   0.495010 0.739028 0.498970 0.892536
C24   C     C_R   0.791022 0.526331 0.494168 0.227581
C25   C     C_R   0.500021 0.103444 0.762466 -0.245672
C26   C     C_R   0.476371 0.038737 0.873472 -0.178039
C27   C     C_R   0.446018 0.926032 0.857481 0.575215
C28   C     C_R   0.445149 0.873158 0.727416 -0.272306
C29   C     C_R   0.475026 0.932585 0.618232 0.075119
C30   C     C_R   0.493945 0.056364 0.630336 0.104361
C31   C     C_R   0.505863 0.125755 0.508889 -0.101193
C32   C     C_R   0.511740 0.065356 0.386021 -0.212154
C33   C     C_R   0.505362 0.938301 0.381745 -0.218521
C34   C     C_R   0.610299 0.502552 0.500265 0.941562
C35   C     C_R   0.488304 0.871364 0.497827 -0.104172
C36   C     C_R   0.422891 0.339876 0.142708 -0.145842
C37   C     C_R   0.384463 0.262367 0.073508 -0.184294
C38   C     C_R   0.384561 0.262477 0.933653 -0.189340
C39   C     C_R   0.423300 0.339593 0.862239 -0.183783
C40   C     C_R   0.462026 0.421186 0.928880 0.118829
C41   C     C_R   0.461941 0.421323 0.073580 0.165383
C42   C     C_R   0.536470 0.574534 0.070911 -0.178430
C43   C     C_R   0.536932 0.574529 0.928000 -0.010559
C44   C     C_R   0.882149 0.630000 0.542347 0.513748
C45   C     C_R   0.879564 0.438397 0.423016 0.510357
C46   C     C_R   0.939290 0.437854 0.421061 0.021999
C47   C     C_R   0.970631 0.538795 0.476652 -0.072588
C48   C     C_R   0.941956 0.640189 0.529897 -0.160175
H1    H     H_    0.944756 0.262288 0.319121 0.194875
H2    H     H_    0.681239 0.329873 0.592384 0.166585
H3    H     H_    0.781719 0.710857 0.407689 0.154507
H4    H     H_    0.522172 0.116033 0.293016 0.175919
H5    H     H_    0.524707 0.187435 0.784072 0.197972
H6    H     H_    0.480388 0.078654 0.972933 0.163639
H7    H     H_    0.421031 0.787594 0.708812 0.134619
H8    H     H_    0.514456 0.892645 0.287811 0.171477
H9    H     H_    0.565944 0.635215 0.124505 0.129426
H10   H     H_    0.048718 0.258769 0.325767 0.189883
H11   H     H_    0.420853 0.332478 0.249942 0.206573
H12   H     H_    0.354800 0.200955 0.128887 0.166573
H13   H     H_    0.355154 0.200818 0.880004 0.160491
H14   H     H_    0.422160 0.331332 0.755279 0.212243
H15   H     H_    0.057477 0.825892 0.611610 0.208765
H16   H     H_    0.221075 0.651420 0.321185 0.151512
H17   H     H_    0.314646 0.391287 0.672818 0.168882
H18   H     H_    0.210003 0.407142 0.670551 0.151528
H19   H     H_    0.786378 0.343214 0.589915 0.167536
N1    N     N_R   0.852251 0.531589 0.486732 -0.343342
N2    N     N_R   0.148670 0.533565 0.489855 -0.346685
N3    N     N_R   0.499460 0.498800 0.142780 -0.126190
N4    N     N_R   0.499440 0.498720 0.857170 -0.174096
O1    O     O_R   0.500000 0.316780 0.614690 -0.654835
O2    O     O_2   0.848941 0.346453 0.361990 -0.574008
O3    O     O_2   0.147314 0.338369 0.385314 -0.558390
O4    O     O_2   0.153257 0.730727 0.590000 -0.567287
O5    O     O_R   0.500000 0.316750 0.385360 -0.639273
O6    O     O_R   0.416160 0.499970 0.614690 -0.662015
O7    O     O_R   0.416150 0.499950 0.385360 -0.602200
O8    O     O_R   0.500000 0.683250 0.614640 -0.590728
O9    O     O_R   0.500000 0.683220 0.385310 -0.642213
O10   O     O_R   0.583850 0.500050 0.614640 -0.580367
O11   O     O_R   0.583840 0.500030 0.385310 -0.626605
O12   O     O_2   0.854186 0.715685 0.612511 -0.518393
Zn1   Zn    Zn3+2 0.500000 0.500020 0.653130 0.950981
Zn2   Zn    Zn3+2 0.500000 0.499980 0.346870 0.938183
O13   O     O_3   0.669850 0.728303 0.424851 -0.639377
C49   C     C_3   0.657880 0.740802 0.285240 0.086139
H20   H     H_    0.611758 0.761198 0.275856 0.173666
H21   H     H_    0.665228 0.655177 0.225863 0.133640
C50   C     C_3   0.692525 0.851528 0.224476 -0.369901
H22   H     H_    0.684821 0.936294 0.283751 0.247854
H23   H     H_    0.738928 0.832414 0.229246 0.219840
C51   C     C_3   0.675682 0.875982 0.077417 -0.884424
H24   H     H_    0.684344 0.793396 0.015717 0.280033
H25   H     H_    0.701177 0.957205 0.036284 0.274715
H26   H     H_    0.629473 0.896802 0.069930 0.266316
O14   O     O_3   0.417644 0.877036 0.971722 -0.672871
C52   C     C_3   0.403253 0.748139 0.967679 0.075174
H27   H     H_    0.408477 0.709335 0.071645 0.194715
H28   H     H_    0.432532 0.694490 0.904705 0.142429
C53   C     C_3   0.340428 0.728091 0.926324 -0.344364
H29   H     H_    0.312681 0.775006 0.999381 0.241598
H30   H     H_    0.332986 0.769918 0.824507 0.214409
C54   C     C_3   0.323454 0.589765 0.924314 -0.876693
H31   H     H_    0.349539 0.542432 0.848629 0.269924
H32   H     H_    0.277567 0.578051 0.896107 0.268847
H33   H     H_    0.330050 0.545765 0.025496 0.290777
C55   C     C_2   0.579073 0.656930 0.858044 0.964134
O15   O     O_2   0.567045 0.763956 0.828315 -0.633357
O16   O     O_R   0.634060 0.614956 0.834318 -0.793937
H34   H     H_    0.659522 0.680150 0.786463 0.351202
O17   O     O_3   0.948618 0.860316 0.593949 -0.600304
C56   C     C_3   0.928395 0.913390 0.470815 0.159156
H35   H     H_    0.895732 0.982105 0.496142 0.183254
H36   H     H_    0.905987 0.843733 0.405444 0.128582
C57   C     C_3   0.976661 0.982149 0.391382 -0.432788
H37   H     H_    0.989251 0.069356 0.444051 0.234917
H38   H     H_    0.014939 0.924030 0.385418 0.235934
C58   C     C_3   0.957574 0.012769 0.247112 -0.918347
H39   H     H_    0.951240 0.925531 0.189496 0.275723
H40   H     H_    0.990981 0.072322 0.195624 0.270751
H41   H     H_    0.916684 0.062688 0.247256 0.272081
O18   O     O_3   0.332677 0.656480 0.302329 -0.652215
C59   C     C_3   0.356736 0.767730 0.356507 0.099755
H42   H     H_    0.397475 0.789230 0.302132 0.186012
H43   H     H_    0.367865 0.759386 0.466046 0.089844
C60   C     C_3   0.316922 0.876613 0.332936 -0.349498
H44   H     H_    0.305427 0.883298 0.224050 0.234786
H45   H     H_    0.276984 0.860174 0.392293 0.231367
C61   C     C_3   0.345535 0.999788 0.375530 -0.928007
H46   H     H_    0.357705 0.995280 0.484110 0.262928
H47   H     H_    0.315330 0.076539 0.359999 0.269744
H48   H     H_    0.384422 0.020833 0.313730 0.273249

loop_
_geom_bond_atom_site_label_1
_geom_bond_atom_site_label_2
_ccdc_geom_bond_type
C44   C48   A    
C49   H20   S    
C17   N2    S    
C51   H24   S    
C40   N4    A    
C54   H31   S    
C19   C20   A    
C1    C31   S    
C44   O12   S    
O9    Zn2   S    
C54   H32   S    
O14   C52   S    
O18   C59   S    
C45   C46   A    
C57   H37   S    
C5    C47   A    
C26   C27   A    
C29   C30   A    
C18   C24   A    
C28   C29   A    
C9    N2    A    
N4    Zn1   S    
C8    O17   S    
C30   C31   A    
C13   O18   S    
C22   H3    S    
C15   C16   A    
C15   H17   S    
C42   N3    A    
C55   O15   D    
C45   O2    S    
C18   C19   A    
O16   H34   S    
C32   H4    S    
C46   C47   A    
C11   C17   A    
C47   C48   A    
C55   O16   S    
C16   C17   A    
C12   O7    A    
C34   O10   A    
C23   O9    A    
C56   C57   S    
C20   C34   S    
C36   H11   S    
C33   H8    S    
C51   H25   S    
C21   C22   A    
O8    Zn1   S    
C36   C41   A    
C60   H45   S    
C26   H6    S    
C42   H9    S    
O17   C56   S    
C28   H7    S    
C58   H40   S    
C38   C39   A    
C1    O1    A    
C53   H29   S    
C7    C8    A    
C11   H16   S    
C39   C40   A    
O13   C49   S    
O6    Zn1   S    
C18   H19   S    
C2    C46   A    
C61   H47   S    
C8    C48   A    
C37   C38   A    
C2    H1    S    
C10   O4    S    
C50   H23   S    
C31   C32   A    
C12   O6    A    
C45   N1    A    
C7    H15   S    
O1    Zn1   S    
C59   C60   S    
O7    Zn2   S    
C40   C41   A    
C12   C14   S    
C53   C54   S    
C23   C35   S    
C49   H21   S    
C22   C24   A    
C44   N1    A    
C61   H48   S    
C16   H18   S    
C42   C43   A    
C3    C4    A    
C52   C53   S    
O10   Zn1   S    
C50   C51   S    
C59   H43   S    
C56   H35   S    
C53   H30   S    
C58   H41   S    
C25   C30   A    
C39   H14   S    
C21   O13   S    
C27   O14   S    
C43   N4    A    
C1    O5    A    
C25   H5    S    
C4    C5    A    
C6    C10   A    
C58   H39   S    
C6    C7    A    
C51   H26   S    
O11   Zn2   S    
C29   C35   A    
C52   H28   S    
C57   C58   S    
C32   C33   A    
C38   H13   S    
C61   H46   S    
C25   C26   A    
C60   C61   S    
C11   C13   A    
C19   H2    S    
C50   H22   S    
C5    C6    A    
C33   C35   A    
C57   H38   S    
C2    C3    A    
C43   C55   S    
C37   H12   S    
C24   N1    S    
C3    H10   S    
C10   N2    A    
C20   C21   A    
C36   C37   A    
C52   H27   S    
C9    O3    S    
C49   C50   S    
C27   C28   A    
C14   C15   A    
C59   H42   S    
C34   O11   A    
C23   O8    A    
C4    C9    A    
C13   C14   A    
N3    Zn2   S    
O5    Zn2   S    
C54   H33   S    
C60   H44   S    
C41   N3    A    
C56   H36   S    
