data_mof_unit_61560.cif
_audit_creation_date              2013-03-05T16:15:33-0500
_audit_creation_method            fapswitch 2.2
_symmetry_space_group_name_H-M    P1
_symmetry_Int_Tables_number       1
_space_group_crystal_system       monoclinic
_cell_length_a                    39.044326
_cell_length_b                    39.044334
_cell_length_c                    29.38175
_cell_angle_alpha                 89.99997
_cell_angle_beta                  90.0
_cell_angle_gamma                 90.0
_cell_volume                      44791.2939418

loop_
_atom_site_label
_atom_site_type_symbol
_atom_site_description
_atom_site_fract_x
_atom_site_fract_y
_atom_site_fract_z
_atom_type_partial_charge
O1    O     O_R   0.549910 0.028900 0.500020 -0.576198
O2    O     O_R   0.971100 0.549910 0.500020 -0.576202
O3    O     O_R   0.450090 0.971100 0.500020 -0.576202
O4    O     O_R   0.028900 0.450090 0.500020 -0.576202
O5    O     O_R   0.450090 0.028900 0.499980 -0.576202
O6    O     O_R   0.028900 0.549910 0.499980 -0.576203
O7    O     O_R   0.549910 0.971100 0.499980 -0.576197
O8    O     O_R   0.971100 0.450090 0.499980 -0.576202
O9    O     O_R   0.049910 0.528900 0.000020 -0.576203
O10   O     O_R   0.471100 0.049910 0.000020 -0.576202
O11   O     O_R   0.950090 0.471100 0.000020 -0.576202
O12   O     O_R   0.528900 0.950090 0.000020 -0.576203
O13   O     O_R   0.950090 0.528900 0.999980 -0.576202
O14   O     O_R   0.528900 0.049910 0.999980 -0.576203
O15   O     O_R   0.049910 0.471100 0.999980 -0.576202
O16   O     O_R   0.471100 0.950090 0.999980 -0.576202
C1    C     C_R   0.566169 0.000000 0.500000 0.792495
C2    C     C_R   1.000000 0.566169 0.500000 0.792502
C3    C     C_R   0.433831 0.000000 0.500000 0.792503
C4    C     C_R   0.000000 0.433831 0.500000 0.792503
C5    C     C_R   0.066169 0.500000 0.000000 0.792502
C6    C     C_R   0.500000 0.066169 0.000000 0.792502
C7    C     C_R   0.933831 0.500000 1.000000 0.792503
C8    C     C_R   0.500000 0.933831 1.000000 0.792503
O17   O     O_R   0.500010 0.028900 0.561980 -0.557875
O18   O     O_R   0.971100 0.500010 0.561980 -0.557875
O19   O     O_R   0.499990 0.971100 0.561980 -0.557877
O20   O     O_R   0.028900 0.499990 0.561980 -0.557876
O21   O     O_R   0.499990 0.028900 0.438020 -0.557878
O22   O     O_R   0.028900 0.500010 0.438020 -0.557876
O23   O     O_R   0.500010 0.971100 0.438020 -0.557874
O24   O     O_R   0.971100 0.499990 0.438020 -0.557875
O25   O     O_R   0.000010 0.528900 0.061980 -0.557876
O26   O     O_R   0.471100 0.000010 0.061980 -0.557875
O27   O     O_R   0.999990 0.471100 0.061980 -0.557875
O28   O     O_R   0.528900 0.999990 0.061980 -0.557877
O29   O     O_R   0.999990 0.528900 0.938020 -0.557876
O30   O     O_R   0.528900 0.000010 0.938020 -0.557876
O31   O     O_R   0.000010 0.471100 0.938020 -0.557875
O32   O     O_R   0.471100 0.999990 0.938020 -0.557875
C9    C     C_R   0.500000 0.000000 0.584696 0.802072
C10   C     C_R   0.000000 0.500000 0.584696 0.802075
C11   C     C_R   0.500000 0.000000 0.415304 0.802073
C12   C     C_R   1.000000 0.500000 0.415304 0.802076
C13   C     C_R   1.000000 0.500000 0.084696 0.802075
C14   C     C_R   0.500000 0.000000 0.084696 0.802075
C15   C     C_R   0.000000 0.500000 0.915304 0.802076
C16   C     C_R   0.500000 1.000000 0.915304 0.802076
Cu1   Cu    Cu3+1 0.500000 0.034220 0.500000 1.001699
Cu2   Cu    Cu3+1 0.965780 0.500000 0.500000 1.001697
Cu3   Cu    Cu3+1 0.500000 0.965780 0.500000 1.001700
Cu4   Cu    Cu3+1 0.034220 0.500000 0.500000 1.001696
Cu5   Cu    Cu3+1 0.000000 0.534220 0.000000 1.001696
Cu6   Cu    Cu3+1 0.465780 0.000000 0.000000 1.001696
Cu7   Cu    Cu3+1 1.000000 0.465780 0.000000 1.001696
Cu8   Cu    Cu3+1 0.534220 0.000000 0.000000 1.001694
C17   C     C_1   0.500000 1.000000 0.635946 -0.162516
C18   C     C_1   0.000000 0.500000 0.635946 -0.162515
C19   C     C_1   0.500000 0.000000 0.364054 -0.162516
C20   C     C_1   1.000000 0.500000 0.364054 -0.162515
C21   C     C_1   1.000000 0.500000 0.135946 -0.162515
C22   C     C_1   0.500000 0.000000 0.135946 -0.162515
C23   C     C_1   0.000000 0.500000 0.864054 -0.162515
C24   C     C_1   0.500000 0.000000 0.864054 -0.162515
C25   C     C_1   0.500000 1.000000 0.678407 0.028658
C26   C     C_1   0.000000 0.500000 0.678407 0.028659
C27   C     C_1   0.500000 0.000000 0.321593 0.028658
C28   C     C_1   1.000000 0.500000 0.321593 0.028659
C29   C     C_1   1.000000 0.500000 0.178407 0.028659
C30   C     C_1   0.500000 0.000000 0.178407 0.028659
C31   C     C_1   0.000000 0.500000 0.821593 0.028659
C32   C     C_1   0.500000 1.000000 0.821593 0.028659
C33   C     C_1   0.500000 1.000000 0.728770 0.031919
C34   C     C_1   0.000000 0.500000 0.728770 0.031920
C35   C     C_1   0.500000 0.000000 0.271230 0.031919
C36   C     C_1   0.000000 0.500000 0.271230 0.031920
C37   C     C_1   1.000000 0.500000 0.228770 0.031920
C38   C     C_1   0.500000 0.000000 0.228770 0.031919
C39   C     C_1   0.000000 0.500000 0.771230 0.031920
C40   C     C_1   0.500000 1.000000 0.771230 0.031919
C41   C     C_R   0.877398 0.010644 0.461289 -0.178828
C42   C     C_R   0.989345 0.877399 0.461294 -0.178829
C43   C     C_R   0.122601 0.989345 0.461294 -0.178828
C44   C     C_R   0.010655 0.122601 0.461294 -0.178828
C45   C     C_R   0.122601 0.010655 0.538706 -0.178828
C46   C     C_R   0.010655 0.877399 0.538706 -0.178828
C47   C     C_R   0.877398 0.989356 0.538711 -0.178828
C48   C     C_R   0.989345 0.122601 0.538706 -0.178828
C49   C     C_R   0.377399 0.510655 0.961294 -0.178829
C50   C     C_R   0.489345 0.377399 0.961294 -0.178829
C51   C     C_R   0.622601 0.489345 0.961294 -0.178829
C52   C     C_R   0.510655 0.622601 0.961294 -0.178828
C53   C     C_R   0.622601 0.510655 0.038706 -0.178829
C54   C     C_R   0.510655 0.377399 0.038706 -0.178829
C55   C     C_R   0.377399 0.489345 0.038706 -0.178829
C56   C     C_R   0.489345 0.622601 0.038706 -0.178829
H1    H     H_    0.890883 0.019233 0.431158 0.156178
H2    H     H_    0.980747 0.890883 0.431168 0.156173
H3    H     H_    0.109117 0.980747 0.431168 0.156173
H4    H     H_    0.019253 0.109117 0.431168 0.156173
H5    H     H_    0.109117 0.019252 0.568832 0.156173
H6    H     H_    0.019253 0.890883 0.568832 0.156173
H7    H     H_    0.890883 0.980767 0.568841 0.156178
H8    H     H_    0.980747 0.109117 0.568832 0.156173
H9    H     H_    0.390883 0.519253 0.931168 0.156173
H10   H     H_    0.480747 0.390883 0.931168 0.156173
H11   H     H_    0.609117 0.480747 0.931168 0.156173
H12   H     H_    0.519253 0.609117 0.931168 0.156173
H13   H     H_    0.609117 0.519253 0.068831 0.156173
H14   H     H_    0.519253 0.390883 0.068832 0.156173
H15   H     H_    0.390883 0.480747 0.068832 0.156173
H16   H     H_    0.480747 0.609117 0.068831 0.156174
C57   C     C_R   0.841682 0.010976 0.461427 -0.142796
C58   C     C_R   0.989013 0.841682 0.461433 -0.142793
C59   C     C_R   0.158318 0.989013 0.461433 -0.142793
C60   C     C_R   0.010987 0.158318 0.461433 -0.142793
C61   C     C_R   0.158318 0.010987 0.538567 -0.142793
C62   C     C_R   0.010987 0.841682 0.538567 -0.142793
C63   C     C_R   0.841682 0.989024 0.538572 -0.142796
C64   C     C_R   0.989013 0.158318 0.538567 -0.142793
C65   C     C_R   0.341682 0.510987 0.961433 -0.142792
C66   C     C_R   0.489013 0.341682 0.961433 -0.142793
C67   C     C_R   0.658318 0.489013 0.961433 -0.142792
C68   C     C_R   0.510987 0.658318 0.961433 -0.142793
C69   C     C_R   0.658318 0.510987 0.038567 -0.142792
C70   C     C_R   0.510987 0.341682 0.038567 -0.142793
C71   C     C_R   0.341682 0.489013 0.038567 -0.142792
C72   C     C_R   0.489013 0.658318 0.038567 -0.142793
H17   H     H_    0.828451 0.020248 0.431488 0.144777
H18   H     H_    0.979732 0.828452 0.431499 0.144777
H19   H     H_    0.171548 0.979732 0.431498 0.144776
H20   H     H_    0.020268 0.171548 0.431498 0.144776
H21   H     H_    0.171548 0.020268 0.568501 0.144776
H22   H     H_    0.020268 0.828451 0.568501 0.144776
H23   H     H_    0.828451 0.979752 0.568512 0.144777
H24   H     H_    0.979732 0.171548 0.568501 0.144777
H25   H     H_    0.328451 0.520268 0.931498 0.144776
H26   H     H_    0.479732 0.328452 0.931499 0.144777
H27   H     H_    0.671548 0.479732 0.931499 0.144776
H28   H     H_    0.520268 0.671548 0.931499 0.144776
H29   H     H_    0.671548 0.520268 0.068501 0.144776
H30   H     H_    0.520268 0.328451 0.068501 0.144776
H31   H     H_    0.328451 0.479732 0.068501 0.144776
H32   H     H_    0.479732 0.671548 0.068501 0.144777
C73   C     C_R   0.823377 0.000000 0.500000 0.146509
C74   C     C_R   1.000000 0.823377 0.500000 0.146509
C75   C     C_R   0.176623 0.000000 0.500000 0.146508
C76   C     C_R   1.000000 0.176623 0.500000 0.146509
C77   C     C_R   0.323377 0.500000 0.000000 0.146508
C78   C     C_R   0.500000 0.323377 0.000000 0.146508
C79   C     C_R   0.676623 0.500000 1.000000 0.146508
C80   C     C_R   0.500000 0.676623 1.000000 0.146509
C81   C     C_R   0.895490 0.000000 0.500000 -0.048075
C82   C     C_R   1.000000 0.895490 0.500000 -0.048069
C83   C     C_R   0.104510 0.000000 0.500000 -0.048070
C84   C     C_R   1.000000 0.104510 0.500000 -0.048069
C85   C     C_R   0.395490 0.500000 0.000000 -0.048069
C86   C     C_R   0.500000 0.395490 0.000000 -0.048069
C87   C     C_R   0.604510 0.500000 1.000000 -0.048070
C88   C     C_R   0.500000 0.604510 1.000000 -0.048069
C89   C     C_R   0.767190 0.008302 0.539624 -0.220271
C90   C     C_R   0.991712 0.767190 0.539629 -0.220269
C91   C     C_R   0.232810 0.991711 0.539629 -0.220270
C92   C     C_R   0.008288 0.232810 0.539629 -0.220271
C93   C     C_R   0.232810 0.008288 0.460371 -0.220270
C94   C     C_R   0.008288 0.767190 0.460371 -0.220270
C95   C     C_R   0.767190 0.991698 0.460376 -0.220271
C96   C     C_R   0.991712 0.232810 0.460371 -0.220270
C97   C     C_R   0.267190 0.508288 0.039629 -0.220270
C98   C     C_R   0.491712 0.267190 0.039629 -0.220270
C99   C     C_R   0.732810 0.491712 0.039629 -0.220270
C100  C     C_R   0.508288 0.732810 0.039629 -0.220270
C101  C     C_R   0.732810 0.508288 0.960371 -0.220270
C102  C     C_R   0.508288 0.267190 0.960371 -0.220270
C103  C     C_R   0.267190 0.491712 0.960371 -0.220270
C104  C     C_R   0.491712 0.732810 0.960371 -0.220270
H33   H     H_    0.780950 0.015683 0.570073 0.182121
H34   H     H_    0.984342 0.780950 0.570083 0.182118
H35   H     H_    0.219050 0.984341 0.570082 0.182118
H36   H     H_    0.015659 0.219050 0.570083 0.182119
H37   H     H_    0.219050 0.015659 0.429917 0.182118
H38   H     H_    0.015658 0.780950 0.429917 0.182118
H39   H     H_    0.780950 0.984317 0.429927 0.182121
H40   H     H_    0.984341 0.219050 0.429917 0.182118
H41   H     H_    0.280950 0.515659 0.070083 0.182118
H42   H     H_    0.484342 0.280950 0.070083 0.182118
H43   H     H_    0.719050 0.484342 0.070083 0.182118
H44   H     H_    0.515658 0.719050 0.070083 0.182119
H45   H     H_    0.719050 0.515658 0.929917 0.182118
H46   H     H_    0.515658 0.280950 0.929917 0.182119
H47   H     H_    0.280950 0.484341 0.929917 0.182118
H48   H     H_    0.484342 0.719050 0.929917 0.182118
C105  C     C_R   0.731327 0.008448 0.540244 0.312061
C106  C     C_R   0.991566 0.731327 0.540249 0.312062
C107  C     C_R   0.268673 0.991566 0.540249 0.312062
C108  C     C_R   0.008434 0.268673 0.540249 0.312062
C109  C     C_R   0.268673 0.008434 0.459751 0.312062
C110  C     C_R   0.008434 0.731327 0.459751 0.312062
C111  C     C_R   0.731326 0.991552 0.459756 0.312061
C112  C     C_R   0.991566 0.268673 0.459751 0.312062
C113  C     C_R   0.231327 0.508434 0.040249 0.312063
C114  C     C_R   0.491566 0.231327 0.040249 0.312062
C115  C     C_R   0.768673 0.491566 0.040249 0.312063
C116  C     C_R   0.508434 0.768673 0.040249 0.312062
C117  C     C_R   0.768673 0.508434 0.959751 0.312062
C118  C     C_R   0.508434 0.231327 0.959751 0.312062
C119  C     C_R   0.231327 0.491566 0.959751 0.312063
C120  C     C_R   0.491566 0.768673 0.959751 0.312062
C121  C     C_R   0.713191 0.000000 0.500000 -0.185272
C122  C     C_R   0.000000 0.713191 0.500000 -0.185269
C123  C     C_R   0.286808 0.000000 0.500000 -0.185270
C124  C     C_R   1.000000 0.286808 0.500000 -0.185270
C125  C     C_R   0.213192 0.500000 0.000000 -0.185270
C126  C     C_R   0.500000 0.213192 0.000000 -0.185270
C127  C     C_R   0.786808 0.500000 1.000000 -0.185270
C128  C     C_R   0.500000 0.786808 1.000000 -0.185270
C129  C     C_R   0.785374 0.000000 0.500000 -0.029192
C130  C     C_R   0.000000 0.785374 0.500000 -0.029190
C131  C     C_R   0.214626 0.000000 0.500000 -0.029191
C132  C     C_R   1.000000 0.214626 0.500000 -0.029191
C133  C     C_R   0.285374 0.500000 0.000000 -0.029191
C134  C     C_R   0.500000 0.285374 0.000000 -0.029191
C135  C     C_R   0.714626 0.500000 1.000000 -0.029191
C136  C     C_R   0.500000 0.714626 1.000000 -0.029191
C137  C     C_R   0.657644 0.028204 0.482695 -0.050638
C138  C     C_R   0.971792 0.657644 0.482707 -0.050641
C139  C     C_R   0.342356 0.971792 0.482707 -0.050642
C140  C     C_R   0.028208 0.342356 0.482707 -0.050642
C141  C     C_R   0.342356 0.028208 0.517293 -0.050642
C142  C     C_R   0.028208 0.657644 0.517293 -0.050641
C143  C     C_R   0.657644 0.971796 0.517305 -0.050638
C144  C     C_R   0.971792 0.342356 0.517293 -0.050641
C145  C     C_R   0.157644 0.528208 0.982707 -0.050641
C146  C     C_R   0.471792 0.157644 0.982707 -0.050641
C147  C     C_R   0.842356 0.471792 0.982707 -0.050642
C148  C     C_R   0.528208 0.842356 0.982707 -0.050642
C149  C     C_R   0.842356 0.528208 0.017293 -0.050641
C150  C     C_R   0.528208 0.157644 0.017293 -0.050642
C151  C     C_R   0.157644 0.471792 0.017293 -0.050641
C152  C     C_R   0.471792 0.842356 0.017292 -0.050641
H49   H     H_    0.671359 0.050100 0.469263 0.139992
H50   H     H_    0.949893 0.671359 0.469284 0.139992
H51   H     H_    0.328641 0.949893 0.469284 0.139992
H52   H     H_    0.050107 0.328641 0.469284 0.139992
H53   H     H_    0.328641 0.050107 0.530716 0.139992
H54   H     H_    0.050107 0.671359 0.530716 0.139992
H55   H     H_    0.671359 0.949900 0.530737 0.139992
H56   H     H_    0.949893 0.328641 0.530716 0.139992
H57   H     H_    0.171359 0.550107 0.969284 0.139992
H58   H     H_    0.449893 0.171359 0.969284 0.139992
H59   H     H_    0.828641 0.449893 0.969284 0.139992
H60   H     H_    0.550107 0.828640 0.969284 0.139992
H61   H     H_    0.828641 0.550107 0.030716 0.139992
H62   H     H_    0.550107 0.171359 0.030716 0.139992
H63   H     H_    0.171359 0.449893 0.030716 0.139992
H64   H     H_    0.449893 0.828640 0.030716 0.139992
C153  C     C_R   0.621924 0.028366 0.483123 -0.161786
C154  C     C_R   0.971630 0.621924 0.483135 -0.161786
C155  C     C_R   0.378076 0.971630 0.483135 -0.161786
C156  C     C_R   0.028370 0.378076 0.483135 -0.161785
C157  C     C_R   0.378076 0.028370 0.516865 -0.161786
C158  C     C_R   0.028370 0.621924 0.516865 -0.161786
C159  C     C_R   0.621924 0.971634 0.516877 -0.161785
C160  C     C_R   0.971630 0.378076 0.516865 -0.161786
C161  C     C_R   0.121924 0.528370 0.983135 -0.161786
C162  C     C_R   0.471630 0.121924 0.983135 -0.161786
C163  C     C_R   0.878076 0.471630 0.983135 -0.161786
C164  C     C_R   0.528370 0.878076 0.983135 -0.161786
C165  C     C_R   0.878076 0.528370 0.016865 -0.161786
C166  C     C_R   0.528370 0.121924 0.016865 -0.161787
C167  C     C_R   0.121924 0.471630 0.016865 -0.161786
C168  C     C_R   0.471630 0.878076 0.016865 -0.161786
H65   H     H_    0.608481 0.050440 0.469738 0.157109
H66   H     H_    0.949552 0.608481 0.469759 0.157117
H67   H     H_    0.391519 0.949553 0.469759 0.157117
H68   H     H_    0.050448 0.391519 0.469759 0.157117
H69   H     H_    0.391519 0.050447 0.530241 0.157117
H70   H     H_    0.050448 0.608481 0.530241 0.157117
H71   H     H_    0.608481 0.949559 0.530262 0.157109
H72   H     H_    0.949552 0.391519 0.530241 0.157117
H73   H     H_    0.108481 0.550447 0.969759 0.157117
H74   H     H_    0.449552 0.108481 0.969759 0.157117
H75   H     H_    0.891519 0.449552 0.969759 0.157117
H76   H     H_    0.550448 0.891519 0.969759 0.157117
H77   H     H_    0.891519 0.550448 0.030241 0.157117
H78   H     H_    0.550448 0.108481 0.030241 0.157117
H79   H     H_    0.108481 0.449552 0.030241 0.157117
H80   H     H_    0.449552 0.891519 0.030241 0.157117
C169  C     C_R   0.603802 0.000000 0.500000 -0.041823
C170  C     C_R   0.000000 0.603802 0.500000 -0.041832
C171  C     C_R   0.396198 0.000000 0.500000 -0.041831
C172  C     C_R   0.000000 0.396198 0.500000 -0.041832
C173  C     C_R   0.103802 0.500000 0.000000 -0.041831
C174  C     C_R   0.500000 0.103802 0.000000 -0.041831
C175  C     C_R   0.896198 0.500000 1.000000 -0.041831
C176  C     C_R   0.500000 0.896198 1.000000 -0.041832
C177  C     C_R   0.675562 0.000000 0.500000 0.203566
C178  C     C_R   1.000000 0.675562 0.500000 0.203567
C179  C     C_R   0.324438 0.000000 0.500000 0.203568
C180  C     C_R   0.000000 0.324438 0.500000 0.203568
C181  C     C_R   0.175562 0.500000 0.000000 0.203568
C182  C     C_R   0.500000 0.175562 0.000000 0.203568
C183  C     C_R   0.824438 0.500000 1.000000 0.203568
C184  C     C_R   0.500000 0.824438 1.000000 0.203568
O33   O     O_R   0.000000 0.950030 0.535800 -0.584833
O34   O     O_R   0.049970 0.000000 0.535800 -0.584834
O35   O     O_R   0.000000 0.049970 0.535800 -0.584834
O36   O     O_R   0.950030 0.000000 0.535800 -0.584837
O37   O     O_R   1.000000 0.950030 0.464200 -0.584835
O38   O     O_R   0.950030 0.000000 0.464200 -0.584838
O39   O     O_R   0.000000 0.049970 0.464200 -0.584834
O40   O     O_R   0.049970 0.000000 0.464200 -0.584834
O41   O     O_R   0.500000 0.450030 0.035800 -0.584834
O42   O     O_R   0.549970 0.500000 0.035800 -0.584834
O43   O     O_R   0.500000 0.549970 0.035800 -0.584834
O44   O     O_R   0.450030 0.500000 0.035800 -0.584834
O45   O     O_R   0.500000 0.450030 0.964200 -0.584834
O46   O     O_R   0.450030 0.500000 0.964200 -0.584834
O47   O     O_R   0.500000 0.549970 0.964200 -0.584834
O48   O     O_R   0.549970 0.500000 0.964200 -0.584834
C185  C     C_R   0.000000 0.933096 0.500000 0.818732
C186  C     C_R   0.066904 0.000000 0.500000 0.818731
C187  C     C_R   1.000000 0.066904 0.500000 0.818732
C188  C     C_R   0.933096 0.000000 0.500000 0.818735
C189  C     C_R   0.500000 0.433096 0.000000 0.818731
C190  C     C_R   0.566904 0.500000 1.000000 0.818731
C191  C     C_R   0.500000 0.566904 1.000000 0.818731
C192  C     C_R   0.433096 0.500000 0.000000 0.818731
Cu9   Cu    Cu3+1 0.000000 0.000000 0.542480 0.970921
Cu10  Cu    Cu3+1 0.000000 0.000000 0.457520 0.970920
Cu11  Cu    Cu3+1 0.500000 0.500000 0.042480 0.970923
Cu12  Cu    Cu3+1 0.500000 0.500000 0.957520 0.970922
N1    N     N_R   0.713959 0.017370 0.581899 0.133074
O49   O     O_R   0.685685 0.034998 0.581241 -0.339731
O50   O     O_R   0.728326 0.011046 0.620978 -0.334471
N2    N     N_R   0.982659 0.713960 0.581909 0.133072
O51   O     O_R   0.965029 0.685686 0.581262 -0.339730
O52   O     O_R   0.988998 0.728325 0.620985 -0.334472
N3    N     N_R   0.286040 0.982659 0.581909 0.133071
O53   O     O_R   0.314314 0.965028 0.581261 -0.339730
O54   O     O_R   0.271675 0.988997 0.620984 -0.334471
N4    N     N_R   0.017341 0.286040 0.581909 0.133071
O55   O     O_R   0.034971 0.314314 0.581262 -0.339730
O56   O     O_R   0.011002 0.271675 0.620984 -0.334472
N5    N     N_R   0.286040 0.017341 0.418091 0.133071
O57   O     O_R   0.314314 0.034972 0.418738 -0.339730
O58   O     O_R   0.271675 0.011003 0.379016 -0.334471
N6    N     N_R   0.017341 0.713960 0.418091 0.133072
O59   O     O_R   0.034971 0.685686 0.418738 -0.339730
O60   O     O_R   0.011002 0.728325 0.379015 -0.334471
N7    N     N_R   0.713959 0.982630 0.418101 0.133074
O61   O     O_R   0.685685 0.965002 0.418759 -0.339731
O62   O     O_R   0.728326 0.988954 0.379022 -0.334471
N8    N     N_R   0.982659 0.286040 0.418091 0.133072
O63   O     O_R   0.965029 0.314314 0.418738 -0.339730
O64   O     O_R   0.988998 0.271675 0.379015 -0.334472
N9    N     N_R   0.213960 0.517341 0.081909 0.133071
O65   O     O_R   0.185686 0.534971 0.081262 -0.339730
O66   O     O_R   0.228325 0.511003 0.120984 -0.334471
N10   N     N_R   0.482659 0.213960 0.081909 0.133072
O67   O     O_R   0.465029 0.185686 0.081262 -0.339731
O68   O     O_R   0.488998 0.228325 0.120985 -0.334472
N11   N     N_R   0.786040 0.482659 0.081909 0.133071
O69   O     O_R   0.814314 0.465029 0.081262 -0.339730
O70   O     O_R   0.771675 0.488998 0.120985 -0.334471
N12   N     N_R   0.517341 0.786040 0.081909 0.133072
O71   O     O_R   0.534971 0.814314 0.081262 -0.339730
O72   O     O_R   0.511002 0.771675 0.120985 -0.334471
N13   N     N_R   0.786040 0.517341 0.918091 0.133071
O73   O     O_R   0.814314 0.534971 0.918738 -0.339730
O74   O     O_R   0.771675 0.511002 0.879015 -0.334471
N14   N     N_R   0.517341 0.213960 0.918091 0.133071
O75   O     O_R   0.534971 0.185686 0.918738 -0.339730
O76   O     O_R   0.511002 0.228325 0.879015 -0.334471
N15   N     N_R   0.213960 0.482659 0.918091 0.133071
O77   O     O_R   0.185686 0.465029 0.918738 -0.339730
O78   O     O_R   0.228325 0.488997 0.879015 -0.334471
N16   N     N_R   0.482659 0.786040 0.918091 0.133072
O79   O     O_R   0.465029 0.814314 0.918738 -0.339731
O80   O     O_R   0.488998 0.771675 0.879015 -0.334472

loop_
_geom_bond_atom_site_label_1
_geom_bond_atom_site_label_2
_geom_bond_distance
_ccdc_geom_bond_type
N9    O65   1.301086 A    
C89   C129  1.401628 A    
O25   C13   1.310991 A    
O37   Cu10  1.960897 S    
C102  C134  1.401627 A    
C103  C119  1.400392 A    
C61   H21   1.082469 S    
C10   C18   1.505835 S    
C90   C130  1.401629 A    
C161  H73   1.083048 S    
C83   C186  1.468281 S    
N1    O49   1.301087 A    
O33   C185  1.242415 A    
C150  H62   1.083241 S    
C115  C127  1.417146 A    
O18   Cu2   1.832888 S    
N14   O75   1.301085 A    
C22   C30   1.247561 T    
C160  C172  1.404684 A    
C53   C87   1.401903 A    
C48   H8    1.083221 S    
Cu1   Cu3   2.672190 S    
Cu2   Cu4   2.672190 S    
C47   C81   1.401909 A    
C115  N11   1.441887 S    
O48   C190  1.242414 A    
O36   C188  1.242414 A    
C142  H54   1.083243 S    
C118  C126  1.417145 A    
N15   O78   1.301541 A    
C58   H18   1.082468 S    
O5    Cu1   1.959745 S    
C166  H78   1.083047 S    
C44   H4    1.083222 S    
C51   H11   1.083221 S    
C111  N7    1.441893 S    
O17   C9    1.310991 A    
C143  C177  1.400221 A    
N4    O55   1.301088 A    
C87   C190  1.468281 S    
C111  C121  1.417157 A    
C4    C172  1.469371 S    
C94   C110  1.400396 A    
C109  C123  1.417147 A    
O39   C187  1.242412 A    
C140  H52   1.083240 S    
C113  N9    1.441887 S    
O48   Cu12  1.960893 S    
O46   C192  1.242414 A    
C71   H31   1.082472 S    
C114  C126  1.417147 A    
C45   C61   1.394608 A    
C72   H32   1.082469 S    
C58   C74   1.406726 A    
C47   H7    1.083224 S    
C14   C22   1.505835 S    
C64   C76   1.406728 A    
C88   C191  1.468282 S    
C34   C39   1.247570 T    
C151  H63   1.083242 S    
C105  N1    1.441893 S    
C89   H33   1.082637 S    
O27   C13   1.310995 A    
O8    Cu2   1.959745 S    
O31   C15   1.310995 A    
O32   C16   1.310995 A    
C143  H55   1.083240 S    
N2    O51   1.301085 A    
C99   C135  1.401629 A    
N15   O77   1.301086 A    
C49   C85   1.401905 A    
C101  C117  1.400392 A    
O44   Cu11  1.960896 S    
C162  C174  1.404687 A    
C52   C88   1.401902 A    
C104  C120  1.400392 A    
C46   C82   1.401905 A    
C44   C84   1.401902 A    
O9    C5    1.294696 A    
O11   C7    1.294700 A    
N6    O59   1.301085 A    
C65   C77   1.406727 A    
O16   Cu6   1.959745 S    
C165  C175  1.404683 A    
O7    Cu3   1.959741 S    
C74   C130  1.483794 S    
C102  C118  1.400396 A    
O41   C189  1.242415 A    
N16   O79   1.301083 A    
C118  N14   1.441888 S    
C119  N15   1.441887 S    
C91   C131  1.401630 A    
C156  C172  1.404681 A    
C142  C178  1.400211 A    
C108  C124  1.417146 A    
C154  H66   1.083049 S    
C29   C37   1.479750 S    
N7    O61   1.301087 A    
C94   H38   1.082632 S    
C31   C39   1.479750 S    
C153  C169  1.404684 A    
O21   Cu1   1.832891 S    
C2    C170  1.469371 S    
O23   C11   1.310995 A    
C45   C83   1.401902 A    
C138  H50   1.083240 S    
C166  C174  1.404683 A    
O47   Cu12  1.960893 S    
C26   C34   1.479750 S    
C67   H27   1.082471 S    
C41   C81   1.401910 A    
O13   C7    1.294696 A    
C150  C166  1.394738 A    
C65   H25   1.082472 S    
C69   C79   1.406725 A    
C19   C27   1.247561 T    
O38   Cu10  1.960896 S    
O39   Cu10  1.960893 S    
C52   H12   1.083223 S    
C69   H29   1.082471 S    
O7    C1    1.294700 A    
O28   C14   1.310992 A    
O26   C14   1.310995 A    
O29   C15   1.310992 A    
O30   C16   1.310992 A    
C62   H22   1.082469 S    
C11   C19   1.505835 S    
C141  H53   1.083240 S    
C162  H74   1.083047 S    
C44   C60   1.394609 A    
C51   C67   1.394608 A    
C159  C169  1.404686 A    
C148  H60   1.083240 S    
N10   O67   1.301083 A    
C8    C176  1.469371 S    
O19   Cu3   1.832889 S    
O42   Cu11  1.960892 S    
C53   C69   1.394608 A    
C147  C163  1.394738 A    
C152  H64   1.083241 S    
C98   C114  1.400393 A    
C42   H2    1.083220 S    
C138  C178  1.400215 A    
C43   C59   1.394608 A    
C5    C173  1.469371 S    
O36   Cu9   1.960896 S    
O34   Cu9   1.960892 S    
C97   C113  1.400392 A    
C144  H56   1.083242 S    
O15   Cu7   1.959741 S    
C164  C176  1.404683 A    
C47   C63   1.394608 A    
C106  C122  1.417147 A    
C60   H20   1.082470 S    
C161  C173  1.404682 A    
C103  C133  1.401632 A    
C89   C105  1.400396 A    
C163  C175  1.404687 A    
O34   C186  1.242414 A    
C117  C127  1.417148 A    
C152  C184  1.400216 A    
O47   C191  1.242412 A    
O32   Cu6   1.832891 S    
C91   H35   1.082630 S    
O33   Cu9   1.960897 S    
C27   C35   1.479750 S    
C46   H6    1.083221 S    
O43   Cu11  1.960893 S    
O18   C10   1.310995 A    
O45   C189  1.242414 A    
C143  C159  1.394738 A    
C104  C136  1.401631 A    
N3    O54   1.301539 A    
C55   C85   1.401903 A    
O35   Cu9   1.960893 S    
O23   Cu3   1.832891 S    
C125  C181  1.469218 S    
C92   C108  1.400396 A    
C141  C157  1.394738 A    
C28   C36   1.479750 S    
C127  C183  1.469218 S    
C116  C128  1.417145 A    
O1    C1    1.294696 A    
C128  C184  1.469219 S    
O6    Cu4   1.959742 S    
O14   C6    1.294696 A    
C32   C40   1.479750 S    
C71   C77   1.406726 A    
C70   C78   1.406727 A    
O40   C186  1.242414 A    
C79   C135  1.483790 S    
C110  C122  1.417145 A    
C90   H34   1.082635 S    
C93   C131  1.401631 A    
C145  C161  1.394738 A    
C156  H68   1.083048 S    
O30   Cu8   1.832891 S    
C54   C86   1.401905 A    
N8    O63   1.301083 A    
C49   H9    1.083221 S    
C95   C111  1.400396 A    
C3    C171  1.469371 S    
C95   C129  1.401631 A    
C110  N6    1.441889 S    
C149  C183  1.400213 A    
C53   H13   1.083221 S    
N13   O74   1.301540 A    
C142  C158  1.394738 A    
C140  C180  1.400213 A    
C106  N2    1.441890 S    
C138  C154  1.394738 A    
C145  H57   1.083242 S    
O10   C6    1.294699 A    
C48   C84   1.401906 A    
C149  H61   1.083241 S    
C52   C68   1.394609 A    
C15   C23   1.505835 S    
N4    O56   1.301540 A    
C16   C24   1.505835 S    
O38   C188  1.242414 A    
O44   C192  1.242414 A    
C54   C70   1.394609 A    
C137  H49   1.083240 S    
C59   C75   1.406730 A    
C56   C72   1.394609 A    
C57   C73   1.406728 A    
C100  C116  1.400396 A    
N12   O71   1.301085 A    
C167  C173  1.404685 A    
O22   Cu4   1.832891 S    
C151  C181  1.400214 A    
O31   Cu7   1.832891 S    
N11   O69   1.301086 A    
C155  H67   1.083046 S    
C48   C64   1.394609 A    
C144  C160  1.394738 A    
C51   C87   1.401906 A    
C92   H36   1.082628 S    
C144  C180  1.400215 A    
C154  C170  1.404685 A    
N1    O50   1.301543 A    
N9    O66   1.301541 A    
C43   H3    1.083223 S    
O21   C11   1.310992 A    
C78   C134  1.483790 S    
O22   C12   1.310992 A    
C147  C183  1.400217 A    
C7    C175  1.469371 S    
C148  C184  1.400212 A    
O13   Cu5   1.959745 S    
C150  C182  1.400212 A    
C67   C79   1.406728 A    
C66   H26   1.082468 S    
N2    O52   1.301543 A    
C60   C76   1.406727 A    
O3    Cu3   1.959745 S    
O42   C190  1.242414 A    
C146  H58   1.083241 S    
C70   H30   1.082469 S    
C63   H23   1.082472 S    
C64   H24   1.082469 S    
Cu11  Cu12  2.496276 S    
C122  C178  1.469219 S    
O28   Cu8   1.832888 S    
C93   C109  1.400392 A    
N3    O53   1.301088 A    
C163  H75   1.083047 S    
C85   C192  1.468281 S    
C98   H42   1.082632 S    
C140  C156  1.394738 A    
C146  C182  1.400216 A    
C46   C62   1.394609 A    
C112  C124  1.417146 A    
C76   C132  1.483790 S    
C50   H10   1.083220 S    
C81   C188  1.468293 S    
C168  C176  1.404685 A    
O4    Cu4   1.959745 S    
C80   C136  1.483794 S    
C139  C179  1.400217 A    
N16   O80   1.301543 A    
C6    C174  1.469371 S    
C84   C187  1.468282 S    
O11   Cu7   1.959745 S    
O12   C8    1.294696 A    
C96   C112  1.400392 A    
C68   H28   1.082470 S    
C17   C25   1.247561 T    
C124  C180  1.469219 S    
N7    O62   1.301543 A    
C167  H79   1.083048 S    
O5    C3    1.294696 A    
C151  C167  1.394738 A    
C63   C73   1.406726 A    
C61   C75   1.406726 A    
O41   Cu11  1.960897 S    
C9    C17   1.505835 S    
C103  H47   1.082632 S    
C49   C65   1.394608 A    
C12   C20   1.505835 S    
C159  H71   1.083050 S    
C157  C171  1.404683 A    
C13   C21   1.505835 S    
C41   H1    1.083224 S    
C54   H14   1.083219 S    
C99   C115  1.400392 A    
O17   Cu1   1.832888 S    
C104  H48   1.082631 S    
C145  C181  1.400212 A    
C137  C153  1.394738 A    
C55   C71   1.394608 A    
C73   C129  1.483786 S    
C20   C28   1.247561 T    
C41   C57   1.394608 A    
C148  C164  1.394738 A    
C149  C165  1.394738 A    
C126  C182  1.469219 S    
O14   Cu8   1.959742 S    
C30   C38   1.479750 S    
Cu9   Cu10  2.496276 S    
C147  H59   1.083241 S    
N10   O68   1.301542 A    
C137  C177  1.400219 A    
C59   H19   1.082469 S    
C56   H16   1.083219 S    
O8    C4    1.294699 A    
C57   H17   1.082472 S    
C164  H76   1.083049 S    
C100  C136  1.401629 A    
C165  H77   1.083047 S    
C139  H51   1.083240 S    
C146  C162  1.394738 A    
C158  H70   1.083049 S    
C119  C125  1.417149 A    
C25   C33   1.479750 S    
C116  N12   1.441889 S    
C101  H45   1.082632 S    
C66   C78   1.406728 A    
C97   C133  1.401628 A    
C18   C26   1.247561 T    
C95   H39   1.082637 S    
N14   O76   1.301542 A    
C96   H40   1.082632 S    
C50   C66   1.394609 A    
C91   C107  1.400392 A    
C108  N4    1.441889 S    
C94   C130  1.401626 A    
C121  C177  1.469215 S    
C139  C155  1.394738 A    
C43   C83   1.401905 A    
C92   C132  1.401629 A    
C68   C80   1.406725 A    
O16   C8    1.294699 A    
C98   C134  1.401629 A    
N11   O70   1.301540 A    
O46   Cu12  1.960896 S    
C77   C133  1.483790 S    
N6    O60   1.301542 A    
C72   C80   1.406726 A    
Cu5   Cu7   2.672190 S    
O45   Cu12  1.960897 S    
O25   Cu5   1.832888 S    
O6    C2    1.294696 A    
Cu6   Cu8   2.672190 S    
O40   Cu10  1.960893 S    
O27   Cu7   1.832889 S    
C62   C74   1.406725 A    
C36   C37   1.247570 T    
C42   C58   1.394609 A    
C96   C132  1.401630 A    
C158  C170  1.404682 A    
C50   C86   1.401906 A    
C107  C123  1.417145 A    
O19   C9    1.310995 A    
C105  C121  1.417153 A    
C155  C171  1.404687 A    
C113  C125  1.417146 A    
O3    C3    1.294700 A    
C90   C106  1.400393 A    
O24   C12   1.310995 A    
C157  H69   1.083046 S    
O35   C187  1.242417 A    
C107  N3    1.441887 S    
O24   Cu2   1.832891 S    
O12   Cu8   1.959745 S    
C117  N13   1.441887 S    
C114  N10   1.441889 S    
C56   C88   1.401907 A    
C102  H46   1.082629 S    
N8    O64   1.301541 A    
O2    Cu2   1.959742 S    
C109  N5    1.441887 S    
C45   H5    1.083223 S    
N13   O73   1.301086 A    
C21   C29   1.247561 T    
C23   C31   1.247561 T    
O2    C2    1.294699 A    
C112  N8    1.441891 S    
C123  C179  1.469218 S    
O26   Cu6   1.832888 S    
O4    C4    1.294696 A    
C168  H80   1.083047 S    
C153  H65   1.083050 S    
C99   H43   1.082632 S    
C93   H37   1.082630 S    
O37   C185  1.242414 A    
C152  C168  1.394738 A    
O29   Cu5   1.832891 S    
C55   H15   1.083221 S    
O20   Cu4   1.832888 S    
N5    O58   1.301539 A    
C1    C169  1.469363 S    
C97   H41   1.082632 S    
C100  H44   1.082630 S    
O20   C10   1.310992 A    
C160  H72   1.083048 S    
C33   C40   1.247570 T    
C141  C179  1.400213 A    
C24   C32   1.247561 T    
O10   Cu6   1.959742 S    
C35   C38   1.247570 T    
N12   O72   1.301543 A    
C75   C131  1.483790 S    
C42   C82   1.401906 A    
O15   C5    1.294700 A    
C86   C189  1.468282 S    
O9    Cu5   1.959741 S    
C120  C128  1.417147 A    
O43   C191  1.242417 A    
C120  N16   1.441890 S    
N5    O57   1.301088 A    
C82   C185  1.468282 S    
O1    Cu1   1.959741 S    
C101  C135  1.401630 A    
