data_mof_unit_38362.cif
_audit_creation_date              2012-10-26T19:02:59-0400
_audit_creation_method            fapswitch 2.2
_symmetry_space_group_name_H-M    P1
_symmetry_Int_Tables_number       1
_space_group_crystal_system       triclinic
_cell_length_a                    15.101425
_cell_length_b                    11.038793
_cell_length_c                    9.874857
_cell_angle_alpha                 111.496396
_cell_angle_beta                  98.529927
_cell_angle_gamma                 90.190977
_cell_volume                      1511.72624767

loop_
_atom_site_label
_atom_site_type_symbol
_atom_type_description
_atom_site_fract_x
_atom_site_fract_y
_atom_site_fract_z
_atom_type_partial_charge
C1    C     C_R   0.492806 0.254080 0.440485 0.587448
C2    C     C_2   0.487002 0.501139 0.921804 0.060657
C3    C     C_R   0.329389 0.500847 0.501401 0.572975
C4    C     C_R   0.670609 0.499321 0.498757 0.572758
C5    C     C_R   0.809277 0.595281 0.462798 -0.020162
C6    C     C_R   0.191160 0.408803 0.543466 -0.032269
C7    C     C_R   0.766853 0.498082 0.496188 -0.013213
C8    C     C_R   0.233245 0.503073 0.505002 -0.018832
C9    C     C_R   0.815807 0.401386 0.530096 -0.003383
C10   C     C_R   0.184168 0.599007 0.469560 -0.005313
C11   C     C_R   0.909099 0.401746 0.530230 -0.010772
C12   C     C_R   0.507154 0.745928 0.559526 0.585265
C13   C     C_R   0.091140 0.600135 0.472163 -0.011648
C14   C     C_R   0.953022 0.500617 0.500412 0.037144
C15   C     C_R   0.047271 0.502004 0.503236 0.037072
C16   C     C_R   0.903291 0.598341 0.468345 0.028397
C17   C     C_R   0.097160 0.405309 0.537121 0.026712
C18   C     C_R   0.959396 0.303177 0.555843 -0.134653
C19   C     C_R   0.041136 0.699609 0.448356 -0.135457
C20   C     C_2   0.753829 0.694432 0.426869 0.239329
C21   C     C_2   0.246848 0.313663 0.587089 0.222989
C22   C     C_2   0.769345 0.299514 0.564693 0.249281
C23   C     C_R   0.051268 0.304763 0.558832 -0.094316
C24   C     C_2   0.230149 0.698972 0.431240 0.239088
C25   C     C_2   0.624755 0.616722 0.940477 0.391122
C26   C     C_2   0.407265 0.329358 0.045167 0.403653
C27   C     C_R   0.949492 0.699358 0.447849 -0.091067
C28   C     C_2   0.488945 0.114429 0.407023 -0.088445
C29   C     C_2   0.510931 0.885594 0.593023 -0.079221
C30   C     C_2   0.501336 0.069663 0.516359 -0.117667
C31   C     C_2   0.498475 0.930371 0.483705 -0.126907
C32   C     C_2   0.501085 0.517621 0.083072 0.066664
Cu1   Cu    Cu3+1 0.515770 0.521810 0.644910 1.003478
Cu2   Cu    Cu3+1 0.484230 0.478190 0.355090 1.005959
H1    H     H_    0.701127 0.736928 0.490026 0.089736
H2    H     H_    0.513945 0.136013 0.631117 0.193921
H3    H     H_    0.523475 0.952207 0.707596 0.128840
H4    H     H_    0.476395 0.047819 0.292454 0.109237
H5    H     H_    0.426911 0.446475 0.851355 0.185998
H6    H     H_    0.545014 0.598916 0.160745 0.167333
H7    H     H_    0.651446 0.697169 0.917439 0.115318
H8    H     H_    0.352810 0.297113 0.086653 0.121683
H9    H     H_    0.299219 0.267522 0.525036 0.105913
H10   H     H_    0.797603 0.274608 0.658006 0.110032
H11   H     H_    0.200635 0.723093 0.337937 0.099659
H12   H     H_    0.928523 0.222140 0.572158 0.112774
H13   H     H_    0.072179 0.780601 0.432150 0.114046
H14   H     H_    0.085152 0.224144 0.575596 0.170450
H15   H     H_    0.916187 0.781141 0.433301 0.171284
H16   H     H_    0.485861 0.864022 0.368947 0.155097
N1    N     N_2   0.460520 0.445420 0.137370 -0.276407
N2    N     N_2   0.539480 0.554580 0.862630 -0.283596
O1    O     O_R   0.508410 0.332340 0.577400 -0.483787
O2    O     O_2   0.237986 0.291825 0.697107 -0.494375
O3    O     O_2   0.700394 0.240577 0.487017 -0.488695
O4    O     O_2   0.299974 0.757478 0.505980 -0.487056
O5    O     O_2   0.671720 0.574407 0.022849 -0.473115
O6    O     O_2   0.425863 0.259771 0.925853 -0.517928
O7    O     O_R   0.491590 0.667660 0.422600 -0.507710
O8    O     O_R   0.481780 0.295500 0.332650 -0.504602
O9    O     O_R   0.518220 0.704500 0.667350 -0.511614
O10   O     O_R   0.383570 0.518390 0.622380 -0.502072
O11   O     O_R   0.616430 0.481610 0.377620 -0.473158
O12   O     O_R   0.356940 0.481550 0.377630 -0.516874
O13   O     O_R   0.643060 0.518450 0.622370 -0.509239
O14   O     O_2   0.763239 0.724131 0.322123 -0.467758

loop_
_geom_bond_atom_site_label_1
_geom_bond_atom_site_label_2
_ccdc_geom_bond_type
C1    C28   S    
C5    C7    A    
C11   C18   A    
C22   O3    D    
C30   H2    S    
C12   C29   S    
C24   O4    D    
C19   C27   A    
C14   C15   A    
C28   H4    S    
C30   C31   S    
Cu1   O9    S    
C16   C27   A    
Cu2   O12   S    
Cu1   Cu2   S    
C25   N2    S    
Cu1   O13   S    
C32   N1    D    
C5    C20   S    
C21   H9    S    
C26   N1    S    
C6    C21   S    
Cu1   N2    S    
Cu2   O8    S    
C12   O9    A    
C9    C11   A    
C4    O11   A    
Cu2   N1    S    
C17   C23   A    
C2    N2    D    
C4    C7    S    
C24   H11   S    
C18   H12   S    
C2    C32   S    
C28   C30   D    
Cu2   O11   S    
C20   H1    S    
C14   C16   A    
C13   C15   A    
Cu1   O1    S    
C21   O2    D    
C1    O8    A    
C11   C14   A    
C19   H13   S    
C9    C22   S    
Cu2   O7    S    
C13   C19   A    
C31   H16   S    
C29   H3    S    
C18   C23   A    
C25   O5    D    
C7    C9    A    
C20   O14   D    
C32   H6    S    
C26   H8    S    
C29   C31   D    
C3    C8    S    
C3    O10   A    
C25   H7    S    
C15   C17   A    
C6    C17   A    
C1    O1    A    
C4    O13   A    
C5    C16   A    
C6    C8    A    
C23   H14   S    
C10   C24   S    
C3    O12   A    
C12   O7    A    
C2    H5    S    
C26   O6    D    
C8    C10   A    
C22   H10   S    
C27   H15   S    
Cu1   O10   S    
C10   C13   A    
