data_mof_unit_51943.cif
_audit_creation_date              2012-12-10T18:43:07-0500
_audit_creation_method            fapswitch 2.2
_symmetry_space_group_name_H-M    P1
_symmetry_Int_Tables_number       1
_space_group_crystal_system       triclinic
_cell_length_a                    10.712783
_cell_length_b                    9.912203
_cell_length_c                    10.801908
_cell_angle_alpha                 88.562161
_cell_angle_beta                  91.584881
_cell_angle_gamma                 88.064353
_cell_volume                      1145.54325769

loop_
_atom_site_label
_atom_site_type_symbol
_atom_type_description
_atom_site_fract_x
_atom_site_fract_y
_atom_site_fract_z
_atom_type_partial_charge
C1    C     C_R   0.260072 0.502338 0.503170 1.021173
C2    C     C_R   0.739543 0.498073 0.500150 1.050074
C3    C     C_R   0.495396 0.501223 0.263149 0.961748
C4    C     C_R   0.505048 0.498008 0.737157 0.947847
C5    C     C_2   0.483504 0.396072 0.938803 0.307248
C6    C     C_2   0.517727 0.397947 0.069887 0.325398
C7    C     C_2   0.533871 0.491151 0.867036 0.181288
C8    C     C_2   0.468266 0.499863 0.133655 0.136040
C9    C     C_R   0.069274 0.414946 0.589132 0.281252
C10   C     C_R   0.940236 0.415136 0.589584 0.319593
C11   C     C_R   0.871944 0.496172 0.501741 -0.369611
C12   C     C_R   0.127148 0.507898 0.511218 -0.402225
C13   C     C_R   0.929073 0.589369 0.424165 0.379526
C14   C     C_R   0.056698 0.604552 0.438914 0.410563
C15   C     C_R   0.575318 0.067390 0.581357 0.387352
C16   C     C_R   0.425173 0.078219 0.417888 0.390997
C17   C     C_R   0.576654 0.923331 0.580074 0.244267
C18   C     C_R   0.428341 0.934157 0.415408 0.219425
N1    N     N_R   0.500000 0.857200 0.500000 -0.193810
N2    N     N_R   0.500000 0.142810 0.500000 -0.182237
O1    O     O_R   0.316770 0.614620 0.499990 -0.582453
O2    O     O_R   0.683230 0.614620 0.500010 -0.585871
O3    O     O_R   0.316800 0.385290 0.500000 -0.585768
O4    O     O_R   0.683200 0.385290 0.500000 -0.571008
O5    O     O_R   0.500000 0.614630 0.319080 -0.547214
O6    O     O_R   0.500000 0.614630 0.680920 -0.565161
O7    O     O_R   0.500030 0.385300 0.319080 -0.606742
O8    O     O_R   0.499970 0.385300 0.680920 -0.580308
Zn1   Zn    Zn3+2 0.500000 0.653120 0.500000 1.081933
Zn2   Zn    Zn3+2 0.500000 0.346880 0.500000 1.074534
O9    O     O_3   0.394671 0.310480 0.889151 -0.619530
C19   C     C_3   0.315583 0.257217 0.979428 -0.134966
H1    H     H_    0.244132 0.196734 0.932430 0.242262
H2    H     H_    0.265332 0.338939 0.028511 0.193616
H3    H     H_    0.367264 0.187673 0.046065 0.150451
O10   O     O_3   0.628536 0.333380 0.113022 -0.583130
C20   C     C_3   0.615299 0.192531 0.117333 -0.201054
H4    H     H_    0.586629 0.152759 0.026487 0.134245
H5    H     H_    0.548064 0.163280 0.188524 0.203573
H6    H     H_    0.707008 0.143645 0.144370 0.190170
Cl1   Cl    Cl    0.644281 0.606195 0.923454 -0.453560
Cl2   Cl    Cl    0.349937 0.614142 0.072437 -0.498260
Cl3   Cl    Cl    0.156482 0.305335 0.693315 -0.521390
Cl4   Cl    Cl    0.866175 0.321404 0.705790 -0.462805
O11   O     O_3   0.862427 0.649353 0.323817 -0.555276
C21   C     C_3   0.836137 0.787723 0.342836 -0.105164
H7    H     H_    0.831301 0.814383 0.442132 0.150303
H8    H     H_    0.905641 0.849498 0.295290 0.182588
H9    H     H_    0.743384 0.815001 0.299277 0.180295
O12   O     O_3   0.111149 0.714357 0.384151 -0.519134
C22   C     C_3   0.106301 0.822716 0.467817 -0.162638
H10   H     H_    0.087437 0.917973 0.414127 0.152429
H11   H     H_    0.197327 0.830840 0.517803 0.198147
H12   H     H_    0.032183 0.816581 0.538194 0.129397
O13   O     O_3   0.657554 0.133329 0.657075 -0.526948
C23   C     C_3   0.620527 0.122391 0.781131 -0.038685
H13   H     H_    0.517834 0.113107 0.791370 0.151273
H14   H     H_    0.671242 0.036672 0.830117 0.198261
H15   H     H_    0.648609 0.214753 0.828518 0.197930
O14   O     O_3   0.357971 0.155171 0.328802 -0.586272
C24   C     C_3   0.228985 0.153888 0.352089 -0.192689
H16   H     H_    0.186371 0.253977 0.324091 0.179668
H17   H     H_    0.207253 0.135218 0.451385 0.161516
H18   H     H_    0.183706 0.078829 0.293002 0.194067
Cl5   Cl    Cl    0.686245 0.830192 0.674611 -0.510610
Cl6   Cl    Cl    0.349495 0.856439 0.293713 -0.465930

loop_
_geom_bond_atom_site_label_1
_geom_bond_atom_site_label_2
_ccdc_geom_bond_type
C2    O2    A    
C24   H18   S    
C4    O6    A    
O13   C23   S    
C19   H3    S    
C1    O1    A    
C20   H4    S    
O2    Zn1   S    
C18   Cl6   S    
C9    C10   A    
C17   Cl5   S    
O9    C19   S    
C23   H15   S    
C16   N2    A    
C22   H12   S    
C19   H1    S    
C24   H16   S    
O8    Zn2   S    
O12   C22   S    
C20   H5    S    
C15   O13   S    
N2    Zn2   S    
C13   C14   A    
O7    Zn2   S    
O5    Zn1   S    
C11   C13   A    
C21   H9    S    
C14   O12   S    
C1    C12   S    
C5    O9    S    
C4    C7    S    
C5    C6    S    
C2    C11   S    
C3    O7    A    
O10   C20   S    
C4    O8    A    
C6    O10   S    
C1    O3    A    
C20   H6    S    
C21   H8    S    
C23   H14   S    
C2    O4    A    
C15   N2    A    
C9    C12   A    
O4    Zn2   S    
C9    Cl3   S    
C10   C11   A    
C10   Cl4   S    
C22   H10   S    
N1    Zn1   S    
O3    Zn2   S    
O11   C21   S    
C3    O5    A    
C23   H13   S    
C13   O11   S    
O6    Zn1   S    
C16   C18   A    
C3    C8    S    
C16   O14   S    
C5    C7    D    
C21   H7    S    
C18   N1    A    
C6    C8    D    
C17   N1    A    
C15   C17   A    
C8    Cl2   S    
O1    Zn1   S    
C24   H17   S    
C7    Cl1   S    
C12   C14   A    
O14   C24   S    
C22   H11   S    
C19   H2    S    
