data_mof_unit_44973.cif
_audit_creation_date              2012-12-11T16:26:31-0500
_audit_creation_method            fapswitch 2.2
_symmetry_space_group_name_H-M    P1
_symmetry_Int_Tables_number       1
_space_group_crystal_system       triclinic
_cell_length_a                    14.032103
_cell_length_b                    14.03297
_cell_length_c                    31.793997
_cell_angle_alpha                 89.998763
_cell_angle_beta                  90.00035
_cell_angle_gamma                 120.000496
_cell_volume                      5421.83067733

loop_
_atom_site_label
_atom_site_type_symbol
_atom_type_description
_atom_site_fract_x
_atom_site_fract_y
_atom_site_fract_z
_atom_type_partial_charge
C1    C     C_R   0.568194 0.443944 0.810778 0.586125
C2    C     C_R   0.443958 0.568179 0.189223 0.585424
C3    C     C_R   0.431823 0.875779 0.310782 0.585023
C4    C     C_R   0.124259 0.556062 0.189213 0.585240
C5    C     C_1   0.006954 0.563303 0.018610 0.089554
C6    C     C_1   0.556541 0.993549 0.481320 0.089493
C7    C     C_1   0.437003 0.443111 0.018716 0.089636
C8    C     C_1   0.006434 0.562919 0.481324 0.089487
C9    C     C_1   0.556557 0.993727 0.018699 0.089583
C10   C     C_1   0.436935 0.443471 0.481334 0.089508
C11   C     C_1   0.562363 0.005214 0.518795 0.089804
C12   C     C_R   0.875770 0.431810 0.689226 0.585795
C13   C     C_1   0.995233 0.557407 0.981140 0.089895
C14   C     C_1   0.442809 0.437649 0.518804 0.089803
C15   C     C_1   0.562379 0.005363 0.981223 0.089890
C16   C     C_1   0.994768 0.557072 0.518795 0.089794
C17   C     C_1   0.442889 0.437245 0.981248 0.089851
C18   C     C_R   0.927661 0.468552 0.852659 0.000722
C19   C     C_R   0.540963 0.072441 0.647316 0.000302
C20   C     C_R   0.531562 0.458940 0.852714 0.000690
C21   C     C_R   0.927566 0.468509 0.647315 0.000242
C22   C     C_R   0.540955 0.072478 0.852692 0.000510
C23   C     C_R   0.556041 0.124233 0.810775 0.586003
C24   C     C_R   0.531464 0.459051 0.647320 0.000281
C25   C     C_R   0.468533 0.927536 0.352710 -0.000830
C26   C     C_R   0.072716 0.541126 0.147251 -0.000622
C27   C     C_R   0.458958 0.531493 0.352718 -0.000895
C28   C     C_R   0.468545 0.927627 0.147304 -0.000599
C29   C     C_R   0.072463 0.540991 0.352706 -0.000926
C30   C     C_R   0.458978 0.531476 0.147295 -0.000248
C31   C     C_R   0.985089 0.581857 0.863497 0.248707
C32   C     C_R   0.597058 0.015256 0.636436 0.248447
C33   C     C_R   0.418270 0.403108 0.863575 0.248572
C34   C     C_R   0.568184 0.443959 0.689226 0.585843
C35   C     C_R   0.984713 0.581787 0.636424 0.248441
C36   C     C_R   0.596971 0.015217 0.863577 0.248561
C37   C     C_R   0.418172 0.402921 0.636441 0.248492
C38   C     C_R   0.581758 0.983901 0.363709 0.248094
C39   C     C_R   0.016155 0.597779 0.136258 0.248045
C40   C     C_R   0.402106 0.418273 0.363713 0.248024
C41   C     C_R   0.581770 0.983996 0.136312 0.248340
C42   C     C_R   0.016200 0.597932 0.363714 0.248072
C43   C     C_R   0.402557 0.418221 0.136369 0.248322
C44   C     C_R   0.009672 0.613830 0.905988 0.295394
C45   C     C_R   0.875788 0.431818 0.810764 0.586085
C46   C     C_R   0.604503 0.990797 0.593934 0.295177
C47   C     C_R   0.386364 0.395559 0.906080 0.295336
C48   C     C_R   0.009154 0.613661 0.593923 0.295154
C49   C     C_R   0.604417 0.990786 0.906083 0.295314
C50   C     C_R   0.386270 0.395477 0.593943 0.295196
C51   C     C_R   0.613436 0.007869 0.406242 0.294798
C52   C     C_R   0.992294 0.605565 0.093716 0.294808
C53   C     C_R   0.394380 0.386594 0.406249 0.294734
C54   C     C_R   0.613449 0.008007 0.093780 0.294998
C55   C     C_R   0.992238 0.605624 0.406247 0.294718
C56   C     C_R   0.556044 0.124232 0.689226 0.585871
C57   C     C_R   0.394879 0.386419 0.093849 0.295038
C58   C     C_R   0.978398 0.532857 0.937138 -0.043247
C59   C     C_R   0.554623 0.021941 0.562809 -0.043513
C60   C     C_R   0.467397 0.444980 0.937234 -0.043235
C61   C     C_R   0.978043 0.532625 0.562810 -0.043533
C62   C     C_R   0.554636 0.022059 0.937204 -0.043352
C63   C     C_R   0.467292 0.445381 0.562818 -0.043497
C64   C     C_R   0.532288 0.977143 0.437285 -0.044263
C65   C     C_R   0.023384 0.555477 0.062651 -0.044117
C66   C     C_R   0.444764 0.467736 0.437298 -0.044292
C67   C     C_R   0.443953 0.568187 0.310783 0.585034
C68   C     C_R   0.532304 0.977346 0.062736 -0.044098
C69   C     C_R   0.022822 0.555073 0.437286 -0.044324
C70   C     C_R   0.444811 0.467499 0.062741 -0.043860
C71   C     C_R   0.930792 0.422540 0.926068 -0.112676
C72   C     C_R   0.491707 0.069295 0.573920 -0.112926
C73   C     C_R   0.577719 0.507579 0.926153 -0.112801
C74   C     C_R   0.930733 0.422364 0.573930 -0.112958
C75   C     C_R   0.491799 0.069497 0.926090 -0.112792
C76   C     C_R   0.577566 0.508338 0.573926 -0.112932
C77   C     C_R   0.422180 0.930800 0.426062 -0.113849
C78   C     C_R   0.431823 0.875791 0.189221 0.585159
C79   C     C_R   0.070033 0.491983 0.073858 -0.113739
C80   C     C_R   0.508501 0.577847 0.426083 -0.113896
C81   C     C_R   0.422204 0.931059 0.073958 -0.113612
C82   C     C_R   0.069033 0.491209 0.426054 -0.113870
C83   C     C_R   0.508089 0.577700 0.073889 -0.113540
C84   C     C_R   0.905763 0.389578 0.884504 0.202201
C85   C     C_R   0.483732 0.094216 0.615499 0.202001
C86   C     C_R   0.610604 0.515726 0.884567 0.202071
C87   C     C_R   0.905832 0.389492 0.615511 0.201982
C88   C     C_R   0.483801 0.094367 0.884507 0.202134
C89   C     C_R   0.124227 0.556041 0.310780 0.584981
C90   C     C_R   0.610465 0.516326 0.615506 0.202000
C91   C     C_R   0.389491 0.906376 0.384443 0.201219
C92   C     C_R   0.094312 0.483622 0.115486 0.201251
C93   C     C_R   0.516792 0.610537 0.384460 0.201182
C94   C     C_R   0.389514 0.906575 0.115575 0.201430
C95   C     C_R   0.093488 0.482992 0.384434 0.201160
C96   C     C_R   0.516378 0.610491 0.115496 0.201421
Cl1   Cl    Cl    0.026635 0.684361 0.824255 -0.332579
Cl2   Cl    Cl    0.684584 0.025045 0.175411 -0.331622
Cl3   Cl    Cl    0.975154 0.659722 0.324622 -0.331408
Cl4   Cl    Cl    0.341370 0.315548 0.175540 -0.331963
Cl5   Cl    Cl    0.926251 0.679735 0.079253 -0.350377
Cl6   Cl    Cl    0.753648 0.073595 0.420702 -0.350021
Cl7   Cl    Cl    0.321027 0.246146 0.079472 -0.350834
Cl8   Cl    Cl    0.926717 0.680288 0.420727 -0.349827
Cl9   Cl    Cl    0.753648 0.073676 0.079313 -0.350091
Cl10  Cl    Cl    0.319937 0.246396 0.420708 -0.350026
Cl11  Cl    Cl    0.678016 0.923983 0.579615 -0.351586
Cl12  Cl    Cl    0.658172 0.973781 0.675645 -0.332307
Cl13  Cl    Cl    0.076788 0.754192 0.920260 -0.352033
Cl14  Cl    Cl    0.245938 0.321936 0.579622 -0.351584
Cl15  Cl    Cl    0.677810 0.923858 0.920412 -0.351713
Cl16  Cl    Cl    0.075916 0.753980 0.579588 -0.351529
Cl17  Cl    Cl    0.246008 0.322487 0.920376 -0.352163
Cl18  Cl    Cl    0.158395 0.405005 0.124697 -0.450488
Cl19  Cl    Cl    0.246797 0.842636 0.375231 -0.448887
Cl20  Cl    Cl    0.594750 0.753220 0.124637 -0.450535
Cl21  Cl    Cl    0.157067 0.403895 0.375209 -0.448622
Cl22  Cl    Cl    0.246824 0.842881 0.124787 -0.448735
Cl23  Cl    Cl    0.315711 0.342435 0.824342 -0.332690
Cl24  Cl    Cl    0.595736 0.753213 0.375250 -0.449152
Cl25  Cl    Cl    0.406131 0.159443 0.624563 -0.452099
Cl26  Cl    Cl    0.840261 0.246724 0.875479 -0.452589
Cl27  Cl    Cl    0.753291 0.594021 0.624575 -0.451813
Cl28  Cl    Cl    0.406268 0.159658 0.875433 -0.452505
Cl29  Cl    Cl    0.840697 0.246671 0.624591 -0.451868
Cl30  Cl    Cl    0.753443 0.593004 0.875510 -0.453394
Cl31  Cl    Cl    0.026146 0.684403 0.675617 -0.332218
Cl32  Cl    Cl    0.658008 0.973650 0.824374 -0.332480
Cl33  Cl    Cl    0.315582 0.341758 0.675646 -0.332247
Cl34  Cl    Cl    0.684582 0.025042 0.324605 -0.331520
Cl35  Cl    Cl    0.974611 0.659053 0.175369 -0.331908
Cl36  Cl    Cl    0.340502 0.315466 0.324608 -0.331436
Cr1   Cr    Cr6+3 0.504240 0.249200 0.750000 1.234905
Cr2   Cr    Cr6+3 0.744960 0.495760 0.750000 1.234928
Cr3   Cr    Cr6+3 0.750800 0.255040 0.750000 1.234903
Cr4   Cr    Cr6+3 0.249200 0.504240 0.250000 1.234668
Cr5   Cr    Cr6+3 0.495760 0.744960 0.250000 1.234702
Cr6   Cr    Cr6+3 0.255040 0.750800 0.250000 1.234675
H1    H     H_    0.090505 0.450483 0.049724 0.189349
H2    H     H_    0.450597 0.090208 0.950272 0.189149
H3    H     H_    0.910148 0.360458 0.549754 0.189211
H4    H     H_    0.639626 0.548519 0.950356 0.189093
H5    H     H_    0.360214 0.910630 0.450184 0.189485
H6    H     H_    0.549487 0.639613 0.049726 0.189360
H7    H     H_    0.089093 0.449323 0.450171 0.189495
H8    H     H_    0.360260 0.910965 0.049837 0.189477
H9    H     H_    0.550248 0.639789 0.450209 0.189445
H10   H     H_    0.450433 0.089914 0.549736 0.189208
H11   H     H_    0.910077 0.360679 0.950271 0.189168
H12   H     H_    0.639453 0.549642 0.549742 0.189205
O1    O     O_R   0.480350 0.140770 0.796330 -0.428001
O2    O     O_R   0.140770 0.480350 0.203670 -0.427664
O3    O     O_R   0.519650 0.660420 0.296330 -0.427705
O4    O     O_R   0.339580 0.859230 0.203670 -0.427782
O5    O     O_R   0.514930 0.348530 0.793250 -0.449571
O6    O     O_R   0.833600 0.485070 0.706750 -0.449610
O7    O     O_R   0.651470 0.166400 0.793250 -0.449493
O8    O     O_R   0.514930 0.348530 0.706750 -0.449576
O9    O     O_R   0.833600 0.485070 0.793250 -0.449411
O10   O     O_R   0.651470 0.166400 0.706750 -0.449603
O11   O     O_R   0.348530 0.514930 0.293250 -0.449978
O12   O     O_R   0.660420 0.519650 0.703670 -0.427966
O13   O     O_R   0.485070 0.833600 0.206750 -0.449678
O14   O     O_R   0.166400 0.651470 0.293250 -0.449886
O15   O     O_R   0.348530 0.514930 0.206750 -0.449762
O16   O     O_R   0.485070 0.833600 0.293250 -0.449916
O17   O     O_R   0.166400 0.651470 0.206750 -0.449962
O18   O     O_3   0.666667 0.333333 0.750000 -0.350202
O19   O     O_3   0.333333 0.666667 0.250000 -0.350271
O20   O     O_R   0.859230 0.339580 0.796330 -0.428024
O21   O     O_R   0.480350 0.140770 0.703670 -0.427951
O22   O     O_R   0.660420 0.519650 0.796330 -0.427920
O23   O     O_R   0.859230 0.339580 0.703670 -0.427967
O24   O     O_R   0.140770 0.480350 0.296330 -0.427725
O25   O     O_R   0.519650 0.660420 0.203670 -0.427707
O26   O     O_R   0.339580 0.859230 0.296330 -0.427665

loop_
_geom_bond_atom_site_label_1
_geom_bond_atom_site_label_2
_ccdc_geom_bond_type
C19   C56   S    
C79   H1    S    
C21   C87   A    
Cr3   O7    S    
C29   C42   A    
C86   Cl30  S    
C64   C77   A    
C60   C73   A    
Cr1   O1    S    
C88   Cl28  S    
C45   O20   A    
C7    C70   S    
C29   C89   S    
C72   C85   A    
C95   Cl21  S    
C51   Cl6   S    
C8    C69   S    
C65   C79   A    
C68   C81   A    
C38   Cl34  S    
Cr5   O25   S    
C75   H2    S    
C38   C51   A    
C83   H6    S    
C42   C55   A    
C58   C71   A    
C54   C68   A    
C63   C76   A    
C19   C32   A    
C26   C92   A    
C23   O7    A    
C28   C41   A    
C50   Cl14  S    
C28   C94   A    
Cr1   O8    S    
C90   Cl27  S    
Cr3   O20   S    
C6    C64   S    
C1    O5    A    
C30   C96   A    
C69   C82   A    
C47   C60   A    
C53   Cl10  S    
C80   H9    S    
Cr2   O6    S    
C44   C58   A    
C7    C17   T    
C20   C86   A    
C18   C84   A    
Cr3   O18   S    
C85   Cl25  S    
Cr3   O10   S    
C93   Cl24  S    
C22   C88   A    
C57   C70   A    
C28   C78   S    
C89   O14   A    
C5    C13   T    
C59   C72   A    
C49   Cl15  S    
C44   Cl13  S    
Cr6   O4    S    
C39   C52   A    
C40   Cl36  S    
C78   O13   A    
C8    C16   T    
Cr2   O22   S    
Cr6   O19   S    
C50   C63   A    
C36   Cl32  S    
C89   O24   A    
C12   O6    A    
C11   C59   S    
C35   C48   A    
Cr5   O16   S    
Cr4   O2    S    
Cr4   O11   S    
C10   C66   S    
C57   Cl7   S    
Cr4   O24   S    
C52   Cl5   S    
C25   C91   A    
C31   C44   A    
C3    C25   S    
C43   Cl4   S    
C5    C65   S    
C10   C14   T    
Cr1   O18   S    
C6    C11   T    
Cr5   O13   S    
C78   O4    A    
C13   C58   S    
C34   O12   A    
C72   H10   S    
C73   H4    S    
C12   C21   S    
C24   C34   S    
Cr2   O12   S    
Cr6   O17   S    
C77   H5    S    
C70   C83   A    
C25   C38   A    
C67   O11   A    
C76   H12   S    
C27   C40   A    
C46   Cl11  S    
C24   C37   A    
Cr5   O3    S    
C4    O2    A    
C35   Cl31  S    
C53   C66   A    
C2    O15   A    
C79   C92   A    
C55   C69   A    
C20   C33   A    
C34   O8    A    
C48   Cl16  S    
C74   H3    S    
C33   Cl23  S    
C2    O25   A    
Cr6   O26   S    
C74   C87   A    
Cr2   O18   S    
C30   C43   A    
C27   C93   A    
C16   C61   S    
C62   C75   A    
C18   C45   S    
Cr3   O23   S    
C87   Cl29  S    
C82   H7    S    
C66   C80   A    
C29   C95   A    
C71   C84   A    
C47   Cl17  S    
C23   O1    A    
C77   C91   A    
C1    C20   S    
C82   C95   A    
C54   Cl9   S    
Cr1   O5    S    
C84   Cl26  S    
C32   C46   A    
Cr5   O19   S    
C32   Cl12  S    
C22   C23   S    
C51   C64   A    
C19   C85   A    
C24   C90   A    
C4    C26   S    
C40   C53   A    
C21   C35   A    
C61   C74   A    
C22   C36   A    
C1    O22   A    
C4    O17   A    
C2    C30   S    
C67   O3    A    
C45   O9    A    
C9    C15   T    
C9    C68   S    
C3    O26   A    
C56   O21   A    
C42   Cl3   S    
C36   C49   A    
C81   C94   A    
C94   Cl22  S    
C48   C61   A    
C71   H11   S    
C39   Cl35  S    
C33   C47   A    
C83   C96   A    
C55   Cl8   S    
C37   C50   A    
C15   C62   S    
C91   Cl19  S    
Cr2   O9    S    
C14   C63   S    
C31   Cl1   S    
C41   C54   A    
Cr1   O21   S    
C26   C39   A    
C73   C86   A    
C27   C67   S    
C43   C57   A    
C17   C60   S    
C75   C88   A    
Cr4   O19   S    
C46   C59   A    
C56   O10   A    
C81   H8    S    
Cr4   O15   S    
C41   Cl2   S    
C96   Cl20  S    
C49   C62   A    
Cr6   O14   S    
C18   C31   A    
C80   C93   A    
C92   Cl18  S    
C37   Cl33  S    
C52   C65   A    
C3    O16   A    
C76   C90   A    
C12   O23   A    
