data_mof_unit_38028.cif
_audit_creation_date              2013-03-05T15:44:32-0500
_audit_creation_method            fapswitch 2.2
_symmetry_space_group_name_H-M    P1
_symmetry_Int_Tables_number       1
_space_group_crystal_system       triclinic
_cell_length_a                    27.859225
_cell_length_b                    10.955329
_cell_length_c                    9.735371
_cell_angle_alpha                 88.323122
_cell_angle_beta                  90.401505
_cell_angle_gamma                 89.302249
_cell_volume                      2969.72984425

loop_
_atom_site_label
_atom_site_type_symbol
_atom_site_description
_atom_site_fract_x
_atom_site_fract_y
_atom_site_fract_z
_atom_type_partial_charge
O1    O     O_R   0.500010 0.321960 0.617040 -0.628591
O2    O     O_R   0.499990 0.321920 0.382900 -0.516581
C1    C     C_R   0.503957 0.264943 0.502893 0.891751
O3    O     O_R   0.430270 0.500040 0.617060 -0.622396
O4    O     O_R   0.430260 0.500000 0.382910 -0.552887
C2    C     C_R   0.407440 0.497719 0.499805 0.818306
Cu1   Cu    Cu3+1 0.500010 0.500020 0.638630 1.035733
Cu2   Cu    Cu3+1 0.499990 0.499980 0.361370 1.050838
O5    O     O_R   0.500010 0.678080 0.617100 -0.533862
O6    O     O_R   0.499990 0.678040 0.382960 -0.568247
O7    O     O_R   0.569740 0.500000 0.617090 -0.536431
O8    O     O_R   0.569730 0.499960 0.382940 -0.568228
C3    C     C_R   0.496822 0.733461 0.497603 0.840814
C4    C     C_R   0.592232 0.506021 0.499913 0.855313
C5    C     C_R   0.177001 0.407378 0.476054 0.542633
O9    O     O_2   0.201492 0.309379 0.431219 -0.528531
N1    N     N_R   0.201235 0.507057 0.521093 -0.452811
C6    C     C_R   0.176842 0.603710 0.575438 0.557132
C7    C     C_R   0.280728 0.528451 0.630825 -0.084532
C8    C     C_R   0.330637 0.525396 0.624270 -0.263277
C9    C     C_R   0.326147 0.471292 0.383979 0.330746
C10   C     C_R   0.276074 0.483058 0.389703 -0.149393
C11   C     C_R   0.252967 0.508566 0.513329 0.264998
C12   C     C_R   0.101143 0.503521 0.533841 -0.051448
C13   C     C_R   0.126683 0.405433 0.477850 -0.014610
C14   C     C_R   0.101609 0.307351 0.425041 -0.142980
C15   C     C_R   0.126546 0.601675 0.586875 -0.049065
C16   C     C_R   0.354197 0.497108 0.501499 -0.156169
H1    H     H_    0.254748 0.465653 0.299067 0.191903
H2    H     H_    0.120372 0.231667 0.379246 0.189933
C17   C     C_R   0.645134 0.512864 0.499560 -0.147783
C18   C     C_R   0.974392 0.399360 0.494990 0.013111
C19   C     C_R   0.974538 0.611130 0.570389 0.037232
C20   C     C_R   0.949161 0.506424 0.529822 0.062435
C21   C     C_R   0.948065 0.293162 0.470557 -0.234488
C22   C     C_R   0.897833 0.293366 0.468228 0.105417
C23   C     C_R   0.872363 0.405268 0.484945 -0.056023
C24   C     C_R   0.898267 0.510060 0.521184 -0.069757
C25   C     C_R   0.873348 0.619573 0.547759 -0.007541
C26   C     C_R   0.823049 0.621308 0.546534 0.546646
N2    N     N_R   0.798270 0.521196 0.506201 -0.440816
C27   C     C_R   0.822108 0.417884 0.466330 0.529286
C28   C     C_R   0.722168 0.424299 0.570024 -0.162107
C29   C     C_R   0.672374 0.415449 0.559340 0.324539
C30   C     C_R   0.669254 0.615511 0.441746 0.008132
C31   C     C_R   0.719724 0.616127 0.442129 -0.119580
C32   C     C_R   0.746385 0.522018 0.507849 0.246741
O10   O     O_2   0.797176 0.330346 0.403909 -0.548685
C33   C     C_R   0.025188 0.401465 0.486813 0.060533
C34   C     C_R   0.050303 0.503158 0.537200 0.042485
C35   C     C_R   0.024993 0.603486 0.592602 0.008878
C36   C     C_R   0.051817 0.305626 0.428380 -0.214896
H3    H     H_    0.742665 0.350282 0.618996 0.190944
H4    H     H_    0.966022 0.206250 0.459176 0.135907
H5    H     H_    0.035046 0.229434 0.380360 0.138514
O11   O     O_2   0.201027 0.702069 0.617340 -0.534173
C37   C     C_R   0.101674 0.691856 0.657298 -0.179335
H6    H     H_    0.350786 0.544623 0.716486 0.189637
H7    H     H_    0.263667 0.545851 0.728024 0.178241
H8    H     H_    0.121759 0.760714 0.710029 0.184397
C38   C     C_R   0.948959 0.722162 0.577647 -0.208932
C39   C     C_R   0.899130 0.725674 0.572192 -0.169971
O12   O     O_2   0.799208 0.721962 0.586736 -0.556810
C40   C     C_R   0.051570 0.688659 0.671178 0.073087
H9    H     H_    0.967120 0.808235 0.579137 0.140773
H10   H     H_    0.880938 0.812738 0.583379 0.176928
H11   H     H_    0.738309 0.690943 0.391367 0.174533
C41   C     C_2   0.520489 0.929049 0.410896 -0.207641
C42   C     C_2   0.490723 0.863711 0.489110 -0.339693
H12   H     H_    0.545368 0.883126 0.343685 0.182251
H13   H     H_    0.463081 0.906129 0.550551 0.153889
C43   C     C_2   0.518167 0.062576 0.402378 0.366724
C44   C     C_2   0.513850 0.131844 0.515965 -0.136294
C45   C     C_2   0.466651 0.451665 0.928200 0.193621
N3    N     N_2   0.499480 0.498660 0.846910 -0.069458
C46   C     C_2   0.462349 0.483121 0.076885 0.020584
N4    N     N_2   0.499460 0.498630 0.153040 -0.271145
H14   H     H_    0.427301 0.481699 0.123470 0.204541
H15   H     H_    0.532411 0.482015 0.109660 0.245850
N5    N     N_R   0.347114 0.422634 0.262877 0.111707
O13   O     O_R   0.330546 0.456564 0.142213 -0.396609
O14   O     O_R   0.374232 0.325256 0.273990 -0.379375
C47   C     C_3   0.643483 0.726226 0.378299 -0.385949
C48   C     C_3   0.649686 0.839152 0.467451 -0.392123
C49   C     C_3   0.652876 0.956670 0.379941 -0.719414
H16   H     H_    0.685591 0.954463 0.315364 0.250132
H17   H     H_    0.620935 0.968817 0.312169 0.266508
H18   H     H_    0.655180 0.035817 0.447997 0.293650
H19   H     H_    0.618817 0.846177 0.538707 0.224160
H20   H     H_    0.682838 0.831577 0.531583 0.260505
H21   H     H_    0.658385 0.743108 0.273809 0.222205
H22   H     H_    0.604615 0.710768 0.363370 0.194049
C50   C     C_3   0.030531 0.759126 0.790475 -0.401902
C51   C     C_3   0.006106 0.673555 0.895840 -0.322084
C52   C     C_3   0.988642 0.743020 0.020031 -0.831396
H23   H     H_    0.019322 0.786017 0.072781 0.254475
H24   H     H_    0.962120 0.814831 0.987325 0.255327
H25   H     H_    0.971131 0.678790 0.093865 0.247931
H26   H     H_    0.974782 0.628804 0.848614 0.233026
H27   H     H_    0.031994 0.601145 0.931527 0.224642
H28   H     H_    0.059673 0.806311 0.845910 0.197740
H29   H     H_    0.006069 0.834194 0.757031 0.188213
N6    N     N_R   0.522769 0.116196 0.266923 0.119985
O15   O     O_R   0.498443 0.070688 0.166544 -0.395560
O16   O     O_R   0.559455 0.184622 0.238315 -0.342030
C53   C     C_3   0.520609 0.079150 0.664020 -0.505248
C54   C     C_3   0.568239 0.116821 0.728539 -0.266084
C55   C     C_3   0.574646 0.063910 0.874374 -0.713273
H30   H     H_    0.546400 0.100188 0.941845 0.286774
H31   H     H_    0.572967 0.962616 0.875254 0.267897
H32   H     H_    0.610138 0.090540 0.915690 0.270018
H33   H     H_    0.597924 0.080552 0.665447 0.275154
H34   H     H_    0.570415 0.217674 0.732468 0.281556
H35   H     H_    0.490127 0.109583 0.727856 0.221288
H36   H     H_    0.521369 0.979123 0.673608 0.237999
C56   C     C_3   0.430758 0.359661 0.878642 -0.463890
C57   C     C_3   0.434880 0.238430 0.960730 -0.326379
C58   C     C_3   0.398187 0.146692 0.911678 -0.730567
H37   H     H_    0.361176 0.182312 0.927170 0.274188
H38   H     H_    0.403357 0.128557 0.801064 0.230190
H39   H     H_    0.402689 0.059391 0.971492 0.272978
H40   H     H_    0.471460 0.199834 0.947793 0.245346
H41   H     H_    0.429083 0.252813 0.071747 0.288411
H42   H     H_    0.393977 0.398541 0.889157 0.221696
H43   H     H_    0.436021 0.337819 0.770660 0.256069
N7    N     N_R   0.523599 0.599858 0.895108 0.220675
O17   O     O_R   0.569610 0.608111 0.876322 -0.340771
O18   O     O_R   0.499551 0.697108 0.928745 -0.350531
N8    N     N_R   0.650547 0.301544 0.595096 0.092075
O19   O     O_R   0.668668 0.232693 0.694095 -0.396674
O20   O     O_R   0.621033 0.254139 0.507935 -0.413541
C59   C     C_3   0.874098 0.169604 0.459835 -0.348151
C60   C     C_3   0.869723 0.129995 0.310446 -0.313782
C61   C     C_3   0.844310 0.007788 0.301766 -0.792031
H44   H     H_    0.864923 0.935381 0.359490 0.245137
H45   H     H_    0.807556 0.014618 0.344665 0.276216
H46   H     H_    0.841496 0.981767 0.192654 0.241687
H47   H     H_    0.849373 0.199825 0.248024 0.263172
H48   H     H_    0.906132 0.120870 0.265528 0.200050
H49   H     H_    0.896093 0.100102 0.518453 0.166007
H50   H     H_    0.838928 0.168108 0.512393 0.237733

loop_
_geom_bond_atom_site_label_1
_geom_bond_atom_site_label_2
_geom_bond_distance
_ccdc_geom_bond_type
C50   C51   1.537234 S    
C10   H1    1.083134 S    
C54   H33   1.110169 S    
C52   H23   1.110837 S    
C12   C15   1.403421 A    
C4    C17   1.476641 S    
C57   H40   1.107990 S    
C61   H46   1.110357 S    
C60   C61   1.526321 S    
C52   H25   1.110622 S    
Cu1   Cu2   2.699238 S    
C49   H16   1.111255 S    
C55   H30   1.106130 S    
Cu1   O7    1.955365 S    
C47   H22   1.107271 S    
N7    O17   1.299957 A    
C26   O12   1.349570 S    
C45   C46   1.502996 S    
C53   H35   1.109565 S    
C22   C23   1.423013 A    
C46   H14   1.079574 S    
C40   C50   1.529482 S    
C22   C59   1.519800 S    
O4    C2    1.307193 A    
N5    O13   1.301471 A    
O7    C4    1.305741 A    
C5    C13   1.402449 A    
C53   C54   1.530513 S    
C5    O9    1.349989 S    
C56   C57   1.532523 S    
C5    N1    1.372002 A    
N2    C27   1.372494 A    
C23   C27   1.415057 A    
C42   H13   1.086632 S    
O5    C3    1.298194 A    
C58   H37   1.110868 S    
C54   H34   1.109047 S    
C28   H3    1.083136 S    
C2    C16   1.483591 S    
C21   C22   1.399442 A    
C55   H31   1.111053 S    
C41   C42   1.330876 D    
C54   C55   1.526214 S    
C6    C15   1.406803 A    
C38   C39   1.388862 A    
C36   H5    1.078368 S    
C6    O11   1.349477 S    
C49   H17   1.108421 S    
C60   H47   1.110556 S    
O1    Cu1   1.968103 S    
C9    C10   1.401014 A    
C21   H4    1.079097 S    
C30   C47   1.515563 S    
C48   H20   1.112086 S    
O3    Cu1   1.952753 S    
C34   C35   1.420323 A    
C46   N4    1.283878 D    
N4    H15   1.029602 S    
C12   C34   1.417029 A    
C17   C29   1.411129 A    
C39   H10   1.083323 S    
C18   C21   1.408060 A    
C12   C13   1.406859 A    
N5    O14   1.301163 A    
C15   C37   1.398523 A    
C50   H28   1.112657 S    
C25   C26   1.401132 A    
C59   C60   1.534292 S    
C37   H8    1.083789 S    
Cu1   N3    2.027459 S    
C8    C16   1.408245 A    
C7    H7    1.082748 S    
C29   N8    1.429729 S    
C30   C31   1.406136 A    
C41   C43   1.463362 S    
O1    C1    1.295311 A    
C58   H39   1.110406 S    
C18   C20   1.411158 A    
C27   O10   1.347540 S    
C7    C11   1.400121 A    
C28   C29   1.395160 A    
C23   C24   1.415472 A    
C14   C36   1.388123 A    
C47   C48   1.542602 S    
C51   H27   1.112017 S    
Cu2   O8    1.952748 S    
C33   C36   1.413600 A    
C45   C56   1.514883 S    
N1    C6    1.372295 A    
N2    C32   1.445604 S    
N6    O16   1.301721 A    
N1    C11   1.443999 S    
C48   C49   1.526715 S    
O3    C2    1.303902 A    
C26   N2    1.368742 A    
C9    C16   1.418256 A    
O8    C4    1.299866 A    
C60   H48   1.111920 S    
C56   H43   1.095401 S    
Cu2   N4    2.028608 S    
C19   C35   1.421759 A    
C48   H19   1.112017 S    
C8    H6    1.082737 S    
C37   C40   1.404091 A    
N8    O19   1.301560 A    
C49   H18   1.108743 S    
C59   H50   1.108598 S    
Cu1   O5    1.955827 S    
C25   C39   1.399195 A    
C31   C32   1.400023 A    
N7    O18   1.302787 A    
C56   H42   1.111448 S    
C20   C24   1.419782 A    
Cu2   O6    1.968103 S    
O2    Cu2   1.955828 S    
C35   C40   1.433434 A    
C43   C44   1.364519 D    
O6    C3    1.289114 A    
C50   H29   1.101982 S    
O4    Cu2   1.955368 S    
C61   H45   1.111049 S    
C52   H24   1.110921 S    
C14   H2    1.083436 S    
C61   H44   1.110451 S    
C43   N6    1.435056 S    
C59   H49   1.113212 S    
C47   H21   1.112721 S    
C55   H32   1.110371 S    
C53   H36   1.097000 S    
N3    N7    1.394624 S    
C7    C8    1.392362 A    
O2    C1    1.311606 A    
C13   C14   1.397296 A    
C31   H11   1.083649 S    
C57   C58   1.526216 S    
C44   C53   1.546322 S    
C24   C25   1.410215 A    
C3    C42   1.434862 S    
C51   H26   1.109627 S    
C9    N5    1.433246 S    
C19   C20   1.419141 A    
C57   H41   1.109413 S    
C51   C52   1.526676 S    
C1    C44   1.482293 S    
C58   H38   1.110798 S    
C18   C33   1.418361 A    
C38   H9    1.075952 S    
C45   N3    1.313617 D    
C19   C38   1.406072 A    
C33   C34   1.420398 A    
C17   C30   1.421112 A    
N6    O15   1.300109 A    
C41   H12   1.085723 S    
C10   C11   1.402564 A    
C28   C32   1.397489 A    
N8    O20   1.300864 A    
