data_mof_unit_64673.cif
_audit_creation_date              2012-12-10T17:09:25-0500
_audit_creation_method            fapswitch 2.2
_symmetry_space_group_name_H-M    P1
_symmetry_Int_Tables_number       1
_space_group_crystal_system       triclinic
_cell_length_a                    44.107894
_cell_length_b                    30.289004
_cell_length_c                    30.186697
_cell_angle_alpha                 89.982327
_cell_angle_beta                  133.440792
_cell_angle_gamma                 89.986013
_cell_volume                      29282.2507467

loop_
_atom_site_label
_atom_site_type_symbol
_atom_type_description
_atom_site_fract_x
_atom_site_fract_y
_atom_site_fract_z
_atom_type_partial_charge
C1    C     C_R   0.500109 0.500049 0.914534 0.802919
C2    C     C_R   0.499894 0.500036 0.085468 0.802920
C3    C     C_R   0.000112 0.000048 0.914536 0.802912
C4    C     C_R   0.999892 0.000036 0.085467 0.802964
C5    C     C_3   0.225270 0.492273 0.774521 -0.210410
C6    C     C_3   0.774742 0.492311 0.225460 -0.210457
C7    C     C_3   0.725280 0.992296 0.774529 -0.210310
C8    C     C_3   0.274756 0.992233 0.225474 -0.210608
C9    C     C_3   0.274641 0.495855 0.827482 0.342264
C10   C     C_3   0.725365 0.495885 0.172500 0.342667
C11   C     C_3   0.774647 0.995924 0.827480 0.342233
C12   C     C_3   0.225370 0.995719 0.172505 0.342794
C13   C     C_1   0.162237 0.501814 0.662929 0.026968
C14   C     C_1   0.837761 0.501769 0.337058 0.026718
C15   C     C_1   0.662238 0.001789 0.662926 0.026976
C16   C     C_1   0.337760 0.001768 0.337056 0.026728
C17   C     C_1   0.337754 0.500928 0.839369 0.018033
C18   C     C_1   0.662246 0.500841 0.160619 0.018091
C19   C     C_1   0.837755 0.000919 0.839355 0.018145
C20   C     C_1   0.162245 0.000825 0.160604 0.017871
C21   C     C_1   0.375387 0.500169 0.875828 -0.183637
C22   C     C_1   0.624614 0.500096 0.124164 -0.183710
C23   C     C_1   0.875388 0.000165 0.875821 -0.183626
C24   C     C_1   0.124613 0.000091 0.124157 -0.183797
C25   C     C_R   0.525935 0.474482 0.683338 -0.199764
C26   C     C_R   0.474068 0.474494 0.316677 -0.199504
C27   C     C_R   0.025849 0.974372 0.683248 -0.200039
C28   C     C_R   0.974092 0.974463 0.316702 -0.199505
C29   C     C_R   0.500238 0.503844 0.634385 -0.122603
C30   C     C_R   0.499778 0.503809 0.365625 -0.122932
C31   C     C_R   0.000238 0.003819 0.634383 -0.122647
C32   C     C_R   0.999780 0.003800 0.365628 -0.122868
C33   C     C_R   0.474528 0.534188 0.631529 -0.071390
C34   C     C_R   0.525545 0.534069 0.368520 -0.071663
C35   C     C_R   0.974605 0.034234 0.631604 -0.071427
C36   C     C_R   0.025531 0.034074 0.368507 -0.071658
C37   C     C_R   0.474921 0.534390 0.678817 0.033705
C38   C     C_R   0.525161 0.534261 0.321240 0.033613
C39   C     C_R   0.975007 0.034441 0.678900 0.033643
C40   C     C_R   0.025145 0.034267 0.321225 0.033603
C41   C     C_R   0.500069 0.503321 0.726969 0.049332
C42   C     C_R   0.499987 0.503247 0.273083 0.050117
C43   C     C_R   0.000067 0.003293 0.726963 0.049305
C44   C     C_R   0.999989 0.003237 0.273087 0.050112
C45   C     C_R   0.420136 0.500014 0.919993 0.811334
C46   C     C_R   0.579864 0.499990 0.080005 0.811260
C47   C     C_R   0.920136 0.000013 0.919992 0.811371
C48   C     C_R   0.079864 0.999989 0.080004 0.811281
C49   C     C_R   0.525469 0.473357 0.728950 0.098284
C50   C     C_R   0.474560 0.473341 0.271093 0.098504
C51   C     C_R   0.025374 0.973240 0.728850 0.098302
C52   C     C_R   0.974583 0.973311 0.271118 0.098544
C53   C     C_R   0.451638 0.565316 0.680197 -0.152221
C54   C     C_R   0.548471 0.565131 0.319867 -0.153964
C55   C     C_R   0.951817 0.065445 0.680371 -0.152069
C56   C     C_R   0.048436 0.065154 0.319834 -0.153780
C57   C     C_R   0.452362 0.564733 0.727049 -0.204769
C58   C     C_R   0.547744 0.564552 0.273014 -0.203748
C59   C     C_R   0.952547 0.064869 0.727229 -0.204827
C60   C     C_R   0.047707 0.064577 0.272978 -0.203649
C61   C     C_R   0.476256 0.533340 0.773618 0.107037
C62   C     C_R   0.523820 0.533218 0.226435 0.107358
C63   C     C_R   0.976352 0.033403 0.773709 0.106965
C64   C     C_R   0.023800 0.033229 0.226417 0.107311
C65   C     C_R   0.500202 0.502407 0.773742 0.078685
C66   C     C_R   0.499854 0.502333 0.226310 0.078952
C67   C     C_R   0.000204 0.002386 0.773739 0.078737
C68   C     C_R   0.999854 0.002325 0.226312 0.078925
C69   C     C_R   0.524429 0.470641 0.820829 0.109023
C70   C     C_R   0.475601 0.470622 0.179216 0.109022
C71   C     C_R   0.024337 0.970541 0.820732 0.109109
C72   C     C_R   0.975620 0.970599 0.179236 0.109007
C73   C     C_R   0.549222 0.440906 0.821856 -0.205870
C74   C     C_R   0.450797 0.440929 0.178197 -0.206108
C75   C     C_R   0.049029 0.940712 0.821659 -0.206226
C76   C     C_R   0.950838 0.940886 0.178239 -0.206107
C77   C     C_R   0.550036 0.442551 0.776526 -0.196713
C78   C     C_R   0.449987 0.442571 0.223531 -0.196601
C79   C     C_R   0.049838 0.942342 0.776323 -0.196908
C80   C     C_R   0.950030 0.942523 0.223575 -0.196571
C81   C     C_R   0.476762 0.532522 0.820329 -0.232434
C82   C     C_R   0.523298 0.532417 0.179711 -0.232257
C83   C     C_R   0.976861 0.032591 0.820422 -0.232453
C84   C     C_R   0.023276 0.032430 0.179691 -0.232202
C85   C     C_R   0.500035 0.500437 0.866197 -0.059244
C86   C     C_R   0.499990 0.500395 0.133825 -0.059217
C87   C     C_R   0.000042 0.000434 0.866200 -0.059308
C88   C     C_R   0.999987 0.000394 0.133823 -0.059314
C89   C     C_3   0.275454 0.547182 0.759459 0.326238
C90   C     C_3   0.724483 0.547068 0.240530 0.326193
C91   C     C_3   0.775447 0.047131 0.759356 0.326361
C92   C     C_3   0.224470 0.047103 0.240362 0.325894
C93   C     C_R   0.523632 0.469417 0.866305 -0.249971
C94   C     C_R   0.476383 0.469411 0.133724 -0.250035
C95   C     C_R   0.023543 0.969330 0.866213 -0.250068
C96   C     C_R   0.976399 0.969392 0.133741 -0.249945
C97   C     C_R   0.999997 0.585722 0.499993 0.832342
C98   C     C_R   0.499999 0.085722 0.499994 0.832339
C99   C     C_R   0.079888 0.499844 0.579967 0.802667
C100  C     C_R   0.920112 0.499841 0.420033 0.802237
C101  C     C_R   0.579888 0.999840 0.579967 0.802553
C102  C     C_R   0.420112 0.999841 0.420033 0.802146
C103  C     C_R   0.000058 0.414219 0.500067 0.811820
C104  C     C_R   0.500058 0.914225 0.500067 0.811628
C105  C     C_R   0.500012 0.414510 0.500017 0.876894
C106  C     C_R   0.000011 0.914510 0.500008 0.876755
C107  C     C_R   0.500046 0.501367 0.585797 0.892956
C108  C     C_R   0.499955 0.501349 0.414201 0.892537
C109  C     C_R   0.000046 0.001356 0.585797 0.892738
C110  C     C_R   0.999955 0.001346 0.414202 0.892416
C111  C     C_R   0.499974 0.585777 0.499964 0.870359
C112  C     C_R   0.999974 0.085772 0.499957 0.870218
C113  C     C_R   0.487059 0.343845 0.525299 -0.075827
C114  C     C_R   0.513039 0.343860 0.474814 -0.075114
C115  C     C_R   0.986962 0.843848 0.525165 -0.075209
C116  C     C_R   0.013099 0.843854 0.474899 -0.075178
C117  C     C_R   0.500040 0.366496 0.500049 -0.231880
C118  C     C_R   0.000033 0.866494 0.500036 -0.232072
C119  C     C_R   0.509886 0.297384 0.470232 -0.026976
C120  C     C_R   0.490222 0.297370 0.529876 -0.027499
C121  C     C_R   0.009943 0.797379 0.470310 -0.026976
C122  C     C_R   0.990106 0.797369 0.529736 -0.027008
C123  C     C_3   0.274571 0.464730 0.747793 -0.611727
C124  C     C_3   0.725480 0.464593 0.252189 -0.611720
C125  C     C_3   0.774573 0.964658 0.747848 -0.611794
C126  C     C_3   0.225476 0.964669 0.252288 -0.611606
C127  C     C_R   0.500038 0.274229 0.500033 -0.020163
C128  C     C_R   0.000020 0.774227 0.500018 -0.020325
C129  C     C_R   0.515499 0.273125 0.435996 0.436448
C130  C     C_R   0.484648 0.273094 0.564154 0.436743
C131  C     C_R   0.015616 0.773119 0.436145 0.436494
C132  C     C_R   0.984418 0.773092 0.563882 0.436542
C133  C     C_R   0.014355 0.727238 0.435606 -0.258139
C134  C     C_R   0.985648 0.727211 0.564386 -0.258180
C135  C     C_R   0.514249 0.227243 0.435471 -0.258091
C136  C     C_R   0.485825 0.227216 0.564596 -0.257476
C137  C     C_R   0.005592 0.704231 0.465776 -0.060427
C138  C     C_R   0.994413 0.704215 0.534219 -0.060414
C139  C     C_R   0.505544 0.204232 0.465712 -0.060383
C140  C     C_R   0.494484 0.204215 0.534296 -0.060731
C141  C     C_R   0.000010 0.727582 0.500006 -0.037594
C142  C     C_R   0.500019 0.227583 0.500010 -0.037639
C143  C     C_R   0.001176 0.658043 0.460682 0.371130
C144  C     C_R   0.998815 0.658020 0.539299 0.371286
C145  C     C_R   0.501140 0.158043 0.460640 0.371107
C146  C     C_R   0.498870 0.158020 0.539352 0.371324
C147  C     C_R   0.999996 0.634522 0.499990 -0.258225
C148  C     C_R   0.500001 0.134522 0.499991 -0.258121
C149  C     C_R   0.527765 0.656897 0.555060 -0.163885
C150  C     C_R   0.471356 0.657014 0.445373 -0.159256
C151  C     C_R   0.027438 0.156877 0.555094 -0.163939
C152  C     C_R   0.971674 0.156993 0.445291 -0.159174
C153  C     C_R   0.499788 0.634048 0.500143 -0.084947
C154  C     C_R   0.999788 0.134033 0.500127 -0.085268
C155  C     C_R   0.470868 0.703438 0.444298 0.031389
C156  C     C_R   0.527146 0.703303 0.556487 0.028839
C157  C     C_R   0.971203 0.203417 0.444215 0.031347
C158  C     C_R   0.026779 0.203281 0.556491 0.028818
C159  C     C_3   0.226370 0.467321 0.695283 -0.269187
C160  C     C_3   0.773679 0.467182 0.304693 -0.269210
C161  C     C_3   0.726374 0.967262 0.695311 -0.269430
C162  C     C_3   0.273683 0.967208 0.304726 -0.269344
C163  C     C_R   0.499200 0.726727 0.500411 0.046375
C164  C     C_R   0.999186 0.226706 0.500377 0.046313
C165  C     C_R   0.443161 0.726792 0.388352 -0.078479
C166  C     C_R   0.554511 0.726548 0.612543 -0.083707
C167  C     C_R   0.943863 0.226770 0.388236 -0.078411
C168  C     C_R   0.053767 0.226523 0.612572 -0.083710
C169  C     C_R   0.945008 0.273341 0.388230 -0.086221
C170  C     C_R   0.054138 0.273193 0.612604 -0.095700
C171  C     C_R   0.444290 0.773363 0.388314 -0.086336
C172  C     C_R   0.554880 0.773218 0.612564 -0.095851
C173  C     C_R   0.972945 0.296580 0.444176 0.031022
C174  C     C_R   0.026882 0.296564 0.556546 0.029861
C175  C     C_R   0.472586 0.796601 0.444208 0.031105
C176  C     C_R   0.527253 0.796587 0.556537 0.029969
C177  C     C_R   0.999691 0.273214 0.500382 0.056148
C178  C     C_R   0.499700 0.773236 0.500400 0.056087
C179  C     C_R   0.974746 0.342966 0.445178 -0.175877
C180  C     C_R   0.025377 0.343006 0.555280 -0.178759
C181  C     C_R   0.474385 0.842987 0.445172 -0.176005
C182  C     C_R   0.525744 0.843029 0.555294 -0.178864
C183  C     C_R   0.000124 0.365922 0.500177 -0.074069
C184  C     C_R   0.500125 0.865938 0.500178 -0.073577
C185  C     C_1   0.124614 0.500573 0.624979 -0.100889
C186  C     C_1   0.875386 0.500549 0.375016 -0.101626
C187  C     C_1   0.624614 0.000558 0.624979 -0.100941
C188  C     C_1   0.375385 0.000549 0.375016 -0.101582
C189  C     C_3   0.291605 0.502144 0.795303 0.042573
C190  C     C_3   0.708393 0.502067 0.204682 0.042532
C191  C     C_3   0.791607 0.002130 0.795287 0.042571
C192  C     C_3   0.208393 0.002043 0.204662 0.042587
C193  C     C_3   0.225787 0.550458 0.710979 0.346289
C194  C     C_3   0.774144 0.550357 0.289011 0.346317
C195  C     C_3   0.725782 0.050413 0.710912 0.346320
C196  C     C_3   0.274134 0.050369 0.288922 0.346291
C197  C     C_3   0.208511 0.503625 0.709756 -0.103413
C198  C     C_3   0.791485 0.503563 0.290227 -0.103260
C199  C     C_3   0.708512 0.003597 0.709746 -0.103355
C200  C     C_3   0.291483 0.003555 0.290214 -0.103245
Cu1   Cu    Cu3+1 0.500000 0.544470 0.000000 0.940644
Cu2   Cu    Cu3+1 0.000000 0.044470 0.000000 0.940648
Cu3   Cu    Cu3+1 0.500000 0.455530 0.000000 0.995229
Cu4   Cu    Cu3+1 0.000000 0.955530 0.000000 0.995194
Cu5   Cu    Cu3+1 0.999980 0.499850 0.455510 1.004892
Cu6   Cu    Cu3+1 0.000020 0.499850 0.544490 1.004353
Cu7   Cu    Cu3+1 0.499980 0.999850 0.455510 1.004864
Cu8   Cu    Cu3+1 0.500020 0.999850 0.544490 1.004373
Cu9   Cu    Cu3+1 0.458680 0.499970 0.458630 1.039532
Cu10  Cu    Cu3+1 0.541320 0.499970 0.541370 1.035049
Cu11  Cu    Cu3+1 0.958680 0.999970 0.458630 1.039547
Cu12  Cu    Cu3+1 0.041320 0.999970 0.541370 1.035116
H1    H     H_    0.216844 0.457101 0.770791 0.170829
H2    H     H_    0.783220 0.457152 0.229186 0.170352
H3    H     H_    0.716886 0.957118 0.770856 0.170808
H4    H     H_    0.283295 0.957086 0.229289 0.170219
H5    H     H_    0.545541 0.451510 0.684917 0.178206
H6    H     H_    0.454432 0.451577 0.315082 0.178310
H7    H     H_    0.045396 0.951345 0.684764 0.178319
H8    H     H_    0.954473 0.951530 0.315127 0.178169
H9    H     H_    0.432982 0.590548 0.645636 0.182575
H10   H     H_    0.567144 0.590326 0.354425 0.181727
H11   H     H_    0.933231 0.090735 0.645880 0.182620
H12   H     H_    0.067095 0.090361 0.354377 0.181759
H13   H     H_    0.434109 0.588902 0.726777 0.153535
H14   H     H_    0.566014 0.588683 0.273286 0.153347
H15   H     H_    0.934367 0.089100 0.727030 0.153553
H16   H     H_    0.065961 0.088721 0.273236 0.153392
H17   H     H_    0.458508 0.556375 0.820541 0.149083
H18   H     H_    0.541564 0.556237 0.179496 0.149065
H19   H     H_    0.958677 0.056506 0.820701 0.149172
H20   H     H_    0.041528 0.056263 0.179462 0.149124
H21   H     H_    0.542063 0.445089 0.902535 0.153812
H22   H     H_    0.457929 0.445129 0.097484 0.153843
H23   H     H_    0.041902 0.944942 0.902371 0.153885
H24   H     H_    0.957961 0.945098 0.097516 0.153885
H25   H     H_    0.568196 0.416597 0.857932 0.152706
H26   H     H_    0.431812 0.416657 0.142124 0.152923
H27   H     H_    0.067924 0.916337 0.857657 0.152752
H28   H     H_    0.931869 0.916600 0.142181 0.152938
H29   H     H_    0.286246 0.547112 0.735023 0.031956
H30   H     H_    0.713690 0.546923 0.264965 0.031890
H31   H     H_    0.786213 0.046987 0.734886 0.031799
H32   H     H_    0.213617 0.047092 0.264715 0.032204
H33   H     H_    0.569753 0.419584 0.778477 0.155349
H34   H     H_    0.430272 0.419623 0.221595 0.155458
H35   H     H_    0.069463 0.919282 0.778182 0.155491
H36   H     H_    0.930332 0.919560 0.221656 0.155412
H37   H     H_    0.020029 0.709770 0.410587 0.189084
H38   H     H_    0.979958 0.709736 0.589386 0.189032
H39   H     H_    0.519883 0.209780 0.410403 0.189062
H40   H     H_    0.480239 0.209756 0.589730 0.189258
H41   H     H_    0.549640 0.637800 0.596503 0.179144
H42   H     H_    0.450701 0.638043 0.403599 0.178355
H43   H     H_    0.049077 0.137774 0.596591 0.179362
H44   H     H_    0.951273 0.138015 0.403499 0.178544
H45   H     H_    0.955654 0.361894 0.403279 0.167482
H46   H     H_    0.044196 0.362084 0.596945 0.173494
H47   H     H_    0.455020 0.861921 0.403264 0.167096
H48   H     H_    0.544835 0.862115 0.596971 0.173116
H49   H     H_    0.284686 0.431912 0.770185 0.275662
H50   H     H_    0.715405 0.431799 0.229794 0.275615
H51   H     H_    0.784667 0.931863 0.770300 0.275628
H52   H     H_    0.215339 0.931838 0.229989 0.275715
H53   H     H_    0.288503 0.467782 0.728098 0.194250
H54   H     H_    0.711548 0.467577 0.271891 0.194222
H55   H     H_    0.788523 0.967632 0.728171 0.194334
H56   H     H_    0.211588 0.967811 0.272040 0.194062
H57   H     H_    0.219977 0.477493 0.654296 0.207662
H58   H     H_    0.780063 0.477274 0.345689 0.207693
H59   H     H_    0.720003 0.977414 0.654335 0.207649
H60   H     H_    0.280126 0.977299 0.345768 0.207835
O1    O     O_R   0.499980 0.537560 0.935110 -0.588198
O2    O     O_R   0.500020 0.537560 0.064890 -0.588037
O3    O     O_R   0.999980 0.037560 0.935110 -0.588251
O4    O     O_R   0.000020 0.037560 0.064890 -0.588016
O5    O     O_R   0.465080 0.499990 0.529910 -0.571241
O6    O     O_R   0.534920 0.499990 0.470090 -0.570664
O7    O     O_R   0.965080 0.999990 0.529910 -0.571286
O8    O     O_R   0.034920 0.999990 0.470090 -0.570614
O9    O     O_R   0.534860 0.499980 0.599740 -0.589525
O10   O     O_R   0.465140 0.499980 0.400260 -0.589979
O11   O     O_R   0.034860 0.999980 0.599740 -0.589496
O12   O     O_R   0.965140 0.999980 0.400260 -0.590025
O13   O     O_R   0.465120 0.564850 0.465070 -0.579570
O14   O     O_R   0.534880 0.564850 0.534930 -0.586060
O15   O     O_R   0.965120 0.064850 0.465070 -0.579389
O16   O     O_R   0.034880 0.064850 0.534930 -0.585903
O17   O     O_R   0.499970 0.462450 0.935080 -0.579932
O18   O     O_R   0.500030 0.462450 0.064920 -0.579950
O19   O     O_R   0.999970 0.962450 0.935080 -0.579989
O20   O     O_R   0.000030 0.962450 0.064920 -0.579951
O21   O     O_R   0.439720 0.537550 0.939720 -0.595777
O22   O     O_R   0.560280 0.537550 0.060280 -0.595828
O23   O     O_R   0.939720 0.037550 0.939720 -0.595787
O24   O     O_R   0.060280 0.037550 0.060280 -0.595795
O25   O     O_R   0.439710 0.462440 0.939690 -0.559087
O26   O     O_R   0.560290 0.462440 0.060310 -0.559200
O27   O     O_R   0.939710 0.962440 0.939690 -0.559083
O28   O     O_R   0.060290 0.962440 0.060310 -0.559210
O29   O     O_R   0.999990 0.564740 0.462430 -0.554704
O30   O     O_R   0.000010 0.564740 0.537570 -0.554748
O31   O     O_R   0.499990 0.064740 0.462430 -0.554683
O32   O     O_R   0.500010 0.064740 0.537570 -0.554689
O33   O     O_R   0.060270 0.499850 0.522700 -0.554524
O34   O     O_R   0.939730 0.499850 0.477300 -0.554538
O35   O     O_R   0.560270 0.999850 0.522700 -0.554521
O36   O     O_R   0.439730 0.999850 0.477300 -0.554496
O37   O     O_R   0.060290 0.499870 0.597820 -0.593858
O38   O     O_R   0.939710 0.499870 0.402180 -0.594140
O39   O     O_R   0.560290 0.999870 0.597820 -0.593941
O40   O     O_R   0.439710 0.999870 0.402180 -0.594218
O41   O     O_R   0.999980 0.434970 0.462420 -0.575785
O42   O     O_R   0.000020 0.434970 0.537580 -0.576709
O43   O     O_R   0.499980 0.934970 0.462420 -0.575639
O44   O     O_R   0.500020 0.934970 0.537580 -0.576561
O45   O     O_R   0.465090 0.435080 0.465060 -0.578142
O46   O     O_R   0.534910 0.435080 0.534940 -0.578268
O47   O     O_R   0.965090 0.935080 0.465060 -0.578186
O48   O     O_R   0.034910 0.935080 0.534940 -0.578223
C201  C     C_2   0.210740 0.563569 0.648900 0.689370
O49   O     O_2   0.225005 0.596523 0.645445 -0.608564
O50   O     O_R   0.178977 0.540162 0.595494 -0.767410
H61   H     H_    0.171651 0.553062 0.558130 0.358096
C202  C     C_2   0.789170 0.563374 0.351088 0.689349
O51   O     O_2   0.774879 0.596305 0.354550 -0.608564
O52   O     O_R   0.820949 0.539914 0.404488 -0.767470
H62   H     H_    0.828257 0.552757 0.441853 0.357981
C203  C     C_2   0.710712 0.063488 0.648809 0.689329
O53   O     O_2   0.724939 0.096452 0.645301 -0.608480
O54   O     O_R   0.678968 0.040038 0.595438 -0.767397
H63   H     H_    0.671624 0.052918 0.558052 0.358094
C204  C     C_2   0.289101 0.063421 0.350951 0.689404
O55   O     O_2   0.274753 0.096338 0.354333 -0.608561
O56   O     O_R   0.320897 0.040019 0.404402 -0.767530
H64   H     H_    0.328165 0.052882 0.441728 0.357974
O57   O     O_3   0.293777 0.582731 0.801958 -0.537327
C205  C     C_3   0.309644 0.616615 0.790325 0.084551
H65   H     H_    0.308245 0.647892 0.808067 0.178603
H66   H     H_    0.290688 0.622095 0.741042 0.181841
C206  C     C_3   0.355225 0.607479 0.823829 -0.400196
H67   H     H_    0.373644 0.601778 0.873012 0.239982
H68   H     H_    0.357085 0.577471 0.804673 0.216813
C207  C     C_3   0.374256 0.646043 0.817493 -0.870069
H69   H     H_    0.356590 0.652032 0.768645 0.261673
H70   H     H_    0.407149 0.638211 0.841930 0.259745
H71   H     H_    0.373805 0.676435 0.837620 0.257977
O58   O     O_3   0.706111 0.582665 0.198034 -0.537368
C208  C     C_3   0.690206 0.616493 0.209680 0.084457
H72   H     H_    0.691570 0.647811 0.191951 0.178455
H73   H     H_    0.709155 0.621908 0.258964 0.181868
C209  C     C_3   0.644636 0.607336 0.176173 -0.400259
H74   H     H_    0.626221 0.601713 0.126986 0.239979
H75   H     H_    0.642808 0.577279 0.195307 0.216823
C210  C     C_3   0.625566 0.645842 0.182540 -0.870134
H76   H     H_    0.643225 0.651752 0.231393 0.261644
H77   H     H_    0.592680 0.637996 0.158096 0.259843
H78   H     H_    0.625986 0.676284 0.162437 0.257897
O59   O     O_3   0.793788 0.082730 0.801785 -0.537447
C211  C     C_3   0.809662 0.116543 0.790076 0.084427
H79   H     H_    0.808263 0.147869 0.807739 0.178613
H80   H     H_    0.790714 0.121950 0.740783 0.181865
C212  C     C_3   0.855242 0.107371 0.823608 -0.400186
H81   H     H_    0.873657 0.101743 0.872804 0.240015
H82   H     H_    0.857099 0.077312 0.804523 0.216803
C213  C     C_3   0.874281 0.145869 0.817187 -0.870110
H83   H     H_    0.856619 0.151783 0.768326 0.261663
H84   H     H_    0.907174 0.138012 0.841648 0.259721
H85   H     H_    0.873830 0.176312 0.837239 0.257998
O60   O     O_3   0.206146 0.082614 0.197749 -0.537159
C214  C     C_3   0.190271 0.116579 0.209269 0.084699
H86   H     H_    0.191652 0.147806 0.191411 0.178435
H87   H     H_    0.209236 0.122118 0.258537 0.181830
C215  C     C_3   0.144696 0.107511 0.175808 -0.400281
H88   H     H_    0.126273 0.101761 0.126641 0.239893
H89   H     H_    0.142848 0.077549 0.195057 0.216871
C216  C     C_3   0.125658 0.146148 0.182033 -0.869937
H90   H     H_    0.143331 0.152189 0.230865 0.261696
H91   H     H_    0.092770 0.138367 0.157632 0.259880
H92   H     H_    0.126094 0.176494 0.161803 0.257850
O61   O     O_3   0.215287 0.584476 0.731528 -0.527558
C217  C     C_3   0.173714 0.601162 0.687534 0.094697
H93   H     H_    0.157631 0.593473 0.702962 0.173030
H94   H     H_    0.154066 0.586976 0.641128 0.130276
C218  C     C_3   0.175043 0.651294 0.683182 -0.309903
H95   H     H_    0.191630 0.666281 0.728474 0.234033
H96   H     H_    0.192555 0.659581 0.670112 0.249572
C219  C     C_3   0.131176 0.670909 0.635958 -0.918671
H97   H     H_    0.114002 0.656522 0.590176 0.271183
H98   H     H_    0.133317 0.707184 0.633336 0.271741
H99   H     H_    0.113480 0.664388 0.649067 0.245961
O62   O     O_3   0.784600 0.584443 0.268470 -0.527614
C220  C     C_3   0.826158 0.601115 0.312459 0.094899
H100  H     H_    0.842272 0.593405 0.297086 0.172805
H101  H     H_    0.845801 0.586939 0.358893 0.130434
C221  C     C_3   0.824775 0.651250 0.316698 -0.309891
H102  H     H_    0.808245 0.666227 0.271400 0.233952
H103  H     H_    0.807183 0.659557 0.329631 0.249474
C222  C     C_3   0.868617 0.670850 0.363996 -0.918671
H104  H     H_    0.885707 0.656513 0.409795 0.271300
H105  H     H_    0.866438 0.707136 0.366472 0.271675
H106  H     H_    0.886421 0.664252 0.351080 0.245959
O63   O     O_3   0.715302 0.084454 0.731463 -0.527450
C223  C     C_3   0.673730 0.101144 0.687478 0.094811
H107  H     H_    0.657644 0.093441 0.702897 0.172959
H108  H     H_    0.654079 0.086972 0.641063 0.130247
C224  C     C_3   0.675066 0.151278 0.683160 -0.309768
H109  H     H_    0.691608 0.166249 0.728446 0.233955
H110  H     H_    0.692625 0.159581 0.670173 0.249615
C225  C     C_3   0.631203 0.170894 0.635870 -0.918747
H111  H     H_    0.614095 0.156553 0.590086 0.271289
H112  H     H_    0.633344 0.207177 0.633320 0.271691
H113  H     H_    0.613439 0.164311 0.648853 0.245885
O64   O     O_3   0.284640 0.084430 0.268423 -0.527848
C226  C     C_3   0.326200 0.101085 0.312453 0.094691
H114  H     H_    0.342356 0.093310 0.297160 0.172593
H115  H     H_    0.345797 0.086947 0.358899 0.130745
C227  C     C_3   0.324824 0.151230 0.316608 -0.310051
H116  H     H_    0.308413 0.166167 0.271333 0.233827
H117  H     H_    0.307119 0.159601 0.329338 0.249392
C228  C     C_3   0.368663 0.170810 0.364056 -0.918592
H118  H     H_    0.385620 0.156545 0.409846 0.271425
H119  H     H_    0.366486 0.207111 0.366416 0.271594
H120  H     H_    0.386594 0.164109 0.351375 0.245882
C229  C     C_2   0.448818 0.566344 0.580474 0.848029
O65   O     O_2   0.410950 0.567347 0.547520 -0.574895
O66   O     O_R   0.468058 0.594997 0.569817 -0.761246
H121  H     H_    0.447391 0.615299 0.533787 0.345689
C230  C     C_2   0.551324 0.566133 0.419627 0.844748
O67   O     O_2   0.589182 0.567075 0.452490 -0.575664
O68   O     O_R   0.532163 0.594746 0.430470 -0.778515
H122  H     H_    0.552874 0.614950 0.466559 0.339997
C231  C     C_2   0.948960 0.066448 0.580619 0.848175
O69   O     O_2   0.911095 0.067539 0.547672 -0.574925
O70   O     O_R   0.968257 0.095063 0.570024 -0.761150
H123  H     H_    0.947631 0.115420 0.534048 0.345683
C232  C     C_2   0.051298 0.066150 0.419600 0.844868
O71   O     O_2   0.089156 0.067103 0.452465 -0.575642
O72   O     O_R   0.032127 0.094762 0.430425 -0.778737
H124  H     H_    0.052831 0.114977 0.466502 0.340029
C233  C     C_2   0.469602 0.369391 0.545472 0.920786
O73   O     O_2   0.491132 0.396792 0.586059 -0.660290
O74   O     O_R   0.428467 0.361984 0.517699 -0.707441
H125  H     H_    0.420173 0.381222 0.535403 0.338499
C234  C     C_2   0.530447 0.369439 0.454596 0.920908
O75   O     O_2   0.508844 0.396785 0.413892 -0.660606
O76   O     O_R   0.571627 0.362146 0.482479 -0.707426
H126  H     H_    0.579884 0.381403 0.464735 0.338371
C235  C     C_2   0.969467 0.869419 0.545258 0.921152
O77   O     O_2   0.991014 0.896751 0.585941 -0.660625
O78   O     O_R   0.928269 0.862139 0.517277 -0.707417
H127  H     H_    0.919951 0.881390 0.534939 0.338402
C236  C     C_2   0.030582 0.869427 0.454788 0.921112
O79   O     O_2   0.009022 0.896783 0.414086 -0.660553
O80   O     O_R   0.071783 0.862117 0.482771 -0.707430
H128  H     H_    0.080091 0.881371 0.465095 0.338381
O81   O     O_3   0.522186 0.293666 0.402405 -0.585904
C237  C     C_3   0.484118 0.294979 0.340524 0.036787
H129  H     H_    0.459443 0.312033 0.335444 0.146168
H130  H     H_    0.473489 0.260929 0.321595 0.132737
C238  C     C_3   0.490663 0.320476 0.303967 -0.280742
H131  H     H_    0.499799 0.355040 0.320827 0.244276
H132  H     H_    0.516293 0.304870 0.310436 0.232554
C239  C     C_3   0.451067 0.320875 0.236076 -0.924598
H133  H     H_    0.442059 0.286661 0.217879 0.262937
H134  H     H_    0.456723 0.339920 0.210910 0.262576
H135  H     H_    0.425019 0.336577 0.228405 0.255159
O82   O     O_3   0.478203 0.293597 0.598042 -0.586015
C240  C     C_3   0.516506 0.295156 0.659708 0.036550
H136  H     H_    0.540722 0.312746 0.664185 0.146999
H137  H     H_    0.527685 0.261171 0.678717 0.132188
C241  C     C_3   0.510123 0.320095 0.696768 -0.280479
H138  H     H_    0.500310 0.354571 0.679700 0.244218
H139  H     H_    0.485018 0.303846 0.691047 0.232052
C242  C     C_3   0.550084 0.320891 0.764432 -0.924796
H140  H     H_    0.559805 0.286747 0.782843 0.262699
H141  H     H_    0.544536 0.339489 0.789996 0.262330
H142  H     H_    0.575611 0.337254 0.771360 0.255045
O83   O     O_3   0.022370 0.793660 0.402633 -0.585909
C243  C     C_3   0.984347 0.794954 0.340715 0.036747
H143  H     H_    0.959618 0.811971 0.335536 0.146070
H144  H     H_    0.973764 0.760898 0.321789 0.132793
C244  C     C_3   0.990954 0.820484 0.304252 -0.280710
H145  H     H_    0.000030 0.855057 0.321093 0.244293
H146  H     H_    0.016644 0.804925 0.310834 0.232592
C245  C     C_3   0.951418 0.820845 0.236325 -0.924638
H147  H     H_    0.942477 0.786625 0.218147 0.262928
H148  H     H_    0.957116 0.839923 0.211230 0.262633
H149  H     H_    0.925309 0.836495 0.228541 0.255126
O84   O     O_3   0.977689 0.793616 0.597424 -0.585950
C246  C     C_3   0.015726 0.794834 0.659331 0.036698
H150  H     H_    0.040444 0.811834 0.664488 0.146081
H151  H     H_    0.026311 0.760757 0.678245 0.132742
C247  C     C_3   0.009146 0.820336 0.695833 -0.280593
H152  H     H_    0.000066 0.854927 0.679001 0.244263
H153  H     H_    0.983466 0.804796 0.689276 0.232542
C248  C     C_3   0.048699 0.820618 0.763748 -0.925260
H154  H     H_    0.057644 0.786377 0.781917 0.262836
H155  H     H_    0.043023 0.839679 0.788873 0.262557
H156  H     H_    0.074798 0.836243 0.771505 0.255182
O85   O     O_3   0.000643 0.635609 0.420007 -0.577160
C249  C     C_3   0.962223 0.642848 0.358978 0.043874
H157  H     H_    0.969478 0.648062 0.330655 0.164002
H158  H     H_    0.944812 0.672791 0.352672 0.116356
C250  C     C_3   0.933908 0.602385 0.334752 -0.313923
H159  H     H_    0.950803 0.572625 0.339767 0.249901
H160  H     H_    0.925411 0.597341 0.361544 0.200701
C251  C     C_3   0.894025 0.607985 0.267610 -0.909256
H161  H     H_    0.876091 0.637122 0.261317 0.261270
H162  H     H_    0.874277 0.578164 0.251549 0.271935
H163  H     H_    0.901629 0.612222 0.239602 0.262982
O86   O     O_3   0.999308 0.635559 0.579936 -0.577188
C252  C     C_3   0.037702 0.642735 0.640989 0.043805
H164  H     H_    0.030407 0.647902 0.669267 0.163930
H165  H     H_    0.055108 0.672681 0.647337 0.116294
C253  C     C_3   0.066043 0.602257 0.665241 -0.313851
H166  H     H_    0.049147 0.572491 0.660171 0.249909
H167  H     H_    0.074589 0.597266 0.638505 0.200713
C254  C     C_3   0.105885 0.607783 0.732410 -0.909535
H168  H     H_    0.123817 0.636930 0.738763 0.261300
H169  H     H_    0.125656 0.577956 0.748490 0.271995
H170  H     H_    0.098230 0.611962 0.760359 0.262820
O87   O     O_3   0.500590 0.135604 0.419948 -0.577134
C255  C     C_3   0.462159 0.142833 0.358926 0.043764
H171  H     H_    0.469400 0.148094 0.330594 0.163990
H172  H     H_    0.444724 0.172746 0.352636 0.116334
C256  C     C_3   0.433882 0.102337 0.334699 -0.313800
H173  H     H_    0.450798 0.072610 0.339687 0.249834
H174  H     H_    0.425406 0.097237 0.361510 0.200727
C257  C     C_3   0.393982 0.107937 0.267568 -0.909256
H175  H     H_    0.376029 0.137041 0.261309 0.261310
H176  H     H_    0.374261 0.078092 0.251503 0.271902
H177  H     H_    0.401565 0.112235 0.239542 0.262984
O88   O     O_3   0.499407 0.135556 0.580030 -0.577151
C258  C     C_3   0.537831 0.142715 0.641061 0.043749
H178  H     H_    0.530577 0.147931 0.669384 0.164047
H179  H     H_    0.555258 0.172628 0.647375 0.116186
C259  C     C_3   0.566125 0.102203 0.665283 -0.313821
H180  H     H_    0.549210 0.072468 0.660241 0.249897
H181  H     H_    0.574637 0.097165 0.638509 0.200706
C260  C     C_3   0.605994 0.107717 0.732436 -0.909469
H182  H     H_    0.623947 0.136828 0.738755 0.261329
H183  H     H_    0.625729 0.077862 0.748499 0.272054
H184  H     H_    0.598373 0.111951 0.760421 0.262808
C261  C     C_2   0.411697 0.702736 0.329812 0.853907
O89   O     O_2   0.412858 0.704699 0.290550 -0.534614
O90   O     O_R   0.380968 0.677658 0.320095 -0.747133
H185  H     H_    0.361462 0.662643 0.278771 0.343878
C262  C     C_2   0.582975 0.702232 0.671524 0.881961
O91   O     O_2   0.620700 0.708052 0.707235 -0.558028
O92   O     O_R   0.566397 0.673132 0.686231 -0.732703
H186  H     H_    0.588783 0.658601 0.727480 0.341994
C263  C     C_2   0.912761 0.202713 0.329588 0.854096
O93   O     O_2   0.914472 0.204666 0.290900 -0.534679
O94   O     O_R   0.881742 0.177649 0.319113 -0.747115
H187  H     H_    0.862530 0.162633 0.277792 0.343828
C264  C     C_2   0.081816 0.202202 0.671567 0.881927
O95   O     O_2   0.119566 0.208045 0.707903 -0.558063
O96   O     O_R   0.064815 0.173071 0.685566 -0.732428
H188  H     H_    0.086943 0.158540 0.726896 0.341953
C265  C     C_2   0.915255 0.297620 0.329538 0.860727
O97   O     O_2   0.886385 0.318201 0.317168 -0.558612
O98   O     O_R   0.920617 0.297173 0.288995 -0.703197
H189  H     H_    0.898451 0.314968 0.250702 0.349854
C266  C     C_2   0.082967 0.297153 0.671790 0.884877
O99   O     O_2   0.109196 0.322283 0.682950 -0.552653
O100  O     O_R   0.080545 0.290102 0.715051 -0.731436
H190  H     H_    0.101964 0.307921 0.753634 0.350718
C267  C     C_2   0.414158 0.797646 0.329692 0.860909
O101  O     O_2   0.385526 0.818246 0.317996 -0.558771
O102  O     O_R   0.418896 0.797185 0.288444 -0.703047
H191  H     H_    0.396521 0.814986 0.250279 0.350075
C268  C     C_2   0.584113 0.797181 0.671713 0.884989
O103  O     O_2   0.610119 0.822329 0.682252 -0.552700
O104  O     O_R   0.582322 0.790114 0.715638 -0.731291
H192  H     H_    0.603966 0.807937 0.754120 0.350911
C269  C     C_2   0.205971 0.422127 0.678677 0.925278
O105  O     O_2   0.214761 0.397087 0.717914 -0.562402
O106  O     O_R   0.177168 0.408995 0.617534 -0.735072
H193  H     H_    0.165503 0.378422 0.611602 0.348017
C270  C     C_2   0.794138 0.422001 0.321278 0.925240
O107  O     O_2   0.785361 0.397021 0.282025 -0.562659
O108  O     O_R   0.822986 0.408810 0.382421 -0.735070
H194  H     H_    0.834693 0.378254 0.388338 0.348654
C271  C     C_2   0.705959 0.922079 0.678710 0.925616
O109  O     O_2   0.714708 0.897068 0.717943 -0.561994
O110  O     O_R   0.677187 0.908923 0.617577 -0.735021
H195  H     H_    0.665506 0.878360 0.611648 0.348257
C272  C     C_2   0.294099 0.922006 0.321245 0.925196
O111  O     O_2   0.285176 0.896981 0.281931 -0.562301
O112  O     O_R   0.323079 0.908852 0.382402 -0.735045
H196  H     H_    0.334745 0.878280 0.388271 0.348951
O113  O     O_3   0.284562 0.533549 0.864194 -0.532104
C273  C     C_3   0.326923 0.537292 0.920512 0.124923
H197  H     H_    0.341873 0.564507 0.916672 0.180395
H198  H     H_    0.346122 0.507228 0.934609 0.115520
C274  C     C_3   0.328211 0.548768 0.971057 -0.320574
H199  H     H_    0.311643 0.580537 0.960025 0.245028
H200  H     H_    0.311976 0.522552 0.973902 0.249069
C275  C     C_3   0.373093 0.552767 0.032810 -0.901918
H201  H     H_    0.389884 0.520926 0.045498 0.259855
H202  H     H_    0.372968 0.561449 0.068417 0.272618
H203  H     H_    0.389917 0.579005 0.031212 0.259508
O114  O     O_3   0.715388 0.533631 0.135786 -0.532219
C276  C     C_3   0.673021 0.537391 0.079470 0.125254
H204  H     H_    0.658033 0.564563 0.083313 0.180280
H205  H     H_    0.653865 0.507310 0.065375 0.115595
C277  C     C_3   0.671713 0.548966 0.028921 -0.320236
H206  H     H_    0.688244 0.580746 0.039957 0.244601
H207  H     H_    0.687974 0.522788 0.026064 0.249084
C278  C     C_3   0.626823 0.553003 0.967175 -0.904840
H208  H     H_    0.610062 0.521161 0.954496 0.260420
H209  H     H_    0.626929 0.561735 0.931557 0.271394
H210  H     H_    0.609982 0.579221 0.968783 0.259348
O115  O     O_3   0.784539 0.033681 0.864086 -0.532017
C279  C     C_3   0.826895 0.037479 0.920401 0.125027
H211  H     H_    0.841829 0.064677 0.916506 0.180453
H212  H     H_    0.846117 0.007422 0.934569 0.115473
C280  C     C_3   0.828165 0.049028 0.970909 -0.320636
H213  H     H_    0.811564 0.080786 0.959794 0.245032
H214  H     H_    0.811953 0.022822 0.973813 0.249092
C281  C     C_3   0.873040 0.053102 0.032654 -0.901876
H215  H     H_    0.889865 0.021274 0.045425 0.259880
H216  H     H_    0.872902 0.061837 0.068234 0.272613
H217  H     H_    0.889838 0.079332 0.030993 0.259515
O116  O     O_3   0.215341 0.033353 0.135601 -0.532438
C282  C     C_3   0.172962 0.037020 0.079291 0.125012
H218  H     H_    0.157944 0.064201 0.083063 0.180177
H219  H     H_    0.153856 0.006914 0.065306 0.115742
C283  C     C_3   0.171613 0.048507 0.028684 -0.320162
H220  H     H_    0.188088 0.080308 0.039601 0.244592
H221  H     H_    0.187913 0.022326 0.025903 0.249002
C284  C     C_3   0.126710 0.052428 0.966938 -0.904890
H222  H     H_    0.110011 0.020556 0.954371 0.260420
H223  H     H_    0.126788 0.061112 0.931279 0.271375
H224  H     H_    0.109825 0.078634 0.968472 0.259334
C285  C     C_2   0.290009 0.453467 0.866033 0.765262
O117  O     O_2   0.276795 0.444521 0.889722 -0.557002
O118  O     O_R   0.319813 0.425924 0.876384 -0.774494
H225  H     H_    0.327299 0.399694 0.903206 0.352221
C286  C     C_2   0.710056 0.453540 0.133949 0.764831
O119  O     O_2   0.723285 0.444670 0.110264 -0.557776
O120  O     O_R   0.680290 0.425951 0.123595 -0.774698
H226  H     H_    0.672840 0.399758 0.096773 0.351809
C287  C     C_2   0.790041 0.953593 0.866144 0.764993
O121  O     O_2   0.776839 0.944715 0.889865 -0.557130
O122  O     O_R   0.819851 0.926024 0.876548 -0.774504
H227  H     H_    0.827355 0.899838 0.903441 0.352194
C288  C     C_2   0.210111 0.953274 0.134156 0.765375
O123  O     O_2   0.223360 0.944281 0.110528 -0.557738
O124  O     O_R   0.180353 0.925736 0.123896 -0.774634
H228  H     H_    0.172935 0.899463 0.097201 0.351860
C289  C     C_2   0.201765 0.513962 0.789141 0.937880
O125  O     O_2   0.207556 0.552585 0.804879 -0.522778
O126  O     O_R   0.173634 0.488601 0.785552 -0.747888
H229  H     H_    0.160288 0.505831 0.797203 0.327792
C290  C     C_2   0.798214 0.514091 0.210840 0.937840
O127  O     O_2   0.792363 0.552732 0.195100 -0.522658
O128  O     O_R   0.826382 0.488792 0.214424 -0.749286
H230  H     H_    0.839699 0.506082 0.202771 0.327822
C291  C     C_2   0.701763 0.013985 0.789127 0.937760
O129  O     O_2   0.707525 0.052619 0.804813 -0.522976
O130  O     O_R   0.673663 0.988609 0.785594 -0.748014
H231  H     H_    0.660319 0.005835 0.797252 0.327768
C292  C     C_2   0.298195 0.014025 0.210806 0.938009
O131  O     O_2   0.292306 0.052658 0.195018 -0.522283
O132  O     O_R   0.326379 0.988748 0.214405 -0.749589
H232  H     H_    0.339671 0.006041 0.202713 0.327788

loop_
_geom_bond_atom_site_label_1
_geom_bond_atom_site_label_2
_ccdc_geom_bond_type
C254  H170  S    
C245  H147  S    
O100  H190  S    
C133  C137  A    
C55   C59   A    
C26   H6    S    
C97   C147  S    
C229  O65   D    
C136  C140  A    
C113  C233  S    
C243  H143  S    
O57   C205  S    
C272  O111  D    
C176  C182  A    
C103  O42   A    
C233  O73   D    
C103  C183  S    
C221  H103  S    
C69   C93   A    
C253  C254  S    
C230  O67   D    
C35   C39   A    
C139  C142  A    
C194  O62   S    
C150  H42   S    
C71   C95   A    
C173  C179  A    
C53   H9    S    
C278  H208  S    
C29   C33   A    
Cu7   O40   S    
C165  C261  S    
C257  H175  S    
C263  O93   D    
C224  C225  S    
O110  H195  S    
C149  C153  A    
C281  H215  S    
C64   C84   A    
C216  H92   S    
C224  H109  S    
C25   H5    S    
C171  C175  A    
O90   H185  S    
C239  H133  S    
C265  O98   S    
C70   C74   A    
C241  C242  S    
C98   O32   A    
C195  C199  S    
C58   H14   S    
C106  O48   A    
C238  H132  S    
C28   H8    S    
C34   C230  S    
C81   H17   S    
C106  C118  S    
C280  H214  S    
C9    C189  S    
C41   C49   A    
C279  H211  S    
C290  O128  S    
C290  O127  D    
C12   O116  S    
C25   C29   A    
C12   C192  S    
C249  H158  S    
C13   C185  T    
C116  C121  A    
C27   C31   A    
O98   H189  S    
C151  C158  A    
C46   O26   A    
C28   C32   A    
C121  C128  A    
C16   C188  T    
C152  H44   S    
C62   C66   A    
C94   H22   S    
C8    H4    S    
C240  H136  S    
C91   C191  S    
C268  O103  D    
C17   C21   T    
O66   H121  S    
Cu4   O27   S    
C19   C23   T    
C231  O69   D    
C6    C10   S    
C2    O2    A    
C113  C120  A    
C91   C195  S    
C130  O82   S    
C210  H76   S    
C101  O39   A    
C255  C256  S    
C156  C166  A    
C68   C72   A    
C282  C283  S    
C89   C193  S    
O86   C252  S    
C163  C178  A    
C1    O17   A    
C125  C191  S    
C271  O109  D    
C223  H107  S    
C126  C192  S    
C144  O86   S    
C174  C177  A    
Cu9   O45   S    
C284  H222  S    
Cu2   Cu4   S    
Cu12  O8    S    
C278  H209  S    
C143  C147  A    
C240  H137  S    
C285  O117  D    
C104  O44   A    
Cu7   O35   S    
Cu4   O20   S    
O84   C246  S    
C171  C267  S    
O118  H225  S    
C243  C244  S    
C99   C185  S    
C145  C148  A    
C56   H12   S    
C170  C174  A    
C240  C241  S    
C222  H105  S    
C152  C157  A    
C18   C190  S    
C89   O57   S    
C84   C88   A    
C253  H166  S    
C92   C196  S    
C138  C141  A    
C131  O83   S    
O124  H228  S    
C57   C61   A    
C124  C190  S    
C181  H47   S    
C182  H48   S    
C220  H100  S    
C59   C63   A    
C76   H28   S    
C60   C64   A    
C155  C163  A    
C26   C50   A    
C258  C259  S    
C262  O92   S    
C114  C234  S    
C291  O129  D    
C66   C70   A    
C280  H213  S    
C92   O60   S    
C155  C165  A    
C239  H135  S    
Cu9   O5    S    
C230  O68   S    
C124  C160  S    
O74   H125  S    
O58   C208  S    
Cu12  O11   S    
C116  C118  A    
Cu12  O48   S    
O106  H193  S    
C162  C272  S    
C234  O75   D    
C84   H20   S    
C267  O102  S    
Cu5   O33   S    
O56   H64   S    
C72   C96   A    
C61   C65   A    
C244  C245  S    
C203  O54   S    
C132  C134  A    
C273  H197  S    
C263  O94   S    
C196  C204  S    
C73   C77   A    
O88   C258  S    
C136  H40   S    
C248  H155  S    
C48   O28   A    
C75   C79   A    
C215  C216  S    
C279  C280  S    
C214  H86   S    
C19   C191  S    
C218  H96   S    
C165  C171  A    
C256  C257  S    
C166  C172  A    
C228  H118  S    
C162  C200  S    
C40   C56   A    
C100  C186  S    
O60   C214  S    
C120  C127  A    
C167  C169  A    
C274  H199  S    
C73   H25   S    
C13   C197  S    
Cu3   O18   S    
C64   C68   A    
C109  O11   A    
Cu8   O39   S    
C110  O12   A    
C149  H41   S    
C222  H104  S    
C209  C210  S    
C245  H149  S    
C236  O80   S    
C202  O52   S    
C283  H220  S    
C284  H224  S    
Cu5   O29   S    
C282  H218  S    
C129  C135  A    
C85   C93   A    
C225  H112  S    
O96   H188  S    
C219  H97   S    
C283  H221  S    
C87   C95   A    
Cu3   O25   S    
C226  H115  S    
C99   O33   A    
C124  H50   S    
C47   O23   A    
C114  C119  A    
C48   O24   A    
C175  C181  A    
C37   C53   A    
C44   C52   A    
C176  C178  A    
C112  C154  S    
O85   C249  S    
C125  H55   S    
Cu1   Cu3   S    
C126  H56   S    
C270  O107  D    
C144  C147  A    
C161  C271  S    
C211  H79   S    
C27   C51   A    
C204  O56   S    
C21   C45   S    
Cu7   Cu8   S    
C206  H68   S    
C96   H24   S    
C220  C221  S    
C247  H153  S    
C250  H160  S    
C23   C47   S    
C237  H129  S    
C30   C34   A    
C24   C48   S    
C241  H138  S    
C159  C269  S    
C5    C197  S    
C235  O78   S    
C132  O84   S    
C60   H16   S    
C283  C284  S    
C79   H35   S    
C74   H26   S    
C5    C9    S    
C260  H182  S    
C227  C228  S    
Cu5   O41   S    
O68   H122  S    
C213  H85   S    
C275  H203  S    
C8    C12   S    
C214  C215  S    
C277  H206  S    
Cu2   O24   S    
Cu9   Cu10  S    
Cu8   O44   S    
C275  H201  S    
C111  C153  S    
C157  C164  A    
C225  H111  S    
C42   C50   A    
C113  C117  A    
Cu2   O4    S    
C210  H77   S    
C255  H172  S    
C26   C30   A    
C276  C277  S    
C205  H66   S    
C150  C155  A    
C90   H30   S    
C212  C213  S    
C8    C200  S    
C174  C180  A    
O59   C211  S    
C287  O122  S    
C90   C190  S    
C238  C239  S    
Cu11  O47   S    
C254  H169  S    
O81   C237  S    
C181  C184  A    
C18   C22   T    
Cu10  O9    S    
C76   C80   A    
C135  H39   S    
C243  H144  S    
C11   O115  S    
O87   C255  S    
C3    O3    A    
C101  O35   A    
C228  H120  S    
C205  C206  S    
C102  O36   A    
C261  O90   S    
C103  O41   A    
C2    O18   A    
C115  C235  S    
C10   C286  S    
C138  C144  A    
C194  C198  S    
C83   H19   S    
C219  H99   S    
C78   H34   S    
C111  O14   A    
C49   C77   A    
C193  C201  S    
C258  H179  S    
C170  C266  S    
C37   C41   A    
C281  H216  S    
C216  H91   S    
C114  C117  A    
C44   C68   A    
O104  H192  S    
C40   C44   A    
O82   C240  S    
C239  H134  S    
C265  O97   D    
Cu1   O1    S    
C169  C173  A    
C29   C107  S    
C97   O30   A    
C46   O22   A    
C264  O95   D    
C101  C187  S    
C105  O46   A    
C211  C212  S    
C81   C85   A    
C143  O85   S    
C251  H161  S    
C286  O120  S    
C119  C127  A    
C58   C62   A    
C83   C87   A    
C88   C96   A    
C27   H7    S    
C217  H93   S    
C133  H37   S    
C257  H177  S    
C246  H151  S    
C75   H27   S    
O83   C243  S    
C223  C224  S    
C157  C167  A    
C279  H212  S    
O116  C282  S    
C179  H45   S    
C158  C168  A    
O122  H227  S    
C288  O124  S    
C259  H180  S    
C208  H72   S    
C32   C110  S    
C204  O55   D    
C251  H162  S    
C70   C94   A    
C140  C142  A    
C286  O119  D    
C260  H184  S    
C289  O126  S    
C233  O74   S    
C228  H119  S    
O126  H229  S    
C277  C278  S    
Cu4   O28   S    
C213  H83   S    
C7    C291  S    
C39   C55   A    
O63   C223  S    
C156  C163  A    
C269  O106  S    
C150  C153  A    
C209  H75   S    
C212  H81   S    
C80   H36   S    
C69   C73   A    
C112  O15   A    
C292  O132  S    
C59   H15   S    
C128  C141  A    
C110  O8    A    
C196  C200  S    
Cu6   O37   S    
C180  H46   S    
C168  C170  A    
C62   C82   A    
O102  H191  S    
O72   H124  S    
C229  O66   S    
C105  C117  S    
C50   C78   A    
C109  O7    A    
C11   C287  S    
Cu5   O38   S    
C175  C178  A    
C146  C148  A    
C232  O72   S    
C274  C275  S    
C195  O63   S    
C252  H165  S    
Cu9   O13   S    
C271  O110  S    
O76   H126  S    
C104  C184  S    
C221  H102  S    
C253  H167  S    
C140  C146  A    
Cu6   O30   S    
C53   C57   A    
C160  C198  S    
C36   C232  S    
C217  C218  S    
C93   H21   S    
C266  O99   D    
C1    O1    A    
C33   C37   A    
O50   H61   S    
C193  O61   S    
C45   O25   A    
C47   O27   A    
O94   H187  S    
C4    O20   A    
C262  O91   D    
C195  C203  S    
C172  C268  S    
C14   C198  S    
C5    C289  S    
Cu11  Cu12  S    
C38   C54   A    
C207  H71   S    
C125  H51   S    
C31   C109  S    
C126  H52   S    
Cu10  O6    S    
C245  H148  S    
C8    C292  S    
C51   C79   A    
Cu7   O43   S    
C106  O47   A    
C251  H163  S    
C4    C88   S    
C244  H146  S    
C275  H202  S    
C273  H198  S    
O64   C226  S    
C280  C281  S    
C31   C35   A    
C32   C36   A    
C55   H11   S    
C218  H95   S    
C152  C154  A    
O130  H231  S    
O80   H128  S    
C90   C194  S    
C256  H174  S    
C137  C141  A    
C249  H157  S    
C30   C108  S    
C160  H58   S    
C227  H117  S    
C125  C161  S    
C223  H108  S    
O62   C220  S    
C20   C192  S    
C272  O112  S    
Cu6   O42   S    
C269  O105  D    
O132  H232  S    
C273  C274  S    
C16   C200  S    
C135  C139  A    
C201  O49   D    
Cu3   O17   S    
C252  C253  S    
O52   H62   S    
C167  C263  S    
O54   H63   S    
C146  O88   S    
Cu10  O46   S    
C242  H142  S    
C82   C86   A    
C43   C51   A    
C98   C148  S    
C65   C69   A    
O114  C276  S    
C17   C189  S    
C67   C71   A    
C122  C128  A    
C202  O51   D    
C208  C209  S    
C9    C285  S    
C284  H223  S    
C56   C60   A    
C159  C197  S    
C278  H210  S    
C39   C43   A    
C219  H98   S    
C74   C78   A    
C63   C83   A    
O115  C279  S    
C285  O118  S    
C104  O43   A    
C89   C189  S    
C12   C288  S    
Cu4   O19   S    
C61   C81   A    
Cu11  O12   S    
C52   C80   A    
C7    H3    S    
C92   C192  S    
C9    O113  S    
C249  C250  S    
C222  H106  S    
C166  C262  S    
C232  O71   D    
C28   C52   A    
C203  O53   D    
C90   O58   S    
O128  H230  S    
C221  C222  S    
C3    O19   A    
C72   C76   A    
C211  H80   S    
O113  C273  S    
Cu12  O16   S    
C254  H168  S    
C145  O87   S    
Cu5   Cu6   S    
C161  H59   S    
C7    C11   S    
C220  H101  S    
C247  C248  S    
C162  H60   S    
C250  H159  S    
C160  C270  S    
C237  H130  S    
C244  H145  S    
C120  C130  A    
Cu8   O36   S    
C169  C265  S    
C149  C156  A    
C241  H139  S    
O61   C217  S    
C38   C42   A    
C291  O130  S    
C168  C264  S    
C14   C186  T    
C193  C197  S    
C54   H10   S    
C242  H141  S    
C196  O64   S    
C256  H173  S    
C100  O38   A    
C270  O108  S    
C248  H154  S    
C151  C154  A    
C234  O76   S    
C86   C94   A    
C119  C129  A    
C215  H88   S    
C20   C24   T    
C91   O59   S    
Cu1   O22   S    
C214  H87   S    
Cu11  O7    S    
C6    H2    S    
C246  H150  S    
C123  C189  S    
C11   C191  S    
C180  C183  A    
C158  C164  A    
Cu1   O2    S    
C218  C219  S    
C100  O34   A    
C25   C49   A    
C115  C118  A    
C224  H110  S    
C137  C143  A    
C102  O40   A    
C208  H73   S    
C115  C122  A    
Cu6   O34   S    
C209  H74   S    
C116  C236  S    
C212  H82   S    
C107  O9    A    
C95   H23   S    
C121  C131  A    
C108  O6    A    
C122  C132  A    
C257  H176  S    
C264  O96   S    
C179  C183  A    
C274  H200  S    
C1    C85   S    
C63   C67   A    
C194  C202  S    
C282  H219  S    
C161  C199  S    
C266  O100  S    
C3    C87   S    
C4    O4    A    
Cu7   O31   S    
C36   C40   A    
Cu11  O15   S    
Cu8   O32   S    
C225  H113  S    
O92   H186  S    
C6    C198  S    
C6    C290  S    
C41   C65   A    
C201  O50   S    
C15   C187  T    
C159  H57   S    
C237  C238  S    
Cu1   O21   S    
C102  C188  S    
Cu9   O10   S    
O78   H127  S    
C277  H207  S    
C127  C142  A    
C35   C231  S    
C242  H140  S    
C238  H131  S    
C98   O31   A    
C15   C199  S    
C123  H53   S    
C226  H114  S    
C173  C177  A    
C258  H178  S    
C33   C229  S    
Cu3   O26   S    
C261  O89   D    
C111  O13   A    
C226  C227  S    
C207  H69   S    
C281  H217  S    
C216  H90   S    
C10   C190  S    
C43   C67   A    
C91   H31   S    
C235  O77   D    
C89   H29   S    
C99   O37   A    
C134  H38   S    
C97   O29   A    
C107  O5    A    
C105  O45   A    
C108  O10   A    
C151  H43   S    
C227  H116  S    
C54   C58   A    
C206  C207  S    
C247  H152  S    
C139  C145  A    
C250  C251  S    
C217  H94   S    
C182  C184  A    
C22   C46   S    
C34   C38   A    
C45   O21   A    
C130  C136  A    
C131  C133  A    
C268  O104  S    
C134  C138  A    
C276  H204  S    
C82   H18   S    
C231  O70   S    
C288  O123  D    
C259  H181  S    
C248  H156  S    
C129  O81   S    
O112  H196  S    
C57   H13   S    
O108  H194  S    
C260  H183  S    
C289  O125  D    
C71   C75   A    
C92   H32   S    
C267  O101  D    
C287  O121  D    
C123  H49   S    
Cu10  O14   S    
C5    H1    S    
C124  H54   S    
Cu2   O23   S    
C246  C247  S    
C215  H89   S    
C2    C86   S    
C77   H33   S    
C7    C199  S    
C236  O79   D    
C213  H84   S    
C123  C159  S    
C10   O114  S    
O70   H123  S    
C172  C176  A    
Cu2   O3    S    
C210  H78   S    
C255  H171  S    
C259  C260  S    
C276  H205  S    
C205  H65   S    
C207  H70   S    
C42   C66   A    
C206  H67   S    
C112  O16   A    
C292  O131  D    
C126  C162  S    
C252  H164  S    
C164  C177  A    
O120  H226  S    
