data_mof_unit_52480.cif
_audit_creation_date              2013-03-05T15:41:55-0500
_audit_creation_method            fapswitch 2.2
_symmetry_space_group_name_H-M    P1
_symmetry_Int_Tables_number       1
_space_group_crystal_system       triclinic
_cell_length_a                    19.455959
_cell_length_b                    7.264212
_cell_length_c                    17.715172
_cell_angle_alpha                 90.002704
_cell_angle_beta                  107.628144
_cell_angle_gamma                 90.006037
_cell_volume                      2386.15457894

loop_
_atom_site_label
_atom_site_type_symbol
_atom_site_description
_atom_site_fract_x
_atom_site_fract_y
_atom_site_fract_z
_atom_type_partial_charge
O1    O     O_R   0.414820 0.494320 0.416790 -0.549650
O2    O     O_R   0.585180 0.994320 0.583210 -0.549725
O3    O     O_R   0.560270 0.819500 0.430140 -0.551742
O4    O     O_R   0.439730 0.319500 0.569860 -0.551695
C1    C     C_R   0.582207 0.655413 0.415982 0.886343
C2    C     C_R   0.417792 0.155409 0.584017 0.886720
O5    O     O_R   0.413840 0.823740 0.407440 -0.521177
O6    O     O_R   0.586160 0.323740 0.592560 -0.521214
O7    O     O_R   0.437710 0.998590 0.560350 -0.519603
O8    O     O_R   0.562290 0.498590 0.439650 -0.519597
C3    C     C_R   0.387715 0.655925 0.385867 0.913379
C4    C     C_R   0.612280 0.155950 0.614139 0.913826
O9    O     O_3   0.508000 0.662290 0.550200 -0.269788
O10   O     O_3   0.492000 0.162290 0.449800 -0.269644
V1    V     V_3+5 0.498520 0.935380 0.490690 1.332118
V2    V     V_3+5 0.501480 0.435380 0.509310 1.332086
C5    C     C_2   0.776504 0.264693 0.795367 0.196586
C6    C     C_2   0.223416 0.764880 0.204752 0.196395
C7    C     C_2   0.812530 0.108663 0.827572 0.070206
C8    C     C_2   0.187451 0.608809 0.172455 0.069987
C9    C     C_2   0.700153 0.259217 0.741755 0.293133
C10   C     C_2   0.299742 0.759559 0.258432 0.293133
C11   C     C_2   0.682530 0.150208 0.676497 -0.161616
C12   C     C_2   0.317451 0.650087 0.323529 -0.161592
H1    H     H_    0.723250 0.063090 0.664516 0.099250
H2    H     H_    0.276813 0.562496 0.335410 0.099462
C13   C     C_R   0.314189 0.005504 0.619702 0.359395
C14   C     C_R   0.685787 0.505506 0.380273 0.359441
C15   C     C_R   0.366516 0.146855 0.631520 -0.177284
C16   C     C_R   0.633477 0.646861 0.368471 -0.177284
C17   C     C_R   0.370252 0.282383 0.689230 -0.044552
C18   C     C_R   0.629747 0.782373 0.310762 -0.044729
C19   C     C_R   0.322179 0.283394 0.734798 -0.035935
C20   C     C_R   0.677811 0.783362 0.265183 -0.035922
C21   C     C_R   0.271602 0.137993 0.724760 -0.033013
C22   C     C_R   0.728381 0.637975 0.275220 -0.033009
C23   C     C_R   0.267893 0.998256 0.667728 0.028012
C24   C     C_R   0.732078 0.498252 0.332245 0.028004
C25   C     C_R   0.324401 0.422994 0.791769 0.350563
C26   C     C_R   0.675587 0.922920 0.208201 0.350553
C27   C     C_R   0.276552 0.415116 0.837194 -0.110290
C28   C     C_R   0.723443 0.915053 0.162785 -0.110276
C29   C     C_R   0.226570 0.271926 0.827610 -0.008482
C30   C     C_R   0.773424 0.771889 0.172375 -0.008481
C31   C     C_R   0.224332 0.132019 0.771806 0.064720
C32   C     C_R   0.775650 0.631994 0.228173 0.064721
C33   C     C_R   0.174724 0.985804 0.763129 0.069046
C34   C     C_R   0.825244 0.485781 0.236843 0.069054
C35   C     C_R   0.171792 0.848193 0.707029 -0.112852
C36   C     C_R   0.828157 0.348171 0.292931 -0.112843
C37   C     C_R   0.217081 0.855293 0.659311 -0.022516
C38   C     C_R   0.782870 0.355278 0.340650 -0.022474
C39   C     C_R   0.178821 0.266512 0.873310 -0.056351
C40   C     C_R   0.821179 0.766483 0.126684 -0.056293
C41   C     C_R   0.129759 0.120280 0.865365 -0.100189
C42   C     C_R   0.870231 0.620260 0.134624 -0.100157
C43   C     C_R   0.128464 0.979783 0.810383 -0.109516
C44   C     C_R   0.871506 0.479761 0.189592 -0.109535
H3    H     H_    0.412145 0.385236 0.698939 0.192220
H4    H     H_    0.587866 0.885230 0.301064 0.192167
H5    H     H_    0.278066 0.523051 0.879945 0.131266
H6    H     H_    0.721931 0.022966 0.120031 0.131275
H7    H     H_    0.180796 0.374501 0.916180 0.104141
H8    H     H_    0.819217 0.874470 0.083822 0.104104
H9    H     H_    0.090603 0.866847 0.803443 0.097300
H10   H     H_    0.909356 0.366826 0.196525 0.097274
H11   H     H_    0.133927 0.735204 0.699538 0.082259
H12   H     H_    0.866007 0.235176 0.300410 0.082228
H13   H     H_    0.212052 0.746909 0.616120 0.134725
H14   H     H_    0.787878 0.246891 0.383829 0.134690
O11   O     O_R   0.937810 0.773680 0.060480 -0.559835
O12   O     O_R   0.062190 0.273680 0.939520 -0.559827
O13   O     O_R   0.086190 0.439740 0.092580 -0.508906
O14   O     O_R   0.913810 0.939740 0.907420 -0.508917
C45   C     C_R   0.113835 0.607847 0.113161 0.789986
C46   C     C_R   0.886161 0.107816 0.886842 0.789986
O15   O     O_R   0.939760 0.444210 0.069890 -0.564416
O16   O     O_R   0.060240 0.944210 0.930110 -0.564387
O17   O     O_R   0.914790 0.269640 0.916760 -0.524986
O18   O     O_R   0.085210 0.769640 0.083240 -0.524987
C47   C     C_R   0.919258 0.612457 0.084880 0.843856
C48   C     C_R   0.080739 0.112463 0.915117 0.843892
O19   O     O_3   0.992050 0.601530 0.949880 -0.262661
O20   O     O_3   0.007950 0.101530 0.050120 -0.262653
V3    V     V_3+5 0.001480 0.328340 0.009300 1.267477
V4    V     V_3+5 0.998520 0.828340 0.990700 1.267515
N1    N     N_R   0.811494 0.439972 0.810675 0.132722
O21   O     O_R   0.858055 0.483419 0.774185 -0.312084
O22   O     O_R   0.809963 0.533504 0.872807 -0.257079
N2    N     N_R   0.188435 0.940120 0.189308 0.132912
O23   O     O_R   0.141805 0.983737 0.225681 -0.312122
O24   O     O_R   0.190086 0.033468 0.127177 -0.257330
N3    N     N_R   0.776490 0.934871 0.809841 0.085219
O25   O     O_R   0.792787 0.823976 0.760320 -0.272642
O26   O     O_R   0.721897 0.897967 0.835255 -0.270761
N4    N     N_R   0.223585 0.435146 0.190026 0.085292
O27   O     O_R   0.207416 0.323906 0.239514 -0.272290
O28   O     O_R   0.278135 0.398692 0.164479 -0.270656
N5    N     N_R   0.645932 0.368214 0.761505 0.113308
O29   O     O_R   0.663399 0.520597 0.801167 -0.210757
O30   O     O_R   0.581216 0.302962 0.749864 -0.344617
N6    N     N_R   0.353896 0.869325 0.238954 0.113007
O31   O     O_R   0.336578 0.023719 0.200802 -0.210125
O32   O     O_R   0.418436 0.803737 0.249695 -0.343981
N7    N     N_R   0.305792 0.875132 0.556612 0.071568
O33   O     O_R   0.284305 0.930420 0.483335 -0.368553
O34   O     O_R   0.324155 0.703873 0.572297 -0.347976
N8    N     N_R   0.694167 0.375122 0.443346 0.071549
O35   O     O_R   0.675690 0.203922 0.427645 -0.347898
O36   O     O_R   0.715788 0.430353 0.516639 -0.368471
N9    N     N_R   0.374515 0.573813 0.804816 0.096264
O37   O     O_R   0.405279 0.632778 0.876495 -0.273085
O38   O     O_R   0.379576 0.672771 0.745567 -0.343259
N10   N     N_R   0.625458 0.073670 0.195127 0.096257
O39   O     O_R   0.594685 0.132517 0.123436 -0.273055
O40   O     O_R   0.620397 0.172710 0.254354 -0.343255

loop_
_geom_bond_atom_site_label_1
_geom_bond_atom_site_label_2
_geom_bond_distance
_ccdc_geom_bond_type
N1    O21   1.301065 A    
N3    O25   1.299064 A    
C13   C15   1.416082 A    
C27   C29   1.398646 A    
N9    O37   1.301424 A    
O1    C3    1.334738 A    
C46   O17   1.339405 A    
C27   H5    1.084254 S    
O2    C4    1.334760 A    
C2    O7    1.312285 A    
O12   V3    1.991315 S    
C42   C47   1.482818 S    
C33   C35   1.398492 A    
O5    C3    1.331407 A    
N7    O34   1.300977 A    
C4    C11   1.475018 S    
C19   C25   1.422067 A    
O14   C46   1.339541 A    
C20   C26   1.422052 A    
C7    C46   1.497894 S    
C21   C23   1.418472 A    
C12   H2    1.083969 S    
C23   C37   1.410160 A    
C24   C38   1.410131 A    
C13   N7    1.435976 S    
C3    C12   1.475047 S    
N8    O35   1.300973 A    
C31   C33   1.411820 A    
C17   H3    1.080318 S    
O18   V4    2.009874 S    
C5    C7    1.363629 D    
C44   H10   1.084323 S    
C26   N10   1.437882 S    
C42   C44   1.405690 A    
C35   C37   1.394551 A    
N4    O28   1.300898 A    
C36   C38   1.394553 A    
C17   C19   1.408470 A    
C22   C32   1.416520 A    
O15   C47   1.337003 A    
C45   O18   1.339345 A    
C28   H6    1.084242 S    
C20   C22   1.417505 A    
C7    N3    1.431968 S    
O16   V4    2.020665 S    
C34   C36   1.398479 A    
C8    N4    1.431864 S    
O15   V3    2.020729 S    
O6    V2    2.018858 S    
C6    C10   1.501912 S    
O13   C45   1.339597 A    
C28   C30   1.398640 A    
C30   C32   1.409202 A    
N10   O39   1.301431 A    
C40   C42   1.406318 A    
C39   C41   1.406334 A    
C9    C11   1.356783 D    
C32   C34   1.411804 A    
C6    N2    1.430367 S    
O20   V3    1.788397 S    
O4    C2    1.315551 A    
C29   C39   1.405527 A    
C5    C9    1.501916 S    
C8    C45   1.497859 S    
C18   C20   1.408487 A    
O4    V2    2.020630 S    
C33   C43   1.403219 A    
O11   V4    1.991288 S    
O16   C48   1.336988 A    
N2    O24   1.301465 A    
N5    O29   1.299886 A    
C14   C24   1.414917 A    
O6    C4    1.331362 A    
N4    O27   1.299063 A    
C2    C15   1.488555 S    
N9    O38   1.300303 A    
O1    V2    2.009701 S    
O14   V4    2.018762 S    
C41   C48   1.482813 S    
N6    O32   1.302067 A    
O2    V1    2.009592 S    
C29   C31   1.409227 A    
O13   V3    2.018567 S    
N5    O30   1.301983 A    
C41   C43   1.405710 A    
C10   C12   1.356643 D    
C18   H4    1.080315 S    
C22   C24   1.418446 A    
C21   C31   1.416522 A    
O17   V3    2.009766 S    
O3    V1    2.020694 S    
C1    C16   1.488560 S    
C35   H11   1.083826 S    
C5    N1    1.430438 S    
C43   H9    1.084342 S    
C26   C28   1.404000 A    
O3    C1    1.315578 A    
N10   O40   1.300268 A    
C34   C44   1.403224 A    
N7    O33   1.300989 A    
C10   N6    1.443955 S    
C14   C16   1.416063 A    
O7    V1    2.004449 S    
C1    O8    1.312282 A    
C15   C17   1.405200 A    
O8    V2    2.004419 S    
C16   C18   1.405202 A    
C25   N9    1.437920 S    
C39   H7    1.084384 S    
N2    O23   1.301061 A    
C40   H8    1.084364 S    
C14   N8    1.435941 S    
C9    N5    1.444256 S    
O5    V1    2.018663 S    
C19   C21   1.417515 A    
N8    O36   1.301095 A    
C6    C8    1.363680 D    
C11   H1    1.084035 S    
N6    O31   1.300160 A    
C38   H14   1.081414 S    
C30   C40   1.405523 A    
O19   V4    1.788309 S    
C25   C27   1.404005 A    
N3    O26   1.300885 A    
O9    V2    1.789403 S    
N1    O22   1.301455 A    
O10   V1    1.789491 S    
C37   H13   1.081417 S    
C36   H12   1.083804 S    
O12   C48   1.335356 A    
C13   C23   1.414947 A    
O11   C47   1.335365 A    
