data_mof_unit_58210.cif
_audit_creation_date              2012-12-11T15:15:25-0500
_audit_creation_method            fapswitch 2.2
_symmetry_space_group_name_H-M    P1
_symmetry_Int_Tables_number       1
_space_group_crystal_system       triclinic
_cell_length_a                    18.910429
_cell_length_b                    19.407461
_cell_length_c                    20.383902
_cell_angle_alpha                 107.391273
_cell_angle_beta                  105.964659
_cell_angle_gamma                 111.806385
_cell_volume                      5965.77595862

loop_
_atom_site_label
_atom_site_type_symbol
_atom_type_description
_atom_site_fract_x
_atom_site_fract_y
_atom_site_fract_z
_atom_type_partial_charge
C1    C     C_R   0.050907 0.087016 0.344799 -0.101214
C2    C     C_R   0.246678 0.070460 0.541438 -0.116853
C3    C     C_R   0.157962 0.219258 0.712359 -0.014131
C4    C     C_R   0.761935 0.925132 0.506262 -0.132772
C5    C     C_R   0.017190 0.775348 0.448899 -0.146626
C6    C     C_R   0.236168 0.265819 0.715068 -0.061633
C7    C     C_R   0.981646 0.735255 0.486179 0.082413
C8    C     C_R   0.255787 0.000006 0.528713 0.069640
C9    C     C_R   0.943511 0.975796 0.715361 0.016042
C10   C     C_R   0.057464 0.671315 0.529909 -0.210778
C11   C     C_R   0.981365 0.663330 0.487024 0.083954
C12   C     C_R   0.759385 0.991330 0.553566 0.015232
C13   C     C_R   0.907286 0.587399 0.441628 -0.251991
C14   C     C_R   0.909459 0.515981 0.437314 0.143463
C15   C     C_R   0.986653 0.522836 0.480177 0.028250
C16   C     C_R   0.838014 0.794246 0.282507 -0.076731
C17   C     C_R   0.060700 0.601057 0.527397 0.111465
C18   C     C_R   0.836394 0.438295 0.390969 -0.189533
C19   C     C_R   0.839295 0.366973 0.387802 -0.177459
C20   C     C_R   0.915282 0.373503 0.430894 0.123906
C21   C     C_R   0.989640 0.451794 0.476710 0.037898
C22   C     C_R   0.066553 0.459164 0.520832 0.123899
C23   C     C_R   0.755039 0.766814 0.273856 0.045532
C24   C     C_R   0.139561 0.536654 0.567352 -0.177612
C25   C     C_R   0.136462 0.607751 0.571020 -0.099936
C26   C     C_R   0.917961 0.303627 0.431662 -0.157808
C27   C     C_R   0.993552 0.312993 0.477853 0.193427
C28   C     C_R   0.966147 0.212642 0.532925 0.540559
C29   C     C_R   0.068029 0.388889 0.520288 -0.192611
C30   C     C_R   0.410453 0.070189 0.612116 -0.231824
C31   C     C_R   0.333039 0.996847 0.564044 0.072816
C32   C     C_R   0.330452 0.919810 0.544856 -0.135161
C33   C     C_R   0.404871 0.915080 0.561270 -0.088234
C34   C     C_R   0.994866 0.244598 0.487358 -0.122921
C35   C     C_R   0.482932 0.990178 0.601348 -0.012315
C36   C     C_R   0.485626 0.067476 0.630581 0.177718
C37   C     C_R   0.403538 0.838076 0.532994 0.568155
C38   C     C_R   0.478512 0.838027 0.536724 -0.343899
C39   C     C_R   0.554245 0.912739 0.569250 0.059562
C40   C     C_R   0.759843 0.797735 0.346585 -0.162936
C41   C     C_R   0.557625 0.988756 0.605881 0.038427
C42   C     C_R   0.634238 0.064095 0.640150 0.142616
C43   C     C_R   0.637622 0.139754 0.676502 -0.153923
C44   C     C_R   0.563455 0.141458 0.671512 -0.207196
C45   C     C_R   0.233626 0.223390 0.646414 -0.133558
C46   C     C_R   0.624439 0.913054 0.559225 -0.181343
C47   C     C_R   0.696870 0.988665 0.584114 0.079308
C48   C     C_R   0.703879 0.063355 0.630364 -0.225188
C49   C     C_R   0.297642 0.353971 0.765451 0.125243
C50   C     C_R   0.270821 0.412073 0.787012 -0.194781
C51   C     C_R   0.330116 0.495117 0.836656 -0.152988
C52   C     C_R   0.048054 0.218477 0.471808 -0.239921
C53   C     C_R   0.416711 0.520921 0.863894 0.212176
C54   C     C_R   0.443296 0.464337 0.836839 -0.168345
C55   C     C_R   0.384021 0.381134 0.788068 -0.157982
C56   C     C_R   0.940883 0.771329 0.516354 -0.134587
C57   C     C_R   0.619652 0.731969 0.080690 -0.174833
C58   C     C_R   0.689698 0.760478 0.147489 -0.100415
C59   C     C_R   0.599132 0.682408 0.192948 -0.183502
C60   C     C_R   0.528816 0.652856 0.125446 -0.161203
C61   C     C_R   0.539069 0.675030 0.067777 0.215704
C62   C     C_2   0.480333 0.601886 0.928973 -0.217653
C63   C     C_2   0.467545 0.627893 0.991334 -0.208889
C64   C     C_R   0.832619 0.061752 0.573956 0.017557
C65   C     C_R   0.680269 0.733970 0.203002 0.176291
C66   C     C_R   0.963259 0.028574 0.203683 0.137849
C67   C     C_R   0.177544 0.931640 0.475294 -0.120819
C68   C     C_R   0.875831 0.980120 0.157265 -0.126348
C69   C     C_R   0.839436 0.989285 0.093309 -0.203353
C70   C     C_R   0.890399 0.046236 0.074291 0.003792
C71   C     C_R   0.977773 0.095893 0.122013 -0.061616
C72   C     C_R   0.013740 0.087921 0.186848 -0.202277
C73   C     C_R   0.811571 0.994023 0.820640 -0.010425
C74   C     C_R   0.846706 0.997977 0.769100 -0.184296
C75   C     C_R   0.921492 0.930233 0.812240 -0.160767
C76   C     C_R   0.977325 0.948837 0.280805 -0.147783
C77   C     C_R   0.888181 0.928246 0.864995 -0.179987
C78   C     C_R   0.985962 0.048961 0.711643 -0.118766
C79   C     C_R   0.835737 0.962931 0.871405 0.232398
C80   C     C_2   0.856325 0.045587 0.999405 0.446045
C81   C     C_2   0.814659 0.971682 0.936451 -0.407353
C82   C     C_R   0.903368 0.967903 0.766298 0.127429
C83   C     C_R   0.000106 0.021363 0.272779 0.033684
C84   C     C_2   0.128588 0.249274 0.768587 0.458706
C85   C     C_2   0.864675 0.750851 0.230130 0.473631
C86   C     C_R   0.920093 0.911171 0.647648 -0.131908
H1    H     H_    0.082557 0.151373 0.357328 0.097179
H2    H     H_    0.777198 0.432892 0.357848 0.137546
H3    H     H_    0.722021 0.860236 0.489419 0.094870
H4    H     H_    0.782201 0.307070 0.352660 0.139419
H5    H     H_    0.861383 0.242949 0.399368 0.131635
H6    H     H_    0.125673 0.393309 0.555864 0.126755
H7    H     H_    0.198339 0.542237 0.601745 0.141680
H8    H     H_    0.192774 0.667751 0.608466 0.171144
H9    H     H_    0.413314 0.129935 0.630521 0.114930
H10   H     H_    0.270427 0.863498 0.512140 0.184366
H11   H     H_    0.477089 0.779740 0.510533 0.191770
H12   H     H_    0.900152 0.749819 0.542435 0.102798
H13   H     H_    0.619291 0.854749 0.526147 0.119709
H14   H     H_    0.760115 0.122367 0.652745 0.159110
H15   H     H_    0.696564 0.197960 0.704101 0.154378
H16   H     H_    0.566359 0.200931 0.695409 0.136780
H17   H     H_    0.204288 0.393483 0.766004 0.153206
H18   H     H_    0.751467 0.803026 0.155626 0.110732
H19   H     H_    0.590479 0.663102 0.236134 0.125454
H20   H     H_    0.404612 0.596806 0.987971 0.140654
H21   H     H_    0.510028 0.483461 0.857241 0.126523
H22   H     H_    0.629003 0.752319 0.038249 0.118234
H23   H     H_    0.161927 0.867793 0.449625 0.108480
H24   H     H_    0.405571 0.337454 0.769874 0.121421
H25   H     H_    0.544219 0.626639 0.933529 0.140999
H26   H     H_    0.308557 0.538557 0.855559 0.132249
H27   H     H_    0.466998 0.609168 0.116574 0.128475
H28   H     H_    0.835636 0.936166 0.171221 0.106779
H29   H     H_    0.830545 0.025131 0.732018 0.131267
H30   H     H_    0.964009 0.905570 0.809405 0.128854
H31   H     H_    0.793641 0.915482 0.943963 0.129976
H32   H     H_    0.019024 0.138579 0.107632 0.180169
H33   H     H_    0.768076 0.017429 0.822469 0.159570
H34   H     H_    0.997968 0.107916 0.750065 0.176064
H35   H     H_    0.081238 0.126427 0.222701 0.127347
H36   H     H_    0.707945 0.788700 0.362013 0.111759
H37   H     H_    0.771929 0.950539 0.057624 0.125444
H38   H     H_    0.906415 0.903044 0.903336 0.129795
H39   H     H_    0.092055 0.244124 0.450140 0.138732
H40   H     H_    0.860036 0.118974 0.623789 0.176675
H41   H     H_    0.939199 0.887647 0.234193 0.094317
H42   H     H_    0.276872 0.248595 0.623651 0.106945
H43   H     H_    0.173400 0.288918 0.828207 0.030843
H44   H     H_    0.191323 0.681190 0.386629 0.375329
H45   H     H_    0.873498 0.846909 0.626329 0.100738
H46   H     H_    0.931160 0.769117 0.248281 0.016153
H47   H     H_    0.899130 0.358585 0.614583 0.378569
H48   H     H_    0.888594 0.210458 0.098075 0.341858
H49   H     H_    0.295029 0.134124 0.579179 0.094001
H50   H     H_    0.043043 0.754656 0.410913 0.116504
H51   H     H_    0.113780 0.732128 0.564476 0.154192
H52   H     H_    0.849334 0.584292 0.408617 0.134292
N1    N     N_R   0.052580 0.056040 0.395500 -0.037617
N2    N     N_R   0.890210 0.849400 0.355780 -0.072113
N3    N     N_R   0.997110 0.161140 0.539580 -0.102472
N4    N     N_R   0.841950 0.845400 0.395490 -0.041368
N5    N     N_R   0.045360 0.165140 0.499870 -0.064882
N6    N     N_R   0.877490 0.041510 0.539580 -0.060869
N7    N     N_R   0.009820 0.969030 0.355780 -0.045609
N8    N     N_R   0.158050 0.154600 0.604510 -0.048356
N9    N     N_R   0.954640 0.834860 0.500130 -0.039857
N10   N     N_R   0.122510 0.958490 0.460420 -0.044394
N11   N     N_R   0.990180 0.030970 0.644220 -0.044958
N12   N     N_R   0.947420 0.943960 0.604500 -0.043776
N13   N     N_R   0.165270 0.045500 0.500140 -0.043349
N14   N     N_R   0.109790 0.150600 0.644220 -0.046179
N15   N     N_R   0.002890 0.838860 0.460420 -0.045930
N16   N     N_R   0.834730 0.954500 0.499860 -0.050388
Ni1   Ni    Ni4+2 0.104370 0.104380 0.500010 0.210452
Ni2   Ni    Ni4+2 0.895630 0.895620 0.499990 0.203417
Ni3   Ni    Ni4+2 0.006300 0.904810 0.408930 0.208722
Ni4   Ni    Ni4+2 0.993700 0.095190 0.591070 0.294621
O1    O     O_2   0.055751 0.234584 0.748736 -0.543416
O2    O     O_2   0.819598 0.143333 0.942707 -0.290252
O3    O     O_3   0.935121 0.220998 0.082271 -0.498032
O4    O     O_2   0.327968 0.670792 0.474570 -0.273662
O5    O     O_2   0.263269 0.740216 0.537334 -0.356998
O6    O     O_3   0.247322 0.728957 0.403222 -0.542938
O7    O     O_2   0.812933 0.693203 0.167321 -0.567696
O8    O     O_2   0.822655 0.193796 0.543296 -0.340782
O9    O     O_2   0.949275 0.259860 0.664326 -0.262806
O10   O     O_3   0.935932 0.345898 0.592498 -0.539234
O11   O     O_2   0.958137 0.153918 0.965151 -0.252479
S1    S     S_3+6 0.309034 0.741118 0.487669 -0.059487
S2    S     S_3+6 0.916706 0.251347 0.584983 -0.067951
S3    S     S_3+6 0.892247 0.142025 0.994887 -0.023836

loop_
_geom_bond_atom_site_label_1
_geom_bond_atom_site_label_2
_ccdc_geom_bond_type
C1    H1    S    
C5    H50   S    
C4    N16   A    
C46   H13   S    
C51   H26   S    
C73   H33   S    
C6    C45   A    
C40   N4    A    
C72   H35   S    
C27   C29   A    
C41   C42   A    
C14   C18   A    
C66   C68   A    
C35   C36   A    
N10   N13   A    
C56   H12   S    
C3    C6    A    
N11   N12   A    
C39   C41   A    
C53   C54   A    
C7    C11   S    
C3    N14   A    
C30   H9    S    
C54   H21   S    
C22   C29   A    
N2    N4    A    
C12   C47   S    
C85   H46   S    
C30   C31   A    
N2    Ni3   S    
C5    N15   A    
C86   H45   S    
C69   H37   S    
C10   C17   A    
C23   C40   A    
C81   H31   S    
C84   H43   S    
C18   C19   A    
C73   C74   A    
C61   C63   S    
O5    S1    D    
C58   C65   A    
C66   C83   S    
C46   C47   A    
O3    S3    S    
O6    S1    S    
C67   H23   S    
O10   S2    S    
C66   C72   A    
C62   H25   S    
C47   C48   A    
C68   C69   A    
C70   C71   A    
C10   H51   S    
N13   Ni1   S    
C4    C12   A    
N11   Ni4   S    
N16   Ni2   S    
C1    N1    A    
C9    C82   S    
N10   Ni3   S    
C28   C34   A    
C50   H17   S    
N12   Ni2   S    
C13   C14   A    
N15   Ni3   S    
C60   H27   S    
C16   N2    A    
C7    C56   A    
C74   C82   A    
C38   H11   S    
N9    N15   A    
C76   C83   A    
C84   O1    D    
C77   C79   A    
C27   C34   S    
C73   C79   A    
C48   H14   S    
N14   Ni4   S    
C52   N5    A    
N8    Ni1   S    
C70   C80   S    
C45   N8    A    
C24   C25   A    
H47   O10   S    
C37   S1    S    
C5    C7    A    
C44   H16   S    
O9    S2    D    
C64   N6    A    
C26   H5    S    
C49   C55   A    
C33   C37   A    
C60   C61   A    
C51   C53   A    
N3    N5    A    
C42   C48   A    
C78   H34   S    
C43   C44   A    
C43   H15   S    
C37   C38   A    
C9    C86   A    
N7    Ni3   S    
C53   C62   S    
C28   S2    S    
N5    Ni1   S    
C31   C32   A    
O4    S1    D    
N1    Ni1   S    
C62   C63   D    
C50   C51   A    
O2    S3    D    
C59   H19   S    
C63   H20   S    
N9    Ni2   S    
C75   C77   A    
O8    S2    D    
C39   C46   A    
N8    N14   A    
C32   H10   S    
C76   N7    A    
C16   C23   A    
C64   H40   S    
C55   H24   S    
C26   C27   A    
C16   C85   S    
O11   S3    D    
C22   C24   A    
C36   C44   A    
C58   H18   S    
C42   C43   A    
C80   S3    S    
N6    Ni4   S    
C67   N10   A    
C79   C81   S    
C4    H3    S    
H44   O6    S    
C2    N13   A    
C15   C17   A    
C54   C55   A    
N1    N7    A    
C71   H32   S    
C8    C31   S    
C2    C8    A    
C80   C81   D    
C52   H39   S    
C75   C82   A    
C57   C61   A    
C28   N3    A    
C1    C83   A    
C40   H36   S    
C34   C52   A    
C2    H49   S    
H48   O3    S    
C30   C36   A    
C17   C25   A    
C13   H52   S    
C23   C65   S    
C19   C20   A    
C86   N12   A    
C85   O7    D    
C71   C72   A    
C19   H4    S    
C24   H7    S    
C32   C33   A    
C11   C13   A    
C57   C58   A    
C38   C39   A    
C15   C21   A    
C20   C26   A    
C56   N9    A    
C12   C64   A    
C74   H29   S    
C33   C35   A    
C9    C78   A    
C6    C49   S    
N6    N16   A    
C69   C70   A    
C35   C41   A    
C18   H2    S    
C10   C11   A    
N3    Ni4   S    
C59   C60   A    
C57   H22   S    
C20   C21   A    
C8    C67   A    
C49   C50   A    
C25   H8    S    
C3    C84   S    
C77   H38   S    
C76   H41   S    
C14   C15   A    
C75   H30   S    
C45   H42   S    
N4    Ni2   S    
C21   C22   A    
C29   H6    S    
C59   C65   A    
C78   N11   A    
C68   H28   S    
