data_mof_unit_38071.cif
_audit_creation_date              2013-03-05T16:44:39-0500
_audit_creation_method            fapswitch 2.2
_symmetry_space_group_name_H-M    P1
_symmetry_Int_Tables_number       1
_space_group_crystal_system       triclinic
_cell_length_a                    27.732394
_cell_length_b                    10.662287
_cell_length_c                    9.844084
_cell_angle_alpha                 90.030506
_cell_angle_beta                  90.204893
_cell_angle_gamma                 90.158392
_cell_volume                      2910.77435975

loop_
_atom_site_label
_atom_site_type_symbol
_atom_site_description
_atom_site_fract_x
_atom_site_fract_y
_atom_site_fract_z
_atom_type_partial_charge
O1    O     O_R   0.500010 0.316790 0.614690 -0.615669
O2    O     O_R   0.500000 0.316760 0.385350 -0.624815
C1    C     C_R   0.501404 0.259875 0.500062 0.883603
O3    O     O_R   0.428760 0.500040 0.614660 -0.623650
O4    O     O_R   0.428750 0.500000 0.385310 -0.619215
C2    C     C_R   0.406049 0.500369 0.499923 0.887103
Zn1   Zn    Zn3+2 0.500000 0.500020 0.653130 0.996174
Zn2   Zn    Zn3+2 0.500000 0.499980 0.346870 0.947364
O5    O     O_R   0.500000 0.683240 0.614650 -0.559215
O6    O     O_R   0.499990 0.683210 0.385310 -0.637701
O7    O     O_R   0.571250 0.500000 0.614690 -0.592190
O8    O     O_R   0.571240 0.499960 0.385340 -0.628565
C3    C     C_R   0.501756 0.740031 0.500044 0.932600
C4    C     C_R   0.593986 0.500366 0.500249 0.863800
C5    C     C_R   0.177721 0.393464 0.511705 0.503968
O9    O     O_2   0.202638 0.285035 0.518682 -0.549931
N1    N     N_R   0.201765 0.505124 0.504408 -0.358754
C6    C     C_R   0.178000 0.616935 0.498418 0.504334
C7    C     C_R   0.278734 0.541879 0.618619 -0.102246
C8    C     C_R   0.328804 0.540324 0.617671 -0.207343
C9    C     C_R   0.327492 0.465323 0.384560 -0.220599
C10   C     C_R   0.277411 0.466584 0.385887 -0.096217
C11   C     C_R   0.253095 0.504841 0.502852 0.319868
C12   C     C_R   0.101824 0.505367 0.506208 -0.051558
C13   C     C_R   0.127303 0.391419 0.512529 -0.021316
C14   C     C_R   0.102121 0.278310 0.520529 -0.135814
C15   C     C_R   0.127574 0.619224 0.499404 -0.021809
C16   C     C_R   0.353467 0.502071 0.500505 -0.032733
H1    H     H_    0.345760 0.434050 0.293896 0.151480
H2    H     H_    0.257424 0.437684 0.296439 0.140036
H3    H     H_    0.120960 0.189652 0.527920 0.190731
C17   C     C_R   0.646631 0.501843 0.500901 -0.032913
C18   C     C_R   0.974337 0.389566 0.501876 0.046818
C19   C     C_R   0.974588 0.621357 0.510463 0.046761
C20   C     C_R   0.949235 0.505465 0.505830 0.070313
C21   C     C_R   0.947316 0.277297 0.489601 -0.214521
C22   C     C_R   0.897356 0.278583 0.487223 -0.136189
C23   C     C_R   0.872418 0.391637 0.496079 -0.022358
C24   C     C_R   0.898142 0.505467 0.505014 -0.051601
C25   C     C_R   0.872634 0.619292 0.513042 -0.021483
C26   C     C_R   0.822202 0.617088 0.512024 0.503259
N2    N     N_R   0.798255 0.505433 0.503145 -0.359634
C27   C     C_R   0.822006 0.393807 0.495196 0.504838
C28   C     C_R   0.722053 0.488159 0.624094 -0.111985
C29   C     C_R   0.671980 0.486589 0.623521 -0.218538
C30   C     C_R   0.672011 0.518986 0.379063 -0.216820
C31   C     C_R   0.722102 0.520802 0.380091 -0.105791
C32   C     C_R   0.746987 0.505224 0.502486 0.332707
O10   O     O_2   0.796803 0.285572 0.486389 -0.549091
C33   C     C_R   0.025371 0.389517 0.508935 0.046829
C34   C     C_R   0.050730 0.505434 0.506509 0.070296
C35   C     C_R   0.025631 0.621391 0.504184 0.046740
C36   C     C_R   0.052155 0.277107 0.519265 -0.214729
H4    H     H_    0.653205 0.472653 0.718607 0.160538
H5    H     H_    0.741557 0.475862 0.718645 0.134388
H6    H     H_    0.878327 0.190054 0.478071 0.190694
H7    H     H_    0.963567 0.186308 0.478651 0.138364
H8    H     H_    0.035712 0.186029 0.529273 0.138177
O11   O     O_2   0.203181 0.725234 0.490748 -0.549042
C37   C     C_R   0.102639 0.732437 0.492397 -0.135824
H9    H     H_    0.348146 0.569965 0.707909 0.145219
H10   H     H_    0.259787 0.571384 0.709124 0.138203
H11   H     H_    0.121674 0.821055 0.484990 0.190922
C38   C     C_R   0.947785 0.733614 0.522083 -0.214593
C39   C     C_R   0.897808 0.732332 0.522878 -0.136523
O12   O     O_2   0.797187 0.725272 0.519952 -0.551492
C40   C     C_R   0.052672 0.733780 0.494328 -0.214440
H12   H     H_    0.964223 0.824598 0.533485 0.138270
H13   H     H_    0.653242 0.531439 0.283331 0.156449
H14   H     H_    0.878951 0.820854 0.531442 0.190433
H15   H     H_    0.741651 0.533948 0.286099 0.133609
H16   H     H_    0.036429 0.824949 0.484963 0.138187
C41   C     C_R   0.509468 0.063982 0.623615 0.039697
C42   C     C_R   0.509230 0.128605 0.500785 -0.061110
C43   C     C_R   0.518757 0.064854 0.379140 -0.209815
H17   H     H_    0.522539 0.113910 0.283392 0.167701
C44   C     C_R   0.519095 0.935202 0.379195 -0.228942
H18   H     H_    0.523083 0.886129 0.283495 0.165092
C45   C     C_R   0.509790 0.871302 0.500843 -0.069750
C46   C     C_R   0.509620 0.936239 0.623602 0.076647
C47   C     C_3   0.476464 0.928120 0.743014 0.373756
C48   C     C_3   0.475953 0.070766 0.742191 -0.545069
H19   H     H_    0.494854 0.885484 0.832849 0.102856
H20   H     H_    0.440398 0.112061 0.715080 0.226150
H21   H     H_    0.493579 0.112537 0.833228 0.168330
C49   C     C_R   0.475466 0.409619 0.070924 0.202884
N3    N     N_R   0.499670 0.499140 0.142800 -0.123495
C50   C     C_R   0.527906 0.581838 0.072764 -0.272881
H22   H     H_    0.548503 0.650333 0.129624 0.160193
C51   C     C_R   0.528880 0.580828 0.927136 0.548005
N4    N     N_R   0.499670 0.499180 0.857150 -0.148980
C52   C     C_R   0.475452 0.409644 0.928338 0.110894
C53   C     C_3   0.422607 0.385104 0.921573 -0.477996
C54   C     C_3   0.422514 0.385907 0.075637 -0.495439
H23   H     H_    0.402172 0.464494 0.876653 0.209482
H24   H     H_    0.414230 0.291583 0.877441 0.204921
H25   H     H_    0.402360 0.466561 0.118504 0.211507
H26   H     H_    0.413768 0.293099 0.120797 0.202687
O13   O     O_3   0.431327 0.876202 0.705770 -0.576033
C55   C     C_3   0.407350 0.834068 0.823162 -0.271791
H27   H     H_    0.403298 0.910877 0.898915 0.156070
H28   H     H_    0.426554 0.752827 0.869013 0.155891
H29   H     H_    0.370688 0.801906 0.793868 0.191755
O14   O     O_3   0.555325 0.667582 0.853148 -0.589325
C56   C     C_3   0.602837 0.678790 0.903650 -0.348860
H30   H     H_    0.604109 0.745250 0.990501 0.161305
H31   H     H_    0.618630 0.586533 0.932669 0.148832
H32   H     H_    0.625817 0.718476 0.822199 0.208663

loop_
_geom_bond_atom_site_label_1
_geom_bond_atom_site_label_2
_geom_bond_distance
_ccdc_geom_bond_type
N3    C50   1.366259 A    
C3    C45   1.416676 S    
C53   C54   1.516656 S    
C26   N2    1.364213 A    
C20   C24   1.416931 A    
C7    C8    1.388776 A    
C12   C15   1.408472 A    
C47   C48   1.521068 S    
C44   H18   1.083541 S    
Zn1   O7    2.013170 S    
C56   H31   1.114835 S    
N1    C11   1.423658 S    
C37   H11   1.083673 S    
C38   H12   1.076372 S    
C21   C22   1.385719 A    
C40   H16   1.076368 S    
C15   C37   1.394421 A    
C23   C24   1.408658 A    
O7    C4    1.292973 A    
C5    C13   1.398394 A    
C54   H26   1.111560 S    
C7    H10   1.082953 S    
C39   H14   1.083689 S    
C18   C21   1.415385 A    
C5    N1    1.364993 A    
C19   C20   1.420638 A    
C17   C29   1.404444 A    
C8    H9    1.082617 S    
C1    C42   1.416983 S    
O5    C3    1.281723 A    
C52   C53   1.489227 S    
C30   H13   1.083364 S    
C49   C54   1.490286 S    
C22   H6    1.083697 S    
C2    C16   1.458419 S    
O13   C55   1.408480 S    
C37   C40   1.386025 A    
C51   O14   1.387358 S    
C12   C34   1.416997 A    
C14   H3    1.083680 S    
C53   H23   1.111083 S    
C9    C10   1.389079 A    
O3    Zn1   2.010294 S    
C55   H28   1.113084 S    
O14   C56   1.411345 S    
C47   H19   1.116825 S    
C33   C34   1.420577 A    
C44   C45   1.402478 A    
C41   C42   1.392002 A    
C56   H32   1.109339 S    
C33   C36   1.415315 A    
C42   C43   1.402928 A    
C34   C35   1.420669 A    
C12   C13   1.408449 A    
O3    C2    1.291261 A    
C21   H7    1.076381 S    
C4    C17   1.460015 S    
N4    C52   1.361637 A    
C49   N3    1.361840 A    
C27   O10   1.350116 S    
C47   O13   1.414371 S    
C54   H25   1.110825 S    
C18   C33   1.416740 A    
C9    H1    1.080845 S    
C55   H29   1.109204 S    
O1    C1    1.281707 A    
C7    C11   1.397284 A    
C43   H17   1.083476 S    
C22   C23   1.394215 A    
C31   C32   1.396598 A    
Zn2   O8    2.010294 S    
Zn1   N4    2.008468 S    
C19   C38   1.415476 A    
N1    C6    1.364997 A    
N2    C32   1.421760 S    
C43   C44   1.382441 A    
C31   H15   1.083050 S    
C35   C40   1.415430 A    
C25   C26   1.398746 A    
C9    C16   1.402576 A    
O8    C4    1.293198 A    
C29   H4    1.082853 S    
C53   H24   1.111097 S    
C48   H20   1.112649 S    
C25   C39   1.394329 A    
N2    C27   1.364234 A    
C14   C36   1.385718 A    
C41   C48   1.496561 S    
C24   C25   1.408746 A    
C28   C29   1.388682 A    
Zn1   O5    1.990128 S    
C30   C31   1.389214 A    
C10   H2    1.082967 S    
O1    Zn1   1.989765 S    
C17   C30   1.404595 A    
O2    Zn2   1.990129 S    
C6    C15   1.398777 A    
C50   C51   1.433959 A    
C46   C47   1.497385 S    
O6    C3    1.282112 A    
O4    Zn2   2.013173 S    
C36   H8    1.076410 S    
C26   O12   1.350031 S    
C48   H21   1.111604 S    
C8    C16   1.403983 A    
C56   H30   1.110560 S    
C19   C35   1.417116 A    
Zn2   N3    2.008885 S    
C38   C39   1.386070 A    
O2    C1    1.282610 A    
C13   C14   1.394329 A    
C23   C27   1.398302 A    
C49   C52   1.403627 A    
C28   H5    1.083055 S    
C51   N4    1.371202 A    
O4    C2    1.293996 A    
C55   H27   1.113493 S    
C18   C20   1.420612 A    
C41   C46   1.362053 A    
C45   C46   1.392454 A    
C28   C32   1.396357 A    
C6    O11   1.350099 S    
C50   H22   1.080692 S    
Zn2   O6    1.989764 S    
C10   C11   1.397667 A    
C5    O9    1.350166 S    
