data_mof_unit_48077.cif
_audit_creation_date              2012-12-11T14:50:53-0500
_audit_creation_method            fapswitch 2.2
_symmetry_space_group_name_H-M    P1
_symmetry_Int_Tables_number       1
_space_group_crystal_system       triclinic
_cell_length_a                    10.854759
_cell_length_b                    10.911537
_cell_length_c                    18.817891
_cell_angle_alpha                 90.425149
_cell_angle_beta                  89.84694
_cell_angle_gamma                 60.450375
_cell_volume                      1938.81937483

loop_
_atom_site_label
_atom_site_type_symbol
_atom_type_description
_atom_site_fract_x
_atom_site_fract_y
_atom_site_fract_z
_atom_type_partial_charge
Br1   Br    Br    0.381411 0.182854 0.688592 -0.606952
Br2   Br    Br    0.822275 0.362843 0.143428 -0.544945
C1    C     C_R   0.238684 0.645729 0.610357 0.540137
C2    C     C_R   0.554174 0.200649 0.793018 -0.109200
C3    C     C_R   0.545493 0.192820 0.720689 0.137616
C4    C     C_R   0.654189 0.622492 0.600844 0.542693
C5    C     C_R   0.657309 0.182407 0.677461 0.026785
C6    C     C_R   0.188095 0.556462 0.721650 -0.133893
C7    C     C_R   0.178562 0.560466 0.795523 -0.142723
C8    C     C_R   0.177282 0.672238 0.833659 0.019270
C9    C     C_R   0.196795 0.773179 0.797564 -0.145388
C10   C     C_R   0.205256 0.769574 0.724455 -0.145397
C11   C     C_R   0.200997 0.661293 0.685638 0.017288
C12   C     C_3   0.661009 0.558637 0.800090 -0.248575
C13   C     C_R   0.718173 0.522378 0.270716 -0.101961
C14   C     C_R   0.718027 0.534571 0.197703 0.148538
C15   C     C_R   0.649123 0.669455 0.167117 0.037065
C16   C     C_R   0.626847 0.229267 0.603674 0.564717
C17   C     C_R   0.567838 0.788535 0.210555 -0.163790
C18   C     C_R   0.565197 0.774480 0.284059 -0.144479
C19   C     C_R   0.645810 0.641770 0.314541 -0.000583
C20   C     C_R   0.488782 0.292387 0.270098 -0.137126
C21   C     C_R   0.509805 0.251864 0.199299 -0.128470
C22   C     C_R   0.648036 0.170302 0.173603 0.060793
C23   C     C_3   0.700340 0.674736 0.811716 0.040118
C24   C     C_R   0.764265 0.130776 0.218417 -0.094474
C25   C     C_R   0.743253 0.173091 0.288287 -0.128346
C26   C     C_R   0.605208 0.252918 0.314436 0.029585
C27   C     C_R   0.125405 0.798592 0.299974 -0.132313
C28   C     C_R   0.216640 0.651392 0.403118 0.539628
C29   C     C_R   0.121685 0.799980 0.227686 -0.137199
C30   C     C_R   0.117693 0.690866 0.189784 0.030833
C31   C     C_R   0.115303 0.580465 0.226296 -0.141104
C32   C     C_R   0.129230 0.574314 0.299918 -0.145585
C33   C     C_R   0.143890 0.679348 0.335964 0.031850
C34   C     C_3   0.670682 0.647916 0.676140 0.041613
C35   C     C_R   0.701073 0.104712 0.896749 0.546624
C36   C     C_R   0.724202 0.688551 0.887801 0.543679
C37   C     C_R   0.118367 0.706413 0.905456 0.540406
C38   C     C_R   0.674568 0.107930 0.103815 0.564836
C39   C     C_R   0.693449 0.689281 0.096776 0.572390
C40   C     C_R   0.639838 0.619162 0.390415 0.542356
C41   C     C_R   0.086271 0.713407 0.114894 0.545614
C42   C     C_R   0.581178 0.292897 0.388143 0.555845
C43   C     C_3   0.580414 0.815575 0.780903 -0.219217
C44   C     C_3   0.563554 0.799663 0.700804 -0.226357
C45   C     C_3   0.821917 0.621357 0.690476 -0.248826
C46   C     C_3   0.839634 0.635686 0.770402 -0.226653
C47   C     C_3   0.644025 0.542367 0.720163 -0.216195
C48   C     C_R   0.784379 0.157812 0.709742 -0.184277
C49   C     C_R   0.799551 0.142426 0.783539 -0.158926
C50   C     C_R   0.683730 0.162830 0.825438 -0.012414
Cr1   Cr    Cr6+3 0.392930 0.397900 0.502230 1.052071
Cr2   Cr    Cr6+3 0.398240 0.708600 0.501260 1.026857
Cr3   Cr    Cr6+3 0.708800 0.393470 0.496460 1.016968
Cr4   Cr    Cr6+3 0.937620 0.938540 0.007640 1.050550
Cr5   Cr    Cr6+3 0.625150 0.937450 0.994520 1.021361
Cr6   Cr    Cr6+3 0.937990 0.625080 0.001190 1.050213
H1    H     H_    0.605916 0.901648 0.789413 0.165106
H2    H     H_    0.196671 0.860623 0.825289 0.136762
H3    H     H_    0.478277 0.846662 0.808632 0.135888
H4    H     H_    0.217191 0.851451 0.698600 0.143257
H5    H     H_    0.774730 0.417955 0.293138 0.159610
H6    H     H_    0.514235 0.893410 0.188398 0.146416
H7    H     H_    0.504128 0.867058 0.317050 0.139698
H8    H     H_    0.382549 0.351626 0.290868 0.125956
H9    H     H_    0.419221 0.280364 0.165449 0.130750
H10   H     H_    0.871842 0.064900 0.199820 0.154026
H11   H     H_    0.834929 0.139894 0.321938 0.134953
H12   H     H_    0.720567 0.432531 0.703762 0.148442
H13   H     H_    0.129887 0.884729 0.326611 0.139762
H14   H     H_    0.453070 0.823961 0.690428 0.157520
H15   H     H_    0.119767 0.889327 0.201895 0.144518
H16   H     H_    0.105325 0.498853 0.198178 0.148766
H17   H     H_    0.138407 0.483646 0.327721 0.129728
H18   H     H_    0.582468 0.876256 0.670719 0.166974
H19   H     H_    0.870486 0.717856 0.779627 0.129989
H20   H     H_    0.841240 0.698205 0.660773 0.118587
H21   H     H_    0.744816 0.456739 0.821671 0.139572
H22   H     H_    0.560307 0.586450 0.828475 0.122654
H23   H     H_    0.927123 0.533698 0.789648 0.143446
H24   H     H_    0.535745 0.559291 0.709880 0.130365
H25   H     H_    0.902696 0.513867 0.672318 0.150875
H26   H     H_    0.871597 0.149498 0.677991 0.138594
H27   H     H_    0.901469 0.111125 0.807303 0.141024
H28   H     H_    0.462878 0.217137 0.824081 0.167752
H29   H     H_    0.183794 0.472959 0.692624 0.180429
H30   H     H_    0.163740 0.481156 0.822313 0.140068
O1    O     O_R   0.507430 0.255570 0.581420 -0.449968
O2    O     O_R   0.837200 0.593290 0.915250 -0.517382
O3    O     O_R   0.065330 0.635370 0.931590 -0.509654
O4    O     O_R   0.280190 0.527390 0.578910 -0.488366
O5    O     O_R   0.068300 0.828790 0.091860 -0.525959
O6    O     O_R   0.798730 0.057480 0.079370 -0.484000
O7    O     O_R   0.584680 0.080480 0.076790 -0.529181
O8    O     O_R   0.626790 0.809640 0.067050 -0.514668
O9    O     O_R   0.816010 0.596460 0.076500 -0.457910
O10   O     O_R   0.045680 0.638310 0.081070 -0.500935
O11   O     O_3   0.833590 0.833690 0.001120 -0.262645
O12   O     O_R   0.524460 0.695920 0.424060 -0.495774
O13   O     O_R   0.260310 0.739740 0.584580 -0.525330
O14   O     O_R   0.532250 0.695150 0.573830 -0.500416
O15   O     O_R   0.744930 0.503430 0.576380 -0.521416
O16   O     O_R   0.699250 0.276390 0.571950 -0.512316
O17   O     O_R   0.499020 0.256400 0.419850 -0.507995
O18   O     O_R   0.272400 0.528160 0.429140 -0.525295
O19   O     O_R   0.251910 0.740570 0.423020 -0.521124
O20   O     O_R   0.736530 0.504260 0.414810 -0.529673
O21   O     O_R   0.691460 0.277160 0.422180 -0.512688
O22   O     O_3   0.499990 0.499990 0.499980 -0.277734
O23   O     O_R   0.089490 0.825610 0.930610 -0.521216
O24   O     O_R   0.818370 0.054540 0.929880 -0.492169
O25   O     O_R   0.605870 0.077310 0.915530 -0.530586
O26   O     O_R   0.646440 0.806700 0.917570 -0.510011

loop_
_geom_bond_atom_site_label_1
_geom_bond_atom_site_label_2
_ccdc_geom_bond_type
Cr1   O22   S    
C47   H24   S    
C6    C11   A    
C28   O19   A    
Cr2   O13   S    
C17   C18   A    
Cr6   O10   S    
C41   O10   A    
C49   H27   S    
C44   H18   S    
C48   H26   S    
C43   C44   S    
Cr4   O6    S    
C24   C25   A    
C28   C33   S    
C2    C50   A    
Br1   C3    S    
C22   C24   A    
C7    H30   S    
C36   O26   A    
C29   H15   S    
C12   C47   S    
C35   O25   A    
C13   C14   A    
Cr5   O11   S    
Cr3   O15   S    
C46   H23   S    
Cr2   O22   S    
C34   C45   S    
C32   C33   A    
C21   H9    S    
C20   H8    S    
C35   O24   A    
C41   O5    A    
Cr1   O18   S    
C45   C46   S    
C14   C15   A    
Cr5   O8    S    
C21   C22   A    
C34   C44   S    
C12   H22   S    
Br2   C14   S    
Cr6   O3    S    
Cr4   O23   S    
C44   H14   S    
C25   H11   S    
C32   H17   S    
C42   O21   A    
C1    O13   A    
C37   O23   A    
C20   C26   A    
C28   O18   A    
Cr2   O12   S    
Cr6   O9    S    
C37   O3    A    
C48   C49   A    
Cr4   O5    S    
C49   C50   A    
C18   H7    S    
C3    C5    A    
C35   C50   S    
C6    C7    A    
Cr5   O25   S    
C42   O17   A    
Cr3   O16   S    
C26   C42   S    
C8    C37   S    
C46   H19   S    
C40   O12   A    
C23   C36   S    
C10   H4    S    
C29   C30   A    
C17   H6    S    
C5    C16   S    
Cr1   O4    S    
C31   C32   A    
C16   O16   A    
C4    O15   A    
C10   C11   A    
Cr6   O2    S    
C23   C46   S    
Cr2   O19   S    
C45   H25   S    
C47   H12   S    
Cr3   O22   S    
Cr1   O1    S    
C39   O9    A    
C38   O7    A    
C9    H2    S    
C23   C43   S    
C7    C8    A    
C27   C33   A    
C43   H1    S    
C16   O1    A    
Cr2   O14   S    
Cr6   O11   S    
C5    C48   A    
C38   O6    A    
C2    C3    A    
C1    C11   S    
C9    C10   A    
Cr5   O26   S    
C36   O2    A    
C45   H20   S    
Cr3   O20   S    
C6    H29   S    
C24   H10   S    
C30   C31   A    
C27   C29   A    
C43   H3    S    
C15   C17   A    
C30   C41   S    
C4    C34   S    
C4    O14   A    
C12   C23   S    
C15   C39   S    
C22   C38   S    
C12   H21   S    
C8    C9    A    
C19   C40   S    
C39   O8    A    
Cr1   O17   S    
C31   H16   S    
C13   C19   A    
C2    H28   S    
C18   C19   A    
Cr5   O7    S    
C25   C26   A    
C13   H5    S    
C20   C21   A    
C1    O4    A    
Cr4   O11   S    
C40   O20   A    
Cr4   O24   S    
Cr3   O21   S    
C34   C47   S    
C27   H13   S    
