data_mof_unit_24604.cif
_audit_creation_date              2013-03-05T15:51:40-0500
_audit_creation_method            fapswitch 2.2
_symmetry_space_group_name_H-M    P1
_symmetry_Int_Tables_number       1
_space_group_crystal_system       triclinic
_cell_length_a                    11.537816
_cell_length_b                    11.555689
_cell_length_c                    19.506943
_cell_angle_alpha                 90.703738
_cell_angle_beta                  90.282674
_cell_angle_gamma                 60.28519
_cell_volume                      2258.64021738

loop_
_atom_site_label
_atom_site_type_symbol
_atom_site_description
_atom_site_fract_x
_atom_site_fract_y
_atom_site_fract_z
_atom_type_partial_charge
O1    O     O_R   0.267750 0.231960 0.575440 -0.501976
O2    O     O_R   0.527290 0.186640 0.570530 -0.501339
C1    C     C_R   0.640739 0.117327 0.599068 0.534125
O3    O     O_R   0.728110 0.003450 0.576380 -0.504293
O4    O     O_R   0.682980 0.789190 0.570500 -0.494295
C2    C     C_R   0.612645 0.745779 0.598511 0.538977
O5    O     O_R   0.499300 0.771880 0.575540 -0.509933
O6    O     O_R   0.285350 0.030870 0.569740 -0.491874
C3    C     C_R   0.240970 0.145252 0.598079 0.547634
O7    O     O_R   0.270960 0.227070 0.423890 -0.510565
O8    O     O_R   0.530270 0.182120 0.430040 -0.526224
C4    C     C_R   0.646627 0.113744 0.403751 0.536029
O9    O     O_R   0.731320 0.998570 0.424830 -0.455789
O10   O     O_R   0.685950 0.784660 0.430010 -0.471266
C5    C     C_R   0.617600 0.735275 0.404005 0.529928
O11   O     O_R   0.502510 0.767000 0.423980 -0.541944
O12   O     O_R   0.288320 0.026340 0.429250 -0.506872
C6    C     C_R   0.241727 0.142009 0.401835 0.536007
Cr1   Cr    Cr6+3 0.404720 0.198220 0.499960 1.014077
Cr2   Cr    Cr6+3 0.698290 0.897110 0.500380 1.074209
Cr3   Cr    Cr6+3 0.396970 0.904720 0.499610 1.015068
O13   O     O_3   0.499990 0.000020 0.499980 -0.258724
C7    C     C_1   0.670254 0.646623 0.860254 0.003808
C8    C     C_1   0.655099 0.683560 0.728402 -0.030913
C9    C     C_1   0.663485 0.666738 0.799749 -0.031378
C10   C     C_1   0.641648 0.703691 0.667885 0.004936
C11   C     C_1   0.126834 0.198652 0.859405 0.001663
C12   C     C_1   0.171420 0.170281 0.727659 -0.030424
C13   C     C_1   0.150220 0.182151 0.798973 -0.031155
C14   C     C_1   0.195164 0.160978 0.667264 0.004328
C15   C     C_1   0.678390 0.191043 0.860900 0.003824
C16   C     C_1   0.658922 0.167254 0.728958 -0.030618
C17   C     C_1   0.665634 0.180770 0.800346 -0.031142
C18   C     C_1   0.653556 0.149710 0.668465 0.004917
C19   C     C_R   0.673683 0.660227 0.193251 -0.007012
C20   C     C_R   0.549567 0.738090 0.221509 0.002223
C21   C     C_R   0.533775 0.751839 0.289999 0.011224
C22   C     C_R   0.771147 0.619900 0.307567 -0.158372
C23   C     C_R   0.787001 0.606614 0.236417 -0.164243
C24   C     C_3   0.412804 0.758897 0.208614 -0.103125
C25   C     C_3   0.392626 0.777704 0.286675 -0.084187
C26   C     C_R   0.641993 0.689258 0.334830 -0.007678
H1    H     H_    0.857812 0.577183 0.340678 0.166726
H2    H     H_    0.886222 0.547947 0.215629 0.147407
H3    H     H_    0.414471 0.667393 0.189193 0.153358
H4    H     H_    0.320718 0.880771 0.303681 0.165451
C27   C     C_R   0.056729 0.248843 0.205532 -0.021533
C28   C     C_R   0.111677 0.318850 0.237576 0.006121
C29   C     C_R   0.164506 0.285186 0.301966 0.023424
C30   C     C_R   0.091407 0.123809 0.311499 -0.171893
C31   C     C_R   0.036549 0.158385 0.245005 -0.154722
C32   C     C_3   0.220349 0.344749 0.213926 -0.110037
C33   C     C_3   0.278441 0.307735 0.285602 -0.229269
C34   C     C_R   0.164497 0.181435 0.338350 -0.010998
H5    H     H_    0.082957 0.048482 0.339868 0.163966
H6    H     H_    0.986688 0.108470 0.222860 0.181647
H7    H     H_    0.285006 0.272523 0.173857 0.154833
H8    H     H_    0.376099 0.214069 0.286635 0.121039
H9    H     H_    0.275104 0.390866 0.316382 0.148656
C35   C     C_R   0.669277 0.202516 0.195696 0.021161
C36   C     C_R   0.657435 0.094000 0.214357 -0.056385
C37   C     C_R   0.655719 0.066914 0.282754 -0.020076
C38   C     C_R   0.663556 0.265064 0.317037 -0.015121
C39   C     C_R   0.663929 0.292900 0.246729 -0.146119
C40   C     C_3   0.741054 0.951098 0.193985 -0.243435
C41   C     C_3   0.744225 0.921339 0.269586 0.113911
C42   C     C_R   0.663181 0.147099 0.334664 0.086843
H10   H     H_    0.674424 0.377365 0.231802 0.117703
H11   H     H_    0.839621 0.926022 0.172056 0.187410
H12   H     H_    0.684273 0.914889 0.162972 0.092091
H13   H     H_    0.693699 0.865709 0.283024 0.122720
O14   O     O_R   0.821590 0.119350 0.952850 -0.503791
O15   O     O_R   0.037230 0.162540 0.957390 -0.488955
C43   C     C_R   0.081856 0.231168 0.928715 0.553589
O16   O     O_R   0.056530 0.344750 0.951370 -0.501235
O17   O     O_R   0.798000 0.560370 0.957490 -0.492022
C44   C     C_R   0.683880 0.604554 0.929621 0.548457
O18   O     O_R   0.596230 0.579400 0.952760 -0.504330
O19   O     O_R   0.639160 0.321170 0.958690 -0.491682
C45   C     C_R   0.708304 0.206570 0.930297 0.547068
O20   O     O_R   0.821370 0.124220 0.104400 -0.526881
O21   O     O_R   0.037020 0.167050 0.097880 -0.508306
C46   C     C_R   0.022837 0.270475 0.132825 0.541932
O22   O     O_R   0.056310 0.349620 0.102920 -0.531212
O23   O     O_R   0.797790 0.564880 0.097980 -0.526723
C47   C     C_R   0.685024 0.609826 0.125557 0.540472
O24   O     O_R   0.596000 0.584270 0.104310 -0.529011
O25   O     O_R   0.638950 0.325690 0.099180 -0.513073
C48   C     C_R   0.708110 0.213524 0.127121 0.536023
Cr4   Cr    Cr6+3 0.926290 0.152010 0.028150 1.014445
Cr5   Cr    Cr6+3 0.921440 0.451830 0.027490 1.007661
Cr6   Cr    Cr6+3 0.626370 0.446880 0.028730 1.005059
O26   O     O_3   0.824700 0.350240 0.028120 -0.269239
C49   C     C_3   0.689992 0.346840 0.369765 -0.290054
C50   C     C_3   0.584249 0.408570 0.426123 -0.424186
H14   H     H_    0.484025 0.433937 0.406462 0.156949
H15   H     H_    0.610613 0.339372 0.469774 0.167549
H16   H     H_    0.580936 0.500227 0.446532 0.146396
H17   H     H_    0.789054 0.282718 0.393609 0.156187
H18   H     H_    0.696208 0.428565 0.344017 0.146285
N1    N     N_R   0.877123 0.869950 0.299459 0.089212
O27   O     O_R   0.927044 0.764817 0.337719 -0.375220
O28   O     O_R   0.943372 0.932769 0.290934 -0.420503
C51   C     C_3   0.323072 0.881162 0.164547 -0.268410
C52   C     C_3   0.360113 0.991349 0.166113 -0.418980
H19   H     H_    0.353994 0.029762 0.219142 0.147662
H20   H     H_    0.462195 0.953895 0.145649 0.142807
H21   H     H_    0.291526 0.073441 0.132466 0.167775
H22   H     H_    0.330031 0.846842 0.110482 0.160020
H23   H     H_    0.217784 0.922117 0.180757 0.164388
C53   C     C_3   0.371572 0.669386 0.320099 -0.321910
C54   C     C_3   0.225721 0.706791 0.317740 -0.399105
H24   H     H_    0.166968 0.795427 0.351110 0.210835
H25   H     H_    0.187290 0.729428 0.264529 0.191890
H26   H     H_    0.214288 0.623402 0.337498 0.156589
H27   H     H_    0.434174 0.570751 0.295029 0.145059
H28   H     H_    0.399343 0.658614 0.374643 0.190683
C55   C     C_3   0.169608 0.491092 0.195334 -0.273398
C56   C     C_3   0.283130 0.507986 0.166908 -0.440895
H29   H     H_    0.363751 0.477482 0.205482 0.155657
H30   H     H_    0.325011 0.445953 0.119863 0.166040
H31   H     H_    0.244759 0.613797 0.153330 0.129452
H32   H     H_    0.091179 0.523526 0.155454 0.185331
H33   H     H_    0.123594 0.557735 0.240464 0.175134

loop_
_geom_bond_atom_site_label_1
_geom_bond_atom_site_label_2
_geom_bond_distance
_ccdc_geom_bond_type
C8    C9    1.403863 S    
N1    O27   1.299627 A    
C33   H8    1.110314 S    
C11   C13   1.202279 T    
O15   C43   1.274930 A    
C50   H14   1.110209 S    
C54   H25   1.108861 S    
C33   H9    1.110942 S    
C50   H16   1.109698 S    
C15   C45   1.426436 S    
O4    Cr2   1.928745 S    
C2    C10   1.424846 S    
C44   O18   1.268891 A    
C4    O9    1.271007 A    
C52   H20   1.108571 S    
C38   C49   1.517469 S    
O8    Cr1   1.933741 S    
C30   C34   1.404524 A    
C37   C42   1.395188 A    
C46   O22   1.300533 A    
C39   H10   1.084725 S    
C12   C13   1.406862 S    
C8    C10   1.200400 T    
O15   Cr4   1.932472 S    
C22   C26   1.399675 A    
C51   H22   1.111312 S    
C19   C47   1.416797 S    
C40   H11   1.111459 S    
Cr5   O26   1.980812 S    
C5    O11   1.252397 A    
C31   H6    1.081966 S    
C21   C26   1.398697 A    
C55   C56   1.524621 S    
C54   H24   1.109958 S    
C41   H13   1.094964 S    
O6    C3    1.276222 A    
C25   H4    1.109186 S    
C15   C17   1.201339 T    
C53   H27   1.110693 S    
O22   Cr5   2.044398 S    
C27   C46   1.460580 S    
C11   C43   1.428139 S    
C29   C34   1.400765 A    
O9    Cr2   2.045173 S    
O16   Cr5   2.056946 S    
O20   C48   1.275393 A    
N1    O28   1.301218 A    
Cr3   O13   1.980671 S    
C41   N1    1.462997 S    
C49   C50   1.528776 S    
C51   C52   1.530755 S    
C52   H21   1.105841 S    
O12   C6    1.289942 A    
C56   H30   1.111009 S    
O23   Cr5   1.939143 S    
C24   H3    1.109978 S    
C4    C42   1.445518 S    
C38   C42   1.412045 A    
O1    Cr1   2.053147 S    
C43   O16   1.268940 A    
C37   C41   1.492517 S    
O25   Cr6   1.927349 S    
C20   C24   1.494129 S    
Cr1   O13   1.989497 S    
O1    C3    1.270267 A    
O17   C44   1.274048 A    
C47   O24   1.267889 A    
C27   C31   1.415127 A    
C1    C18   1.426495 S    
O18   Cr6   2.045698 S    
O23   C47   1.257799 A    
O12   Cr3   1.927234 S    
O19   C45   1.279021 A    
C35   C36   1.380296 A    
C19   C20   1.371997 A    
C16   C18   1.201365 T    
C19   C23   1.414624 A    
O10   Cr2   1.931526 S    
C24   C51   1.542045 S    
O14   Cr4   2.044543 S    
C27   C28   1.392566 A    
C49   H18   1.108357 S    
O7    Cr1   2.043119 S    
C56   H29   1.109159 S    
O6    Cr3   1.939669 S    
C30   C31   1.413029 A    
C55   H33   1.110204 S    
C7    C44   1.424889 S    
O19   Cr6   1.933758 S    
C2    O5    1.268261 A    
C3    C14   1.428109 S    
O20   Cr4   2.048368 S    
C24   C25   1.537963 S    
Cr2   O13   1.987884 S    
O21   C46   1.306539 A    
C1    O3    1.272303 A    
C32   C33   1.519323 S    
Cr4   O26   1.989812 S    
C56   H31   1.109662 S    
C35   C48   1.439769 S    
C28   C29   1.367441 A    
C53   C54   1.516383 S    
O2    Cr1   1.926290 S    
C22   C23   1.397431 A    
C5    C26   1.421470 S    
O8    C4    1.278614 A    
C50   H15   1.109063 S    
O11   Cr3   2.056921 S    
C23   H2    1.078430 S    
C52   H19   1.109266 S    
C30   H5    1.081631 S    
O21   Cr4   1.926083 S    
C53   H28   1.100259 S    
C35   C39   1.413108 A    
C16   C17   1.405409 S    
C12   C14   1.202268 T    
O2    C1    1.276398 A    
C22   H1    1.082966 S    
O14   C45   1.271626 A    
O5    Cr3   2.045987 S    
C51   H23   1.108979 S    
O4    C2    1.274153 A    
C49   H17   1.111462 S    
O7    C6    1.257726 A    
C29   C33   1.497865 S    
Cr6   O26   1.987490 S    
C55   H32   1.108374 S    
C7    C9    1.200409 T    
C21   C25   1.504191 S    
C36   C37   1.376641 A    
C32   H7    1.111988 S    
C6    C34   1.461416 S    
O17   Cr5   1.928234 S    
C38   C39   1.413054 A    
O3    Cr2   2.048329 S    
C36   C40   1.491260 S    
C28   C32   1.501863 S    
O25   C48   1.265522 A    
C20   C21   1.346073 A    
C40   C41   1.514578 S    
C25   C53   1.540748 S    
O10   C5    1.280633 A    
O24   Cr6   2.052588 S    
C54   H26   1.109119 S    
C40   H12   1.109899 S    
C32   C55   1.538038 S    
